MODEL        1
REMARK  Name = ZINC000055107283
REMARK                            x       y       z     vdW  Elec       q    Type
REMARK                         _______ _______ _______ _____ _____    ______ ____
ROOT
ATOM      1  C   LIG    1        0.132   0.015   2.484  0.00  0.00    +0.150 C 
ENDROOT
BRANCH   1   2
ATOM      2  N   LIG    1       -0.395   1.386   2.437  0.00  0.00    -0.510 NA
ATOM      3  C   LIG    1       -1.183   1.605   1.214  0.00  0.00    +0.250 C 
ATOM      4  C   LIG    1       -1.694   3.022   1.200  0.00  0.00    +0.540 C 
ATOM      5  N   LIG    1       -1.934   3.675   2.350  0.00  0.00    -0.670 N 
ATOM      6  H   LIG    1       -2.269   4.585   2.319  0.00  0.00    +0.420 HD
ATOM      7  C   LIG    1       -1.717   3.095   3.544  0.00  0.00    +0.540 C 
ATOM      8  O   LIG    1       -1.935   3.716   4.562  0.00  0.00    -0.490 OA
ATOM      9  O   LIG    1       -1.893   3.578   0.141  0.00  0.00    -0.490 OA
ATOM     10  C   LIG    1       -1.206   1.680   3.628  0.00  0.00    +0.250 C 
ENDBRANCH   1   2
BRANCH   1  11
ATOM     11  C   LIG    1        0.992  -0.149   3.711  0.00  0.00    +0.520 C 
ATOM     12  O   LIG    1        1.474   0.825   4.250  0.00  0.00    -0.510 OA
ATOM     13  N   LIG    1        1.224  -1.380   4.211  0.00  0.00    -0.850 N 
ATOM     14  H   LIG    1        1.715  -1.481   5.041  0.00  0.00    +0.410 HD
ATOM     15  H   LIG    1        0.901  -2.163   3.740  0.00  0.00    +0.400 HD
ENDBRANCH   1  11
BRANCH   1  16
ATOM     16  C   LIG    1        0.972  -0.252   1.234  0.00  0.00    +0.060 C 
BRANCH  16  18
ATOM     17  C   LIG    1        0.202  -2.621   1.052  0.00  0.00    +0.010 C 
ATOM     18  C   LIG    1        1.422  -1.714   1.224  0.00  0.00    -0.030 C 
ATOM     19  C   LIG    1        2.394  -1.941   0.064  0.00  0.00    +0.030 C 
ENDBRANCH  16  18
ENDBRANCH   1  16
TORSDOF 4
ENDMDL
MODEL        2
REMARK  Name = ZINC000045887868
REMARK                            x       y       z     vdW  Elec       q    Type
REMARK                         _______ _______ _______ _____ _____    ______ ____
ROOT
ATOM      1  C   LIG    1        0.657  -2.104  -1.120  0.00  0.00    +0.040 C 
ATOM      2  C   LIG    1       -0.760  -2.707  -1.248  0.00  0.00    +0.120 C 
ATOM      3  C   LIG    1       -0.580  -3.880  -2.187  0.00  0.00    +0.520 C 
ATOM      4  N   LIG    1        0.592  -3.777  -2.836  0.00  0.00    -0.520 N 
ATOM      5  O   LIG    1       -1.378  -4.782  -2.333  0.00  0.00    -0.470 OA
ATOM      6  C   LIG    1        1.318  -2.564  -2.438  0.00  0.00    +0.340 C 
ENDROOT
BRANCH   4   7
ATOM      7  C   LIG    1        1.062  -4.707  -3.770  0.00  0.00    +0.430 A 
ATOM      8  N   LIG    1        0.443  -5.802  -4.157  0.00  0.00    -0.290 NA
ATOM      9  N   LIG    1        1.290  -6.412  -5.097  0.00  0.00    -0.200 N 
ATOM     10  N   LIG    1        2.332  -5.662  -5.209  0.00  0.00    +0.020 NA
ATOM     11  C   LIG    1        1.035  -7.664  -5.815  0.00  0.00    +0.420 C 
ATOM     12  N   LIG    1        2.216  -4.642  -4.435  0.00  0.00    -0.320 NA
ENDBRANCH   4   7
BRANCH   1  13
ATOM     13  C   LIG    1        0.598  -0.600  -1.043  0.00  0.00    +0.480 C 
ATOM     14  O   LIG    1        1.088   0.070  -1.921  0.00  0.00    -0.490 OA
BRANCH  13  16
ATOM     15  C   LIG    1       -0.018   1.448   0.010  0.00  0.00    +0.280 C 
ATOM     16  O   LIG    1        0.002  -0.004   0.002  0.00  0.00    -0.350 OA
ENDBRANCH  13  16
ENDBRANCH   1  13
TORSDOF 3
ENDMDL
MODEL        3
REMARK  Name = ZINC000045887892
REMARK                            x       y       z     vdW  Elec       q    Type
REMARK                         _______ _______ _______ _____ _____    ______ ____
ROOT
ATOM      1  N   LIG    1        0.052  -3.250   1.418  0.00  0.00    -0.520 N 
ATOM      2  C   LIG    1        0.074  -4.603   0.850  0.00  0.00    +0.330 C 
ATOM      3  C   LIG    1        0.525  -5.527   2.003  0.00  0.00    +0.000 C 
ATOM      4  C   LIG    1        0.087  -4.717   3.246  0.00  0.00    +0.110 C 
ATOM      5  C   LIG    1        0.059  -3.284   2.762  0.00  0.00    +0.520 C 
ATOM      6  O   LIG    1        0.038  -2.308   3.481  0.00  0.00    -0.480 OA
ENDROOT
BRANCH   1  11
ATOM      7  C   LIG    1       -0.018   1.461   0.010  0.00  0.00    +0.420 C 
ATOM      8  N   LIG    1        0.002  -0.004   0.002  0.00  0.00    -0.200 N 
ATOM      9  N   LIG    1        0.008  -0.765  -1.039  0.00  0.00    +0.020 NA
ATOM     10  N   LIG    1        0.026  -1.997  -0.673  0.00  0.00    -0.320 NA
ATOM     11  C   LIG    1        0.033  -2.075   0.658  0.00  0.00    +0.430 A 
ATOM     12  N   LIG    1        0.024  -0.845   1.127  0.00  0.00    -0.290 NA
ENDBRANCH   1  11
BRANCH   3  13
ATOM     13  C   LIG    1       -0.189  -6.852   1.944  0.00  0.00    +0.530 C 
ATOM     14  O   LIG    1       -0.995  -7.068   1.064  0.00  0.00    -0.530 OA
ATOM     15  N   LIG    1        0.069  -7.799   2.868  0.00  0.00    -0.850 N 
ATOM     16  H   LIG    1       -0.390  -8.652   2.829  0.00  0.00    +0.410 HD
ATOM     17  H   LIG    1        0.714  -7.627   3.571  0.00  0.00    +0.400 HD
ENDBRANCH   3  13
TORSDOF 2
ENDMDL
MODEL        4
REMARK  Name = ZINC000045887897
REMARK                            x       y       z     vdW  Elec       q    Type
REMARK                         _______ _______ _______ _____ _____    ______ ____
ROOT
ATOM      1  N   LIG    1        0.052  -3.250   1.418  0.00  0.00    -0.520 N 
ATOM      2  C   LIG    1        0.074  -4.603   0.850  0.00  0.00    +0.330 C 
ATOM      3  C   LIG    1        0.525  -5.527   2.003  0.00  0.00    +0.010 C 
ATOM      4  C   LIG    1        0.087  -4.717   3.246  0.00  0.00    +0.110 C 
ATOM      5  C   LIG    1        0.059  -3.284   2.762  0.00  0.00    +0.520 C 
ATOM      6  O   LIG    1        0.038  -2.308   3.481  0.00  0.00    -0.480 OA
ENDROOT
BRANCH   1  11
ATOM      7  C   LIG    1       -0.018   1.461   0.010  0.00  0.00    +0.420 C 
ATOM      8  N   LIG    1        0.002  -0.004   0.002  0.00  0.00    -0.200 N 
ATOM      9  N   LIG    1        0.008  -0.765  -1.039  0.00  0.00    +0.020 NA
ATOM     10  N   LIG    1        0.026  -1.997  -0.673  0.00  0.00    -0.320 NA
ATOM     11  C   LIG    1        0.033  -2.075   0.658  0.00  0.00    +0.430 A 
ATOM     12  N   LIG    1        0.024  -0.845   1.127  0.00  0.00    -0.290 NA
ENDBRANCH   1  11
BRANCH   3  13
ATOM     13  C   LIG    1        2.019  -5.721   1.985  0.00  0.00    +0.520 C 
ATOM     14  O   LIG    1        2.691  -5.179   1.134  0.00  0.00    -0.530 OA
ATOM     15  N   LIG    1        2.609  -6.498   2.916  0.00  0.00    -0.850 N 
ATOM     16  H   LIG    1        3.571  -6.623   2.904  0.00  0.00    +0.410 HD
ATOM     17  H   LIG    1        2.072  -6.931   3.597  0.00  0.00    +0.400 HD
ENDBRANCH   3  13
TORSDOF 2
ENDMDL
MODEL        5
REMARK  Name = ZINC000013516537
REMARK                            x       y       z     vdW  Elec       q    Type
REMARK                         _______ _______ _______ _____ _____    ______ ____
ROOT
ATOM      1  C1* LIG    1        2.416   1.181  -0.020  0.00  0.00    +0.410 C 
ATOM      2  O4* LIG    1        2.424   0.199  -1.078  0.00  0.00    -0.340 OA
ATOM      3  C4* LIG    1        3.424  -0.776  -0.737  0.00  0.00    +0.150 C 
ATOM      4  C3* LIG    1        3.561  -0.774   0.798  0.00  0.00    +0.140 C 
ATOM      5  C2* LIG    1        2.584   0.334   1.266  0.00  0.00    +0.180 C 
ENDROOT
BRANCH   1  12
ATOM      6  O   LIG    1        0.002  -0.004   0.002  0.00  0.00    -0.540 OA
ATOM      7  C   LIG    1       -0.015   1.216   0.009  0.00  0.00    +0.520 A 
ATOM      8  C   LIG    1       -1.241   1.902   0.030  0.00  0.00    -0.090 A 
ATOM      9  C   LIG    1       -1.243   3.266   0.037  0.00  0.00    +0.130 A 
ATOM     10  C   LIG    1       -0.022   3.954   0.023  0.00  0.00    -0.080 A 
ATOM     11  C   LIG    1        1.142   3.263   0.003  0.00  0.00    +0.300 A 
ATOM     12  N   LIG    1        1.143   1.905   0.001  0.00  0.00    -0.490 N 
ENDBRANCH   1  12
BRANCH   4  13
ATOM     13  O3* LIG    1        4.901  -0.453   1.179  0.00  0.00    -0.540 OA
ATOM     14  H3* LIG    1        5.562  -1.084   0.862  0.00  0.00    +0.390 HD
ENDBRANCH   4  13
BRANCH   5  15
ATOM     15  O2* LIG    1        3.159   1.108   2.322  0.00  0.00    -0.540 OA
ATOM     16  H2* LIG    1        3.364   0.597   3.117  0.00  0.00    +0.390 HD
ENDBRANCH   5  15
BRANCH   3  17
ATOM     17  C5* LIG    1        2.986  -2.160  -1.221  0.00  0.00    +0.200 C 
BRANCH  17  18
ATOM     18  O5* LIG    1        2.961  -2.179  -2.650  0.00  0.00    -0.560 OA
ATOM     19  H5* LIG    1        2.691  -3.028  -3.027  0.00  0.00    +0.380 HD
ENDBRANCH  17  18
ENDBRANCH   3  17
TORSDOF 5
ENDMDL
MODEL        6
REMARK  Name = ZINC000090635919
REMARK                            x       y       z     vdW  Elec       q    Type
REMARK                         _______ _______ _______ _____ _____    ______ ____
ROOT
ATOM      1  C   LIG    1        0.036  -4.152  -2.355  0.00  0.00    +0.600 C 
ENDROOT
BRANCH   1   7
ATOM      2  C   LIG    1       -0.018   1.503   0.010  0.00  0.00    +0.120 C 
ATOM      3  C   LIG    1        0.002  -0.004   0.002  0.00  0.00    +0.510 C 
ATOM      4  N   LIG    1        0.000  -0.672  -1.169  0.00  0.00    -0.690 N 
ATOM      5  H   LIG    1       -0.015  -0.182  -2.006  0.00  0.00    +0.410 HD
ATOM      6  C   LIG    1        0.018  -2.019  -1.176  0.00  0.00    +0.700 C 
ATOM      7  N   LIG    1        0.016  -2.687  -2.347  0.00  0.00    -0.740 N 
ATOM      8  H   LIG    1        0.002  -2.197  -3.184  0.00  0.00    +0.400 HD
ATOM      9  O   LIG    1        0.037  -2.632  -0.127  0.00  0.00    -0.530 OA
ATOM     10  O   LIG    1        0.020  -0.616   1.048  0.00  0.00    -0.470 OA
ENDBRANCH   1   7
BRANCH   1  11
ATOM     11  N   LIG    1       -1.334  -4.658  -2.465  0.00  0.00    -0.740 N 
ATOM     12  H   LIG    1       -1.878  -4.762  -1.669  0.00  0.00    +0.400 HD
ATOM     13  C   LIG    1       -1.839  -4.979  -3.673  0.00  0.00    +0.700 C 
ATOM     14  N   LIG    1       -3.100  -5.445  -3.774  0.00  0.00    -0.690 N 
ATOM     15  H   LIG    1       -3.644  -5.549  -2.978  0.00  0.00    +0.410 HD
ATOM     16  C   LIG    1       -3.605  -5.765  -4.982  0.00  0.00    +0.510 C 
ATOM     17  O   LIG    1       -2.925  -5.635  -5.977  0.00  0.00    -0.470 OA
ATOM     18  C   LIG    1       -5.014  -6.286  -5.095  0.00  0.00    +0.110 C 
ATOM     19  O   LIG    1       -1.158  -4.848  -4.671  0.00  0.00    -0.530 OA
ENDBRANCH   1  11
TORSDOF 2
ENDMDL
MODEL        7
REMARK  Name = ZINC000004761954
REMARK                            x       y       z     vdW  Elec       q    Type
REMARK                         _______ _______ _______ _____ _____    ______ ____
ROOT
ATOM      1  C   UNK A  1       -1.414  -2.036   0.129  0.00  0.00    +0.490 C 
ATOM      2  N   THR A  2       -1.226  -2.617   1.330  0.00  0.00    -0.660 N 
ATOM      3  H   THR A  2       -1.103  -2.068   2.120  0.00  0.00    +0.400 HD
ATOM      4  O   UNK A  1       -1.567  -2.722  -0.860  0.00  0.00    -0.530 OA
ENDROOT
BRANCH   1   5
ATOM      5  C   UNK A  1       -1.433  -0.534   0.013  0.00  0.00    +0.170 C 
BRANCH   5   6
ATOM      6  N   UNK A  1       -2.107  -0.147  -1.234  0.00  0.00    -0.620 N 
ATOM      7  H   UNK A  1       -1.610  -0.539  -2.020  0.00  0.00    +0.440 HD
ATOM      8  H   UNK A  1       -2.120   0.859  -1.311  0.00  0.00    +0.430 HD
ATOM      9  H   UNK A  1       -3.054  -0.496  -1.227  0.00  0.00    +0.440 HD
ENDBRANCH   5   6
BRANCH   5  11
ATOM     10  C   UNK A  1       -0.019   1.526   0.010  0.00  0.00    +0.050 C 
ATOM     11  C   UNK A  1        0.002  -0.004   0.002  0.00  0.00    +0.070 C 
ENDBRANCH   5  11
ENDBRANCH   1   5
BRANCH   2  12
ATOM     12  CA  THR A  2       -1.207  -4.078   1.442  0.00  0.00    +0.140 C 
BRANCH  12  13
ATOM     13  C   THR A  2       -2.618  -4.590   1.577  0.00  0.00    +0.500 C 
ATOM     14  OXT THR A  2       -3.469  -3.899   2.111  0.00  0.00    -0.680 OA
ATOM     15  O   THR A  2       -2.908  -5.695   1.151  0.00  0.00    -0.680 OA
ENDBRANCH  12  13
BRANCH  12  16
ATOM     16  CB  THR A  2       -0.397  -4.484   2.676  0.00  0.00    +0.230 C 
ATOM     17  CG2 THR A  2        0.998  -3.859   2.599  0.00  0.00    +0.010 C 
BRANCH  16  18
ATOM     18  OG1 THR A  2       -1.061  -4.023   3.854  0.00  0.00    -0.540 OA
ATOM     19  HG1 THR A  2       -1.175  -3.063   3.891  0.00  0.00    +0.360 HD
ENDBRANCH  16  18
ENDBRANCH  12  16
ENDBRANCH   2  12
TORSDOF 7
ENDMDL
MODEL        8
REMARK  Name = ZINC000000137881
REMARK                            x       y       z     vdW  Elec       q    Type
REMARK                         _______ _______ _______ _____ _____    ______ ____
ROOT
ATOM      1  O   LIG    1        0.112  -0.000   0.297  0.00  0.00    -0.520 OA
ATOM      2  C   LIG    1        0.111   1.217   0.274  0.00  0.00    +0.550 A 
ATOM      3  C   LIG    1        1.163   1.945   0.879  0.00  0.00    -0.130 A 
ATOM      4  C   LIG    1        1.137   3.294   0.838  0.00  0.00    +0.360 A 
ATOM      5  N   LIG    1        0.100   3.934   0.216  0.00  0.00    -0.550 N 
ATOM      6  C   LIG    1       -0.894   3.231  -0.356  0.00  0.00    +0.680 A 
ATOM      7  O   LIG    1       -1.807   3.819  -0.903  0.00  0.00    -0.490 OA
ATOM      8  N   LIG    1       -0.891   1.885  -0.334  0.00  0.00    -0.660 N 
ATOM      9  H   LIG    1       -1.616   1.393  -0.751  0.00  0.00    +0.430 HD
ENDROOT
BRANCH   5  10
ATOM     10  C   LIG    1        0.072   5.398   0.172  0.00  0.00    +0.440 C 
ATOM     11  C   LIG    1        0.567   5.969   1.481  0.00  0.00    -0.050 C 
ATOM     12  C   LIG    1       -0.472   6.351   2.185  0.00  0.00    +0.030 C 
ATOM     13  C   LIG    1       -1.723   6.057   1.388  0.00  0.00    +0.200 C 
ATOM     14  O   LIG    1       -1.283   5.865   0.028  0.00  0.00    -0.300 OA
BRANCH  13  15
ATOM     15  C   LIG    1       -2.397   4.787   1.912  0.00  0.00    +0.170 C 
BRANCH  15  16
ATOM     16  O   LIG    1       -3.630   4.583   1.220  0.00  0.00    -0.550 OA
ATOM     17  H   LIG    1       -4.113   3.793   1.502  0.00  0.00    +0.380 HD
ENDBRANCH  15  16
ENDBRANCH  13  15
ENDBRANCH   5  10
TORSDOF 3
ENDMDL
MODEL        9
REMARK  Name = ZINC000001555634
REMARK                            x       y       z     vdW  Elec       q    Type
REMARK                         _______ _______ _______ _____ _____    ______ ____
ROOT
ATOM      1  O   LIG    1        0.486   0.037  -0.157  0.00  0.00    -0.510 OA
ATOM      2  C   LIG    1        0.365   1.249  -0.119  0.00  0.00    +0.550 A 
ATOM      3  C   LIG    1       -0.914   1.833   0.047  0.00  0.00    -0.130 A 
ATOM      4  C   LIG    1       -1.021   3.179   0.087  0.00  0.00    +0.350 A 
ATOM      5  N   LIG    1        0.102   3.952  -0.034  0.00  0.00    -0.530 N 
ATOM      6  C   LIG    1        1.312   3.384  -0.191  0.00  0.00    +0.690 A 
ATOM      7  O   LIG    1        2.296   4.089  -0.296  0.00  0.00    -0.530 OA
ATOM      8  N   LIG    1        1.447   2.045  -0.229  0.00  0.00    -0.660 N 
ATOM      9  H   LIG    1        2.327   1.652  -0.343  0.00  0.00    +0.430 HD
ENDROOT
BRANCH   5  10
ATOM     10  C   LIG    1       -0.014   5.412   0.009  0.00  0.00    +0.320 C 
BRANCH  10  11
ATOM     11  C   LIG    1        0.119   5.891   1.455  0.00  0.00    +0.030 C 
BRANCH  11  12
ATOM     12  C   LIG    1        0.129   7.421   1.486  0.00  0.00    +0.010 C 
BRANCH  12  13
ATOM     13  C   LIG    1        0.403   7.901   2.913  0.00  0.00    +0.180 C 
BRANCH  13  14
ATOM     14  O   LIG    1        1.719   7.503   3.305  0.00  0.00    -0.570 OA
ATOM     15  H   LIG    1        1.961   7.774   4.201  0.00  0.00    +0.380 HD
ENDBRANCH  13  14
ENDBRANCH  12  13
BRANCH  12  16
ATOM     16  C   LIG    1       -1.230   7.949   1.023  0.00  0.00    +0.180 C 
BRANCH  16  17
ATOM     17  O   LIG    1       -1.184   9.375   0.940  0.00  0.00    -0.570 OA
ATOM     18  H   LIG    1       -2.014   9.779   0.652  0.00  0.00    +0.380 HD
ENDBRANCH  16  17
ENDBRANCH  12  16
ENDBRANCH  11  12
ENDBRANCH  10  11
ENDBRANCH   5  10
TORSDOF 7
ENDMDL
MODEL       10
REMARK  Name = ZINC000000137878
REMARK                            x       y       z     vdW  Elec       q    Type
REMARK                         _______ _______ _______ _____ _____    ______ ____
ROOT
ATOM      1  O   LIG    1        0.002  -0.004   0.002  0.00  0.00    -0.510 OA
ATOM      2  C   LIG    1       -0.014   1.214   0.009  0.00  0.00    +0.550 A 
ATOM      3  C   LIG    1       -1.246   1.911   0.030  0.00  0.00    -0.120 A 
ATOM      4  C   LIG    1       -1.236   3.261   0.038  0.00  0.00    +0.350 A 
ATOM      5  N   LIG    1       -0.043   3.930   0.025  0.00  0.00    -0.540 N 
ATOM      6  C   LIG    1        1.121   3.256   0.005  0.00  0.00    +0.700 A 
ATOM      7  O   LIG    1        2.170   3.870  -0.006  0.00  0.00    -0.540 OA
ATOM      8  N   LIG    1        1.140   1.910   0.001  0.00  0.00    -0.660 N 
ATOM      9  H   LIG    1        1.988   1.439  -0.013  0.00  0.00    +0.430 HD
ENDROOT
BRANCH   5  10
ATOM     10  C   LIG    1       -0.032   5.396   0.033  0.00  0.00    +0.460 C 
ATOM     11  C   LIG    1        0.675   5.905   1.268  0.00  0.00    -0.010 C 
ATOM     12  C   LIG    1       -0.233   6.288   2.136  0.00  0.00    +0.000 C 
ATOM     13  C   LIG    1       -1.598   6.055   1.531  0.00  0.00    +0.180 C 
ATOM     14  O   LIG    1       -1.378   5.902   0.114  0.00  0.00    -0.330 OA
BRANCH  13  15
ATOM     15  C   LIG    1       -2.506   7.258   1.799  0.00  0.00    +0.210 C 
BRANCH  15  16
ATOM     16  O   LIG    1       -3.824   6.975   1.324  0.00  0.00    -0.570 OA
ATOM     17  H   LIG    1       -4.454   7.695   1.461  0.00  0.00    +0.390 HD
ENDBRANCH  15  16
ENDBRANCH  13  15
ENDBRANCH   5  10
TORSDOF 3
ENDMDL
MODEL       11
REMARK  Name = ZINC000005106314
REMARK                            x       y       z     vdW  Elec       q    Type
REMARK                         _______ _______ _______ _____ _____    ______ ____
ROOT
ATOM      1  C   LIG    1       -0.032   5.396   0.033  0.00  0.00    +0.470 C 
ATOM      2  O   LIG    1        0.880   5.897  -0.969  0.00  0.00    -0.330 OA
ATOM      3  C   LIG    1        2.196   5.752  -0.391  0.00  0.00    +0.090 C 
ATOM      4  C   LIG    1        2.025   6.162   1.088  0.00  0.00    +0.140 C 
ATOM      5  C   LIG    1        0.523   5.922   1.375  0.00  0.00    +0.190 C 
ENDROOT
BRANCH   1  10
ATOM      6  O   LIG    1       -0.141  -0.003  -0.023  0.00  0.00    -0.510 OA
ATOM      7  C   LIG    1       -0.108   1.214  -0.007  0.00  0.00    +0.550 A 
ATOM      8  C   LIG    1        1.058   1.892   0.423  0.00  0.00    -0.120 A 
ATOM      9  C   LIG    1        1.068   3.242   0.430  0.00  0.00    +0.350 A 
ATOM     10  N   LIG    1       -0.043   3.930   0.025  0.00  0.00    -0.530 N 
ATOM     11  C   LIG    1       -1.145   3.275  -0.382  0.00  0.00    +0.710 A 
ATOM     12  O   LIG    1       -2.121   3.906  -0.739  0.00  0.00    -0.540 OA
ATOM     13  N   LIG    1       -1.180   1.929  -0.404  0.00  0.00    -0.660 N 
ATOM     14  H   LIG    1       -1.983   1.472  -0.701  0.00  0.00    +0.430 HD
ENDBRANCH   1  10
BRANCH   4  15
ATOM     15  O   LIG    1        2.357   7.540   1.268  0.00  0.00    -0.540 OA
ATOM     16  H   LIG    1        3.273   7.756   1.045  0.00  0.00    +0.390 HD
ENDBRANCH   4  15
BRANCH   3  17
ATOM     17  C   LIG    1        3.190   6.681  -1.092  0.00  0.00    +0.260 C 
ATOM     18  F   LIG    1        3.362   6.265  -2.417  0.00  0.00    -0.200 F 
ENDBRANCH   3  17
BRANCH   5  19
ATOM     19  O   LIG    1        0.359   4.946   2.406  0.00  0.00    -0.540 OA
ATOM     20  H   LIG    1        0.746   5.202   3.255  0.00  0.00    +0.400 HD
ENDBRANCH   5  19
TORSDOF 4
ENDMDL
MODEL       12
REMARK  Name = ZINC000026277487
REMARK                            x       y       z     vdW  Elec       q    Type
REMARK                         _______ _______ _______ _____ _____    ______ ____
ROOT
ATOM      1  C   LIG    1       -0.032   5.396   0.033  0.00  0.00    +0.440 C 
ATOM      2  O   LIG    1        0.764   5.885  -1.060  0.00  0.00    -0.340 OA
ATOM      3  C   LIG    1        1.404   7.096  -0.606  0.00  0.00    +0.170 C 
ATOM      4  C   LIG    1        1.808   6.767   0.854  0.00  0.00    +0.160 C 
ATOM      5  F   LIG    1        1.922   7.935   1.616  0.00  0.00    -0.190 F 
ATOM      6  C   LIG    1        0.610   5.907   1.337  0.00  0.00    +0.150 C 
ENDROOT
BRANCH   1  11
ATOM      7  O   LIG    1        0.002  -0.004   0.002  0.00  0.00    -0.520 OA
ATOM      8  C   LIG    1       -0.014   1.214   0.009  0.00  0.00    +0.550 A 
ATOM      9  C   LIG    1       -1.246   1.911   0.030  0.00  0.00    -0.120 A 
ATOM     10  C   LIG    1       -1.236   3.261   0.038  0.00  0.00    +0.360 A 
ATOM     11  N   LIG    1       -0.043   3.930   0.025  0.00  0.00    -0.520 N 
ATOM     12  C   LIG    1        1.121   3.256   0.005  0.00  0.00    +0.710 A 
ATOM     13  O   LIG    1        2.170   3.870  -0.006  0.00  0.00    -0.520 OA
ATOM     14  N   LIG    1        1.140   1.910   0.001  0.00  0.00    -0.660 N 
ATOM     15  H   LIG    1        1.988   1.439  -0.013  0.00  0.00    +0.430 HD
ENDBRANCH   1  11
BRANCH   6  16
ATOM     16  O   LIG    1        1.068   4.814   2.134  0.00  0.00    -0.540 OA
ATOM     17  H   LIG    1        1.534   5.081   2.938  0.00  0.00    +0.390 HD
ENDBRANCH   6  16
BRANCH   3  18
ATOM     18  C   LIG    1        2.640   7.404  -1.454  0.00  0.00    +0.210 C 
BRANCH  18  19
ATOM     19  O   LIG    1        2.236   7.717  -2.788  0.00  0.00    -0.560 OA
ATOM     20  H   LIG    1        2.970   7.923  -3.383  0.00  0.00    +0.390 HD
ENDBRANCH  18  19
ENDBRANCH   3  18
TORSDOF 4
ENDMDL
MODEL       13
REMARK  Name = ZINC000004127126
REMARK                            x       y       z     vdW  Elec       q    Type
REMARK                         _______ _______ _______ _____ _____    ______ ____
ROOT
ATOM      1  C   LIG    1       -0.032   5.396   0.033  0.00  0.00    +0.480 C 
ATOM      2  O   LIG    1        0.823   5.872  -1.009  0.00  0.00    -0.330 OA
ATOM      3  C   LIG    1        2.175   5.419  -0.906  0.00  0.00    +0.200 C 
ATOM      4  C   LIG    1        2.781   5.919   0.407  0.00  0.00    +0.120 C 
ATOM      5  C   LIG    1        1.928   5.418   1.577  0.00  0.00    +0.150 C 
ATOM      6  C   LIG    1        0.485   5.895   1.384  0.00  0.00    +0.190 C 
ENDROOT
BRANCH   1  11
ATOM      7  O   LIG    1       -0.089  -0.003  -0.069  0.00  0.00    -0.510 OA
ATOM      8  C   LIG    1       -0.074   1.214  -0.037  0.00  0.00    +0.550 A 
ATOM      9  C   LIG    1        0.230   1.894   1.167  0.00  0.00    -0.130 A 
ATOM     10  C   LIG    1        0.240   3.244   1.174  0.00  0.00    +0.360 A 
ATOM     11  N   LIG    1       -0.043   3.930   0.025  0.00  0.00    -0.550 N 
ATOM     12  C   LIG    1       -0.330   3.272  -1.113  0.00  0.00    +0.690 A 
ATOM     13  O   LIG    1       -0.578   3.902  -2.124  0.00  0.00    -0.520 OA
ATOM     14  N   LIG    1       -0.342   1.927  -1.150  0.00  0.00    -0.660 N 
ATOM     15  H   LIG    1       -0.551   1.468  -1.979  0.00  0.00    +0.430 HD
ENDBRANCH   1  11
BRANCH   5  16
ATOM     16  O   LIG    1        2.446   5.939   2.803  0.00  0.00    -0.550 OA
ATOM     17  H   LIG    1        3.359   5.681   2.986  0.00  0.00    +0.390 HD
ENDBRANCH   5  16
BRANCH   4  18
ATOM     18  O   LIG    1        2.804   7.348   0.409  0.00  0.00    -0.540 OA
ATOM     19  H   LIG    1        3.323   7.734  -0.309  0.00  0.00    +0.390 HD
ENDBRANCH   4  18
BRANCH   6  20
ATOM     20  O   LIG    1       -0.334   5.374   2.433  0.00  0.00    -0.550 OA
ATOM     21  H   LIG    1       -0.060   5.647   3.319  0.00  0.00    +0.400 HD
ENDBRANCH   6  20
TORSDOF 4
ENDMDL
MODEL       14
REMARK  Name = ZINC000012958864
REMARK                            x       y       z     vdW  Elec       q    Type
REMARK                         _______ _______ _______ _____ _____    ______ ____
ROOT
ATOM      1  O   LIG    1        0.002  -0.004   0.002  0.00  0.00    -0.500 OA
ATOM      2  C   LIG    1       -0.015   1.217   0.009  0.00  0.00    +0.530 A 
ATOM      3  C   LIG    1       -1.249   1.914   0.030  0.00  0.00    -0.110 A 
ATOM      4  C   LIG    1       -1.225   3.263   0.039  0.00  0.00    +0.340 A 
ATOM      5  N   LIG    1       -0.025   3.917   0.029  0.00  0.00    -0.550 N 
ATOM      6  C   LIG    1        1.143   3.232   0.005  0.00  0.00    +0.580 A 
ATOM      7  O   LIG    1        2.222   4.043  -0.006  0.00  0.00    -0.250 OA
ATOM      8  C   LIG    1        1.804   5.434   0.005  0.00  0.00    +0.230 C 
ATOM      9  C   LIG    1        2.136   6.072  -1.366  0.00  0.00    +0.180 C 
ATOM     10  C   LIG    1        0.844   5.797  -2.176  0.00  0.00    +0.130 C 
ATOM     11  O   LIG    1       -0.207   5.958  -1.199  0.00  0.00    -0.330 OA
ATOM     12  C   LIG    1        0.259   5.361   0.040  0.00  0.00    +0.430 C 
ATOM     13  N   LIG    1        1.132   1.905   0.002  0.00  0.00    -0.580 NA
ENDROOT
BRANCH   9  14
ATOM     14  O   LIG    1        2.368   7.476  -1.232  0.00  0.00    -0.540 OA
ATOM     15  H   LIG    1        2.579   7.921  -2.064  0.00  0.00    +0.400 HD
ENDBRANCH   9  14
BRANCH  10  16
ATOM     16  C   LIG    1        0.691   6.813  -3.309  0.00  0.00    +0.220 C 
BRANCH  16  17
ATOM     17  O   LIG    1       -0.441   6.468  -4.110  0.00  0.00    -0.560 OA
ATOM     18  H   LIG    1       -0.599   7.072  -4.849  0.00  0.00    +0.390 HD
ENDBRANCH  16  17
ENDBRANCH  10  16
TORSDOF 3
ENDMDL
MODEL       15
REMARK  Name = ZINC000005541279
REMARK                            x       y       z     vdW  Elec       q    Type
REMARK                         _______ _______ _______ _____ _____    ______ ____
ROOT
ATOM      1  C   LIG    1       -0.032   5.396   0.033  0.00  0.00    +0.440 C 
ATOM      2  O   LIG    1        0.880   5.897  -0.969  0.00  0.00    -0.320 OA
ATOM      3  C   LIG    1        2.196   5.752  -0.391  0.00  0.00    +0.160 C 
ATOM      4  C   LIG    1        2.025   6.162   1.088  0.00  0.00    +0.160 C 
ATOM      5  C   LIG    1        0.523   5.922   1.375  0.00  0.00    +0.160 C 
ATOM      6  F   LIG    1        0.363   4.966   2.384  0.00  0.00    -0.180 F 
ENDROOT
BRANCH   1  11
ATOM      7  O   LIG    1       -0.127  -0.003   0.051  0.00  0.00    -0.510 OA
ATOM      8  C   LIG    1       -0.099   1.214   0.041  0.00  0.00    +0.550 A 
ATOM      9  C   LIG    1        0.832   1.901  -0.774  0.00  0.00    -0.100 A 
ATOM     10  C   LIG    1        0.842   3.251  -0.767  0.00  0.00    +0.350 A 
ATOM     11  N   LIG    1       -0.043   3.930   0.025  0.00  0.00    -0.550 N 
ATOM     12  C   LIG    1       -0.923   3.266   0.795  0.00  0.00    +0.710 A 
ATOM     13  O   LIG    1       -1.701   3.890   1.490  0.00  0.00    -0.530 OA
ATOM     14  N   LIG    1       -0.958   1.921   0.803  0.00  0.00    -0.660 N 
ATOM     15  H   LIG    1       -1.600   1.458   1.365  0.00  0.00    +0.430 HD
ENDBRANCH   1  11
BRANCH   4  16
ATOM     16  O   LIG    1        2.357   7.540   1.268  0.00  0.00    -0.540 OA
ATOM     17  H   LIG    1        2.268   7.851   2.179  0.00  0.00    +0.390 HD
ENDBRANCH   4  16
BRANCH   3  18
ATOM     18  C   LIG    1        3.190   6.681  -1.092  0.00  0.00    +0.230 C 
BRANCH  18  19
ATOM     19  O   LIG    1        3.365   6.256  -2.445  0.00  0.00    -0.570 OA
ATOM     20  H   LIG    1        3.984   6.801  -2.951  0.00  0.00    +0.390 HD
ENDBRANCH  18  19
ENDBRANCH   3  18
TORSDOF 4
ENDMDL
MODEL       16
REMARK  Name = ZINC000002572671
REMARK                            x       y       z     vdW  Elec       q    Type
REMARK                         _______ _______ _______ _____ _____    ______ ____
ROOT
ATOM      1  C   LIG    1       -0.032   5.396   0.033  0.00  0.00    +0.410 C 
ATOM      2  O   LIG    1       -1.379   5.908   0.124  0.00  0.00    -0.340 OA
ATOM      3  C   LIG    1       -1.240   7.258   0.616  0.00  0.00    +0.200 C 
ATOM      4  C   LIG    1       -0.136   7.175   1.693  0.00  0.00    +0.160 C 
ATOM      5  C   LIG    1        0.680   5.921   1.299  0.00  0.00    +0.140 C 
ATOM      6  F   LIG    1        2.005   6.268   1.016  0.00  0.00    -0.170 F 
ENDROOT
BRANCH   1  11
ATOM      7  O   LIG    1        0.002  -0.004   0.002  0.00  0.00    -0.510 OA
ATOM      8  C   LIG    1       -0.014   1.214   0.009  0.00  0.00    +0.550 A 
ATOM      9  C   LIG    1       -1.246   1.911   0.030  0.00  0.00    -0.110 A 
ATOM     10  C   LIG    1       -1.236   3.261   0.038  0.00  0.00    +0.370 A 
ATOM     11  N   LIG    1       -0.043   3.930   0.025  0.00  0.00    -0.540 N 
ATOM     12  C   LIG    1        1.121   3.256   0.005  0.00  0.00    +0.700 A 
ATOM     13  O   LIG    1        2.170   3.870  -0.006  0.00  0.00    -0.520 OA
ATOM     14  N   LIG    1        1.140   1.910   0.001  0.00  0.00    -0.660 N 
ATOM     15  H   LIG    1        1.988   1.439  -0.013  0.00  0.00    +0.430 HD
ENDBRANCH   1  11
BRANCH   4  16
ATOM     16  O   LIG    1        0.689   8.341   1.656  0.00  0.00    -0.540 OA
ATOM     17  H   LIG    1        1.399   8.342   2.312  0.00  0.00    +0.390 HD
ENDBRANCH   4  16
BRANCH   3  18
ATOM     18  C   LIG    1       -2.555   7.739   1.234  0.00  0.00    +0.220 C 
BRANCH  18  19
ATOM     19  O   LIG    1       -3.548   7.850   0.213  0.00  0.00    -0.560 OA
ATOM     20  H   LIG    1       -4.410   8.150   0.533  0.00  0.00    +0.390 HD
ENDBRANCH  18  19
ENDBRANCH   3  18
TORSDOF 4
ENDMDL
MODEL       17
REMARK  Name = ZINC000012360649
REMARK                            x       y       z     vdW  Elec       q    Type
REMARK                         _______ _______ _______ _____ _____    ______ ____
ROOT
ATOM      1  O   LIG    1        0.002  -0.004   0.002  0.00  0.00    -0.500 OA
ATOM      2  C   LIG    1       -0.015   1.217   0.009  0.00  0.00    +0.530 A 
ATOM      3  C   LIG    1       -1.249   1.914   0.030  0.00  0.00    -0.110 A 
ATOM      4  C   LIG    1       -1.225   3.263   0.036  0.00  0.00    +0.340 A 
ATOM      5  N   LIG    1       -0.025   3.917   0.020  0.00  0.00    -0.550 N 
ATOM      6  C   LIG    1        1.143   3.232   0.002  0.00  0.00    +0.580 A 
ATOM      7  O   LIG    1        2.222   4.043  -0.008  0.00  0.00    -0.240 OA
ATOM      8  C   LIG    1        1.805   5.434   0.009  0.00  0.00    +0.220 C 
ATOM      9  C   LIG    1        2.175   6.056   1.377  0.00  0.00    +0.180 C 
ATOM     10  C   LIG    1        0.906   5.772   2.220  0.00  0.00    +0.120 C 
ATOM     11  O   LIG    1       -0.172   5.944   1.275  0.00  0.00    -0.340 OA
ATOM     12  C   LIG    1        0.259   5.361   0.017  0.00  0.00    +0.430 C 
ATOM     13  N   LIG    1        1.132   1.905   0.002  0.00  0.00    -0.580 NA
ENDROOT
BRANCH   9  14
ATOM     14  O   LIG    1        3.319   5.409   1.938  0.00  0.00    -0.530 OA
ATOM     15  H   LIG    1        3.590   5.763   2.796  0.00  0.00    +0.390 HD
ENDBRANCH   9  14
BRANCH  10  16
ATOM     16  C   LIG    1        0.786   6.775   3.369  0.00  0.00    +0.220 C 
BRANCH  16  17
ATOM     17  O   LIG    1       -0.324   6.421   4.197  0.00  0.00    -0.560 OA
ATOM     18  H   LIG    1       -0.460   7.016   4.947  0.00  0.00    +0.390 HD
ENDBRANCH  16  17
ENDBRANCH  10  16
TORSDOF 3
ENDMDL
MODEL       18
REMARK  Name = ZINC000028636439
REMARK                            x       y       z     vdW  Elec       q    Type
REMARK                         _______ _______ _______ _____ _____    ______ ____
ROOT
ATOM      1  C   LIG    1       -0.032   5.396   0.033  0.00  0.00    +0.440 C 
ATOM      2  O   LIG    1        0.764   5.885  -1.060  0.00  0.00    -0.340 OA
ATOM      3  C   LIG    1        1.404   7.096  -0.606  0.00  0.00    +0.160 C 
ATOM      4  C   LIG    1        1.808   6.767   0.854  0.00  0.00    +0.150 C 
ATOM      5  F   LIG    1        2.998   6.033   0.889  0.00  0.00    -0.170 F 
ATOM      6  C   LIG    1        0.610   5.907   1.337  0.00  0.00    +0.140 C 
ENDROOT
BRANCH   1  11
ATOM      7  O   LIG    1        0.002  -0.004   0.002  0.00  0.00    -0.520 OA
ATOM      8  C   LIG    1       -0.014   1.214   0.009  0.00  0.00    +0.550 A 
ATOM      9  C   LIG    1       -1.246   1.911   0.030  0.00  0.00    -0.120 A 
ATOM     10  C   LIG    1       -1.236   3.261   0.038  0.00  0.00    +0.360 A 
ATOM     11  N   LIG    1       -0.043   3.930   0.025  0.00  0.00    -0.520 N 
ATOM     12  C   LIG    1        1.121   3.256   0.005  0.00  0.00    +0.710 A 
ATOM     13  O   LIG    1        2.170   3.870  -0.006  0.00  0.00    -0.500 OA
ATOM     14  N   LIG    1        1.140   1.910   0.001  0.00  0.00    -0.660 N 
ATOM     15  H   LIG    1        1.988   1.439  -0.013  0.00  0.00    +0.430 HD
ENDBRANCH   1  11
BRANCH   6  16
ATOM     16  O   LIG    1        1.068   4.814   2.134  0.00  0.00    -0.530 OA
ATOM     17  H   LIG    1        1.534   5.081   2.938  0.00  0.00    +0.390 HD
ENDBRANCH   6  16
BRANCH   3  18
ATOM     18  C   LIG    1        2.640   7.404  -1.454  0.00  0.00    +0.220 C 
BRANCH  18  19
ATOM     19  O   LIG    1        2.236   7.717  -2.788  0.00  0.00    -0.570 OA
ATOM     20  H   LIG    1        2.970   7.923  -3.383  0.00  0.00    +0.390 HD
ENDBRANCH  18  19
ENDBRANCH   3  18
TORSDOF 4
ENDMDL
MODEL       19
REMARK  Name = ZINC000005106307
REMARK                            x       y       z     vdW  Elec       q    Type
REMARK                         _______ _______ _______ _____ _____    ______ ____
ROOT
ATOM      1  C   LIG    1       -0.032   5.396   0.033  0.00  0.00    +0.470 C 
ATOM      2  O   LIG    1        0.880   5.897  -0.969  0.00  0.00    -0.320 OA
ATOM      3  C   LIG    1        2.196   5.752  -0.391  0.00  0.00    +0.090 C 
ATOM      4  C   LIG    1        2.025   6.162   1.088  0.00  0.00    +0.140 C 
ATOM      5  C   LIG    1        0.523   5.922   1.375  0.00  0.00    +0.180 C 
ENDROOT
BRANCH   1  10
ATOM      6  O   LIG    1       -0.125  -0.003   0.054  0.00  0.00    -0.510 OA
ATOM      7  C   LIG    1       -0.098   1.214   0.043  0.00  0.00    +0.550 A 
ATOM      8  C   LIG    1        0.795   1.901  -0.815  0.00  0.00    -0.100 A 
ATOM      9  C   LIG    1        0.805   3.251  -0.807  0.00  0.00    +0.340 A 
ATOM     10  N   LIG    1       -0.043   3.930   0.025  0.00  0.00    -0.550 N 
ATOM     11  C   LIG    1       -0.887   3.266   0.835  0.00  0.00    +0.700 A 
ATOM     12  O   LIG    1       -1.632   3.889   1.565  0.00  0.00    -0.530 OA
ATOM     13  N   LIG    1       -0.921   1.920   0.844  0.00  0.00    -0.660 N 
ATOM     14  H   LIG    1       -1.536   1.457   1.434  0.00  0.00    +0.430 HD
ENDBRANCH   1  10
BRANCH   4  15
ATOM     15  O   LIG    1        2.357   7.540   1.268  0.00  0.00    -0.540 OA
ATOM     16  H   LIG    1        3.273   7.756   1.045  0.00  0.00    +0.390 HD
ENDBRANCH   4  15
BRANCH   3  17
ATOM     17  C   LIG    1        3.190   6.681  -1.092  0.00  0.00    +0.270 C 
ATOM     18  F   LIG    1        3.362   6.265  -2.417  0.00  0.00    -0.200 F 
ENDBRANCH   3  17
BRANCH   5  19
ATOM     19  O   LIG    1       -0.119   7.145   1.742  0.00  0.00    -0.530 OA
ATOM     20  H   LIG    1        0.236   7.549   2.546  0.00  0.00    +0.400 HD
ENDBRANCH   5  19
TORSDOF 4
ENDMDL
MODEL       20
REMARK  Name = ZINC000006524827
REMARK                            x       y       z     vdW  Elec       q    Type
REMARK                         _______ _______ _______ _____ _____    ______ ____
ROOT
ATOM      1  C   LIG    1       -0.032   5.396   0.033  0.00  0.00    +0.450 C 
ATOM      2  O   LIG    1        0.764   5.885  -1.060  0.00  0.00    -0.330 OA
ATOM      3  C   LIG    1        1.404   7.096  -0.606  0.00  0.00    +0.170 C 
ATOM      4  C   LIG    1        1.808   6.767   0.854  0.00  0.00    +0.170 C 
ATOM      5  F   LIG    1        1.922   7.935   1.616  0.00  0.00    -0.190 F 
ATOM      6  C   LIG    1        0.610   5.907   1.337  0.00  0.00    +0.140 C 
ENDROOT
BRANCH   1  11
ATOM      7  O   LIG    1        0.002  -0.004   0.002  0.00  0.00    -0.510 OA
ATOM      8  C   LIG    1       -0.014   1.214   0.009  0.00  0.00    +0.550 A 
ATOM      9  C   LIG    1       -1.246   1.911   0.030  0.00  0.00    -0.100 A 
ATOM     10  C   LIG    1       -1.236   3.261   0.038  0.00  0.00    +0.360 A 
ATOM     11  N   LIG    1       -0.043   3.930   0.025  0.00  0.00    -0.530 N 
ATOM     12  C   LIG    1        1.121   3.256   0.005  0.00  0.00    +0.700 A 
ATOM     13  O   LIG    1        2.170   3.870  -0.006  0.00  0.00    -0.530 OA
ATOM     14  N   LIG    1        1.140   1.910   0.001  0.00  0.00    -0.660 N 
ATOM     15  H   LIG    1        1.988   1.439  -0.013  0.00  0.00    +0.430 HD
ENDBRANCH   1  11
BRANCH   6  16
ATOM     16  O   LIG    1       -0.315   6.708   2.076  0.00  0.00    -0.540 OA
ATOM     17  H   LIG    1        0.059   7.102   2.876  0.00  0.00    +0.400 HD
ENDBRANCH   6  16
BRANCH   3  18
ATOM     18  C   LIG    1        2.640   7.404  -1.454  0.00  0.00    +0.210 C 
BRANCH  18  19
ATOM     19  O   LIG    1        2.236   7.717  -2.788  0.00  0.00    -0.560 OA
ATOM     20  H   LIG    1        2.970   7.923  -3.383  0.00  0.00    +0.390 HD
ENDBRANCH  18  19
ENDBRANCH   3  18
TORSDOF 4
ENDMDL
MODEL       21
REMARK  Name = ZINC000004529547
REMARK                            x       y       z     vdW  Elec       q    Type
REMARK                         _______ _______ _______ _____ _____    ______ ____
ROOT
ATOM      1  O   LIG    1        0.002  -0.004   0.002  0.00  0.00    -0.490 OA
ATOM      2  C   LIG    1       -0.015   1.217   0.009  0.00  0.00    +0.530 A 
ATOM      3  C   LIG    1       -1.248   1.917   0.030  0.00  0.00    -0.110 A 
ATOM      4  C   LIG    1       -1.227   3.265   0.069  0.00  0.00    +0.340 A 
ATOM      5  N   LIG    1       -0.038   3.931   0.091  0.00  0.00    -0.520 N 
ATOM      6  C   LIG    1        1.144   3.222   0.022  0.00  0.00    +0.580 A 
ATOM      7  O   LIG    1        2.226   4.076  -0.032  0.00  0.00    -0.250 OA
ATOM      8  C   LIG    1        1.688   5.258  -0.654  0.00  0.00    +0.150 C 
ATOM      9  C   LIG    1        2.205   6.649  -0.328  0.00  0.00    +0.210 C 
ATOM     10  C   LIG    1        0.861   7.457  -0.147  0.00  0.00    +0.170 C 
ATOM     11  O   LIG    1       -0.227   6.484  -0.236  0.00  0.00    -0.320 OA
ATOM     12  C   LIG    1        0.350   5.299   0.185  0.00  0.00    +0.350 C 
ATOM     13  N   LIG    1        1.132   1.909   0.002  0.00  0.00    -0.560 NA
ENDROOT
BRANCH   9  14
ATOM     14  O   LIG    1        2.975   7.181  -1.408  0.00  0.00    -0.540 OA
ATOM     15  H   LIG    1        3.245   8.101  -1.283  0.00  0.00    +0.400 HD
ENDBRANCH   9  14
BRANCH  10  16
ATOM     16  C   LIG    1        0.722   8.502  -1.256  0.00  0.00    +0.220 C 
BRANCH  16  17
ATOM     17  O   LIG    1       -0.454   9.282  -1.030  0.00  0.00    -0.560 OA
ATOM     18  H   LIG    1       -0.606   9.966  -1.696  0.00  0.00    +0.390 HD
ENDBRANCH  16  17
ENDBRANCH  10  16
TORSDOF 3
ENDMDL
MODEL       22
REMARK  Name = ZINC000000137875
REMARK                            x       y       z     vdW  Elec       q    Type
REMARK                         _______ _______ _______ _____ _____    ______ ____
ROOT
ATOM      1  O   LIG    1        0.002  -0.004   0.002  0.00  0.00    -0.510 OA
ATOM      2  C   LIG    1       -0.014   1.214   0.009  0.00  0.00    +0.550 A 
ATOM      3  C   LIG    1       -1.246   1.911   0.030  0.00  0.00    -0.120 A 
ATOM      4  C   LIG    1       -1.236   3.261   0.038  0.00  0.00    +0.360 A 
ATOM      5  N   LIG    1       -0.043   3.930   0.025  0.00  0.00    -0.530 N 
ATOM      6  C   LIG    1        1.121   3.256   0.005  0.00  0.00    +0.700 A 
ATOM      7  O   LIG    1        2.170   3.870  -0.006  0.00  0.00    -0.520 OA
ATOM      8  N   LIG    1        1.140   1.910   0.001  0.00  0.00    -0.660 N 
ATOM      9  H   LIG    1        1.988   1.439  -0.013  0.00  0.00    +0.430 HD
ENDROOT
BRANCH   5  10
ATOM     10  C   LIG    1       -0.032   5.396   0.033  0.00  0.00    +0.450 C 
ATOM     11  C   LIG    1        0.614   5.906   1.300  0.00  0.00    -0.050 C 
ATOM     12  C   LIG    1        1.422   6.891   0.986  0.00  0.00    +0.020 C 
ATOM     13  C   LIG    1        1.363   7.096  -0.511  0.00  0.00    +0.200 C 
ATOM     14  O   LIG    1        0.779   5.893  -1.048  0.00  0.00    -0.340 OA
BRANCH  13  15
ATOM     15  C   LIG    1        2.771   7.300  -1.073  0.00  0.00    +0.200 C 
BRANCH  15  16
ATOM     16  O   LIG    1        2.689   7.608  -2.466  0.00  0.00    -0.570 OA
ATOM     17  H   LIG    1        3.546   7.750  -2.888  0.00  0.00    +0.380 HD
ENDBRANCH  15  16
ENDBRANCH  13  15
ENDBRANCH   5  10
TORSDOF 3
ENDMDL
MODEL       23
REMARK  Name = ZINC000008613153
REMARK                            x       y       z     vdW  Elec       q    Type
REMARK                         _______ _______ _______ _____ _____    ______ ____
ROOT
ATOM      1  C1*   U A  1       -0.032   5.396   0.033  0.00  0.00    +0.460 C 
ATOM      2  O4*   U A  1       -1.379   5.894   0.095  0.00  0.00    -0.330 OA
ATOM      3  C4*   U A  1       -1.689   6.098   1.490  0.00  0.00    +0.120 C 
ATOM      4  C3*   U A  1       -0.378   6.689   2.069  0.00  0.00    +0.130 C 
ATOM      5  C2*   U A  1        0.708   5.907   1.284  0.00  0.00    +0.180 C 
ENDROOT
BRANCH   1  10
ATOM      6  O4    U A  1        0.002  -0.004   0.002  0.00  0.00    -0.510 OA
ATOM      7  C4    U A  1       -0.014   1.214   0.009  0.00  0.00    +0.550 A 
ATOM      8  C5    U A  1       -1.246   1.911   0.030  0.00  0.00    -0.120 A 
ATOM      9  C6    U A  1       -1.236   3.261   0.038  0.00  0.00    +0.360 A 
ATOM     10  N1    U A  1       -0.043   3.930   0.025  0.00  0.00    -0.550 N 
ATOM     11  C2    U A  1        1.121   3.256   0.005  0.00  0.00    +0.700 A 
ATOM     12  O2    U A  1        2.170   3.870  -0.006  0.00  0.00    -0.520 OA
ATOM     13  N3    U A  1        1.140   1.910   0.001  0.00  0.00    -0.660 N 
ATOM     14  H3    U A  1        1.988   1.439  -0.013  0.00  0.00    +0.430 HD
ENDBRANCH   1  10
BRANCH   4  15
ATOM     15  O3*   U A  1       -0.290   8.090   1.802  0.00  0.00    -0.530 OA
ATOM     16  H3*   U A  1       -1.001   8.612   2.198  0.00  0.00    +0.380 HD
ENDBRANCH   4  15
BRANCH   5  17
ATOM     17  O2*   U A  1        1.782   6.775   0.918  0.00  0.00    -0.520 OA
ATOM     18  H2*   U A  1        2.243   7.170   1.671  0.00  0.00    +0.390 HD
ENDBRANCH   5  17
BRANCH   3  19
ATOM     19  C5*   U A  1       -2.846   7.087   1.646  0.00  0.00    +0.220 C 
BRANCH  19  20
ATOM     20  O5*   U A  1       -4.041   6.509   1.117  0.00  0.00    -0.560 OA
ATOM     21  H5*   U A  1       -4.817   7.082   1.183  0.00  0.00    +0.390 HD
ENDBRANCH  19  20
ENDBRANCH   3  19
TORSDOF 5
ENDMDL
MODEL       24
REMARK  Name = ZINC000005541274
REMARK                            x       y       z     vdW  Elec       q    Type
REMARK                         _______ _______ _______ _____ _____    ______ ____
ROOT
ATOM      1  C   LIG    1       -0.032   5.396   0.033  0.00  0.00    +0.430 C 
ATOM      2  O   LIG    1        0.880   5.897  -0.969  0.00  0.00    -0.320 OA
ATOM      3  C   LIG    1        2.196   5.752  -0.391  0.00  0.00    +0.160 C 
ATOM      4  C   LIG    1        2.025   6.162   1.088  0.00  0.00    +0.160 C 
ATOM      5  C   LIG    1        0.523   5.922   1.375  0.00  0.00    +0.150 C 
ATOM      6  F   LIG    1       -0.105   7.119   1.734  0.00  0.00    -0.170 F 
ENDROOT
BRANCH   1  11
ATOM      7  O   LIG    1       -0.125  -0.003   0.054  0.00  0.00    -0.510 OA
ATOM      8  C   LIG    1       -0.098   1.214   0.043  0.00  0.00    +0.550 A 
ATOM      9  C   LIG    1        0.795   1.901  -0.815  0.00  0.00    -0.100 A 
ATOM     10  C   LIG    1        0.805   3.251  -0.807  0.00  0.00    +0.350 A 
ATOM     11  N   LIG    1       -0.043   3.930   0.025  0.00  0.00    -0.550 N 
ATOM     12  C   LIG    1       -0.887   3.266   0.835  0.00  0.00    +0.700 A 
ATOM     13  O   LIG    1       -1.632   3.889   1.565  0.00  0.00    -0.530 OA
ATOM     14  N   LIG    1       -0.921   1.920   0.844  0.00  0.00    -0.660 N 
ATOM     15  H   LIG    1       -1.536   1.457   1.434  0.00  0.00    +0.430 HD
ENDBRANCH   1  11
BRANCH   4  16
ATOM     16  O   LIG    1        2.357   7.540   1.268  0.00  0.00    -0.540 OA
ATOM     17  H   LIG    1        2.268   7.851   2.179  0.00  0.00    +0.390 HD
ENDBRANCH   4  16
BRANCH   3  18
ATOM     18  C   LIG    1        3.190   6.681  -1.092  0.00  0.00    +0.230 C 
BRANCH  18  19
ATOM     19  O   LIG    1        3.365   6.256  -2.445  0.00  0.00    -0.570 OA
ATOM     20  H   LIG    1        3.984   6.801  -2.951  0.00  0.00    +0.390 HD
ENDBRANCH  18  19
ENDBRANCH   3  18
TORSDOF 4
ENDMDL
MODEL       25
REMARK  Name = ZINC000005541271
REMARK                            x       y       z     vdW  Elec       q    Type
REMARK                         _______ _______ _______ _____ _____    ______ ____
ROOT
ATOM      1  C   LIG    1       -0.032   5.396   0.033  0.00  0.00    +0.420 C 
ATOM      2  O   LIG    1       -1.379   5.908   0.124  0.00  0.00    -0.350 OA
ATOM      3  C   LIG    1       -1.240   7.258   0.616  0.00  0.00    +0.200 C 
ATOM      4  C   LIG    1       -0.136   7.175   1.693  0.00  0.00    +0.150 C 
ATOM      5  C   LIG    1        0.680   5.921   1.299  0.00  0.00    +0.150 C 
ATOM      6  F   LIG    1        0.634   4.966   2.320  0.00  0.00    -0.180 F 
ENDROOT
BRANCH   1  11
ATOM      7  O   LIG    1        0.002  -0.004   0.002  0.00  0.00    -0.510 OA
ATOM      8  C   LIG    1       -0.014   1.214   0.009  0.00  0.00    +0.550 A 
ATOM      9  C   LIG    1       -1.246   1.911   0.030  0.00  0.00    -0.110 A 
ATOM     10  C   LIG    1       -1.236   3.261   0.038  0.00  0.00    +0.380 A 
ATOM     11  N   LIG    1       -0.043   3.930   0.025  0.00  0.00    -0.530 N 
ATOM     12  C   LIG    1        1.121   3.256   0.005  0.00  0.00    +0.710 A 
ATOM     13  O   LIG    1        2.170   3.870  -0.006  0.00  0.00    -0.540 OA
ATOM     14  N   LIG    1        1.140   1.910   0.001  0.00  0.00    -0.660 N 
ATOM     15  H   LIG    1        1.988   1.439  -0.013  0.00  0.00    +0.430 HD
ENDBRANCH   1  11
BRANCH   4  16
ATOM     16  O   LIG    1       -0.713   7.015   2.990  0.00  0.00    -0.540 OA
ATOM     17  H   LIG    1       -0.064   6.957   3.705  0.00  0.00    +0.390 HD
ENDBRANCH   4  16
BRANCH   3  18
ATOM     18  C   LIG    1       -2.555   7.739   1.234  0.00  0.00    +0.230 C 
BRANCH  18  19
ATOM     19  O   LIG    1       -3.548   7.850   0.213  0.00  0.00    -0.570 OA
ATOM     20  H   LIG    1       -4.410   8.150   0.533  0.00  0.00    +0.390 HD
ENDBRANCH  18  19
ENDBRANCH   3  18
TORSDOF 4
ENDMDL
MODEL       26
REMARK  Name = ZINC000001446448
REMARK                            x       y       z     vdW  Elec       q    Type
REMARK                         _______ _______ _______ _____ _____    ______ ____
ROOT
ATOM      1  C1*   U A  1       -0.032   5.396   0.033  0.00  0.00    +0.450 C 
ATOM      2  O4*   U A  1       -1.379   5.894   0.095  0.00  0.00    -0.340 OA
ATOM      3  C4*   U A  1       -1.689   6.098   1.490  0.00  0.00    +0.140 C 
ATOM      4  C3*   U A  1       -0.378   6.689   2.069  0.00  0.00    +0.140 C 
ATOM      5  C2*   U A  1        0.708   5.907   1.284  0.00  0.00    +0.190 C 
ENDROOT
BRANCH   1  10
ATOM      6  O4    U A  1        0.002  -0.004   0.002  0.00  0.00    -0.520 OA
ATOM      7  C4    U A  1       -0.014   1.214   0.009  0.00  0.00    +0.550 A 
ATOM      8  C5    U A  1       -1.246   1.911   0.030  0.00  0.00    -0.130 A 
ATOM      9  C6    U A  1       -1.236   3.261   0.038  0.00  0.00    +0.360 A 
ATOM     10  N1    U A  1       -0.043   3.930   0.025  0.00  0.00    -0.540 N 
ATOM     11  C2    U A  1        1.121   3.256   0.005  0.00  0.00    +0.720 A 
ATOM     12  O2    U A  1        2.170   3.870  -0.006  0.00  0.00    -0.530 OA
ATOM     13  N3    U A  1        1.140   1.910   0.001  0.00  0.00    -0.660 N 
ATOM     14  H3    U A  1        1.988   1.439  -0.013  0.00  0.00    +0.430 HD
ENDBRANCH   1  10
BRANCH   4  15
ATOM     15  O3*   U A  1       -0.279   6.433   3.471  0.00  0.00    -0.540 OA
ATOM     16  H3*   U A  1       -0.990   6.829   3.995  0.00  0.00    +0.390 HD
ENDBRANCH   4  15
BRANCH   5  17
ATOM     17  O2*   U A  1        1.196   4.812   2.062  0.00  0.00    -0.530 OA
ATOM     18  H2*   U A  1        1.617   5.076   2.891  0.00  0.00    +0.390 HD
ENDBRANCH   5  17
BRANCH   3  19
ATOM     19  C5*   U A  1       -2.846   7.087   1.646  0.00  0.00    +0.210 C 
BRANCH  19  20
ATOM     20  O5*   U A  1       -4.041   6.509   1.117  0.00  0.00    -0.560 OA
ATOM     21  H5*   U A  1       -4.817   7.082   1.183  0.00  0.00    +0.390 HD
ENDBRANCH  19  20
ENDBRANCH   3  19
TORSDOF 5
ENDMDL
MODEL       27
REMARK  Name = ZINC000006091549
REMARK                            x       y       z     vdW  Elec       q    Type
REMARK                         _______ _______ _______ _____ _____    ______ ____
ROOT
ATOM      1  C1*   U A  1       -0.032   5.396   0.033  0.00  0.00    +0.440 C 
ATOM      2  O4*   U A  1       -1.379   5.908   0.124  0.00  0.00    -0.350 OA
ATOM      3  C4*   U A  1       -1.240   7.258   0.616  0.00  0.00    +0.150 C 
ATOM      4  C3*   U A  1       -0.136   7.175   1.693  0.00  0.00    +0.140 C 
ATOM      5  C2*   U A  1        0.680   5.921   1.299  0.00  0.00    +0.190 C 
ENDROOT
BRANCH   1  10
ATOM      6  O4    U A  1        0.002  -0.004   0.002  0.00  0.00    -0.520 OA
ATOM      7  C4    U A  1       -0.014   1.214   0.009  0.00  0.00    +0.550 A 
ATOM      8  C5    U A  1       -1.246   1.911   0.030  0.00  0.00    -0.130 A 
ATOM      9  C6    U A  1       -1.236   3.261   0.038  0.00  0.00    +0.370 A 
ATOM     10  N1    U A  1       -0.043   3.930   0.025  0.00  0.00    -0.520 N 
ATOM     11  C2    U A  1        1.121   3.256   0.005  0.00  0.00    +0.710 A 
ATOM     12  O2    U A  1        2.170   3.870  -0.006  0.00  0.00    -0.540 OA
ATOM     13  N3    U A  1        1.140   1.910   0.001  0.00  0.00    -0.660 N 
ATOM     14  H3    U A  1        1.988   1.439  -0.013  0.00  0.00    +0.430 HD
ENDBRANCH   1  10
BRANCH   4  15
ATOM     15  O3*   U A  1        0.689   8.341   1.656  0.00  0.00    -0.550 OA
ATOM     16  H3*   U A  1        0.214   9.164   1.837  0.00  0.00    +0.390 HD
ENDBRANCH   4  15
BRANCH   5  17
ATOM     17  O2*   U A  1        0.633   4.945   2.342  0.00  0.00    -0.540 OA
ATOM     18  H2*   U A  1        1.012   5.246   3.179  0.00  0.00    +0.390 HD
ENDBRANCH   5  17
BRANCH   3  19
ATOM     19  C5*   U A  1       -2.555   7.739   1.234  0.00  0.00    +0.210 C 
BRANCH  19  20
ATOM     20  O5*   U A  1       -3.548   7.850   0.213  0.00  0.00    -0.560 OA
ATOM     21  H5*   U A  1       -4.410   8.150   0.533  0.00  0.00    +0.390 HD
ENDBRANCH  19  20
ENDBRANCH   3  19
TORSDOF 5
ENDMDL
MODEL       28
REMARK  Name = ZINC000039097582
REMARK                            x       y       z     vdW  Elec       q    Type
REMARK                         _______ _______ _______ _____ _____    ______ ____
ROOT
ATOM      1  O   LIG    1        0.002  -0.004   0.002  0.00  0.00    -0.510 OA
ATOM      2  C   LIG    1       -0.014   1.214   0.009  0.00  0.00    +0.550 A 
ATOM      3  C   LIG    1       -1.246   1.911   0.030  0.00  0.00    -0.110 A 
ATOM      4  C   LIG    1       -1.236   3.261   0.038  0.00  0.00    +0.360 A 
ATOM      5  N   LIG    1       -0.043   3.930   0.025  0.00  0.00    -0.530 N 
ATOM      6  C   LIG    1        1.121   3.256   0.005  0.00  0.00    +0.690 A 
ATOM      7  O   LIG    1        2.170   3.870  -0.006  0.00  0.00    -0.510 OA
ATOM      8  N   LIG    1        1.140   1.910   0.001  0.00  0.00    -0.660 N 
ATOM      9  H   LIG    1        1.988   1.439  -0.013  0.00  0.00    +0.430 HD
ENDROOT
BRANCH   5  10
ATOM     10  C   LIG    1       -0.032   5.396   0.033  0.00  0.00    +0.450 C 
ATOM     11  O   LIG    1        0.789   5.898  -1.044  0.00  0.00    -0.350 OA
ATOM     12  C   LIG    1        1.132   7.248  -0.662  0.00  0.00    +0.210 C 
ATOM     13  C   LIG    1        1.424   7.168   0.853  0.00  0.00    +0.130 C 
ATOM     14  C   LIG    1        0.637   5.921   1.322  0.00  0.00    +0.170 C 
BRANCH  13  15
ATOM     15  O   LIG    1        2.824   6.999   1.085  0.00  0.00    -0.550 OA
ATOM     16  H   LIG    1        3.367   7.728   0.756  0.00  0.00    +0.390 HD
ENDBRANCH  13  15
BRANCH  14  17
ATOM     17  O   LIG    1       -0.346   6.285   2.292  0.00  0.00    -0.550 OA
ATOM     18  H   LIG    1        0.021   6.676   3.097  0.00  0.00    +0.390 HD
ENDBRANCH  14  17
ENDBRANCH   5  10
TORSDOF 3
ENDMDL
MODEL       29
REMARK  Name = ZINC000006091554
REMARK                            x       y       z     vdW  Elec       q    Type
REMARK                         _______ _______ _______ _____ _____    ______ ____
ROOT
ATOM      1  C   LIG    1       -0.032   5.396   0.033  0.00  0.00    +0.440 C 
ATOM      2  O   LIG    1        0.764   5.885  -1.060  0.00  0.00    -0.350 OA
ATOM      3  C   LIG    1        1.404   7.096  -0.606  0.00  0.00    +0.180 C 
ATOM      4  C   LIG    1        1.808   6.767   0.854  0.00  0.00    +0.020 C 
ATOM      5  C   LIG    1        0.610   5.907   1.337  0.00  0.00    +0.150 C 
ENDROOT
BRANCH   1  10
ATOM      6  O   LIG    1        0.002  -0.004   0.002  0.00  0.00    -0.510 OA
ATOM      7  C   LIG    1       -0.014   1.214   0.009  0.00  0.00    +0.550 A 
ATOM      8  C   LIG    1       -1.246   1.911   0.030  0.00  0.00    -0.110 A 
ATOM      9  C   LIG    1       -1.236   3.261   0.038  0.00  0.00    +0.360 A 
ATOM     10  N   LIG    1       -0.043   3.930   0.025  0.00  0.00    -0.530 N 
ATOM     11  C   LIG    1        1.121   3.256   0.005  0.00  0.00    +0.700 A 
ATOM     12  O   LIG    1        2.170   3.870  -0.006  0.00  0.00    -0.520 OA
ATOM     13  N   LIG    1        1.140   1.910   0.001  0.00  0.00    -0.660 N 
ATOM     14  H   LIG    1        1.988   1.439  -0.013  0.00  0.00    +0.430 HD
ENDBRANCH   1  10
BRANCH   5  15
ATOM     15  O   LIG    1       -0.315   6.708   2.076  0.00  0.00    -0.560 OA
ATOM     16  H   LIG    1        0.059   7.102   2.876  0.00  0.00    +0.390 HD
ENDBRANCH   5  15
BRANCH   3  17
ATOM     17  C   LIG    1        2.640   7.404  -1.454  0.00  0.00    +0.200 C 
BRANCH  17  18
ATOM     18  O   LIG    1        2.236   7.717  -2.788  0.00  0.00    -0.570 OA
ATOM     19  H   LIG    1        2.970   7.923  -3.383  0.00  0.00    +0.380 HD
ENDBRANCH  17  18
ENDBRANCH   3  17
TORSDOF 4
ENDMDL
MODEL       30
REMARK  Name = ZINC000203215459
REMARK                            x       y       z     vdW  Elec       q    Type
REMARK                         _______ _______ _______ _____ _____    ______ ____
ROOT
ATOM      1  C   LIG    1       -0.032   5.396   0.033  0.00  0.00    +0.390 C 
ATOM      2  C   LIG    1        0.602   5.895   1.333  0.00  0.00    +0.220 C 
ATOM      3  N   LIG    1        0.680   7.363   1.303  0.00  0.00    -0.670 NA
ATOM      4  H   LIG    1       -0.241   7.774   1.295  0.00  0.00    +0.350 HD
ATOM      5  C   LIG    1        1.471   7.818   0.149  0.00  0.00    +0.210 C 
ATOM      6  C   LIG    1        0.828   7.299  -1.140  0.00  0.00    +0.140 C 
ATOM      7  O   LIG    1        0.731   5.874  -1.079  0.00  0.00    -0.360 OA
ENDROOT
BRANCH   1  12
ATOM      8  O   LIG    1        0.002  -0.004   0.002  0.00  0.00    -0.510 OA
ATOM      9  C   LIG    1       -0.014   1.214   0.009  0.00  0.00    +0.550 A 
ATOM     10  C   LIG    1       -1.246   1.911   0.030  0.00  0.00    -0.110 A 
ATOM     11  C   LIG    1       -1.236   3.261   0.038  0.00  0.00    +0.350 A 
ATOM     12  N   LIG    1       -0.043   3.930   0.025  0.00  0.00    -0.530 N 
ATOM     13  C   LIG    1        1.121   3.256   0.005  0.00  0.00    +0.700 A 
ATOM     14  O   LIG    1        2.170   3.870  -0.006  0.00  0.00    -0.520 OA
ATOM     15  N   LIG    1        1.140   1.910   0.001  0.00  0.00    -0.660 N 
ATOM     16  H   LIG    1        1.988   1.439  -0.013  0.00  0.00    +0.430 HD
ENDBRANCH   1  12
BRANCH   6  17
ATOM     17  C   LIG    1        1.689   7.703  -2.338  0.00  0.00    +0.220 C 
BRANCH  17  18
ATOM     18  O   LIG    1        1.031   7.321  -3.548  0.00  0.00    -0.570 OA
ATOM     19  H   LIG    1        1.521   7.546  -4.350  0.00  0.00    +0.380 HD
ENDBRANCH  17  18
ENDBRANCH   6  17
TORSDOF 3
ENDMDL
MODEL       31
REMARK  Name = ZINC000001562670
REMARK                            x       y       z     vdW  Elec       q    Type
REMARK                         _______ _______ _______ _____ _____    ______ ____
ROOT
ATOM      1  C   LIG    1       -0.109   1.263  -0.501  0.00  0.00    +0.070 C 
ATOM      2  C   LIG    1        0.013  -0.168   0.028  0.00  0.00    -0.040 C 
ATOM      3  C   LIG    1        0.723  -1.042  -1.012  0.00  0.00    +0.010 C 
ATOM      4  C   LIG    1        0.940  -2.417  -0.436  0.00  0.00    +0.550 C 
ATOM      5  N   LIG    1        1.092  -2.603   0.883  0.00  0.00    -0.660 N 
ATOM      6  H   LIG    1        1.238  -3.504   1.213  0.00  0.00    +0.420 HD
ATOM      7  C   LIG    1        1.052  -1.593   1.765  0.00  0.00    +0.550 C 
ATOM      8  O   LIG    1        1.187  -1.830   2.946  0.00  0.00    -0.490 OA
ATOM      9  O   LIG    1        0.977  -3.373  -1.180  0.00  0.00    -0.470 OA
ATOM     10  C   LIG    1       -1.381  -0.731   0.312  0.00  0.00    +0.060 C 
ATOM     11  C   LIG    1        0.842  -0.171   1.317  0.00  0.00    +0.020 C 
ENDROOT
BRANCH   3  12
ATOM     12  C   LIG    1       -0.128  -1.142  -2.252  0.00  0.00    +0.540 C 
ATOM     13  O   LIG    1       -1.003  -1.978  -2.321  0.00  0.00    -0.510 OA
ATOM     14  N   LIG    1        0.085  -0.302  -3.284  0.00  0.00    -0.850 N 
ATOM     15  H   LIG    1       -0.463  -0.366  -4.082  0.00  0.00    +0.410 HD
ATOM     16  H   LIG    1        0.785   0.367  -3.228  0.00  0.00    +0.400 HD
ENDBRANCH   3  12
BRANCH  11  17
ATOM     17  C   LIG    1        2.177   0.478   1.060  0.00  0.00    +0.530 C 
ATOM     18  O   LIG    1        3.096  -0.178   0.619  0.00  0.00    -0.530 OA
ATOM     19  N   LIG    1        2.349   1.790   1.320  0.00  0.00    -0.840 N 
ATOM     20  H   LIG    1        3.209   2.208   1.155  0.00  0.00    +0.410 HD
ATOM     21  H   LIG    1        1.614   2.315   1.673  0.00  0.00    +0.410 HD
ENDBRANCH  11  17
TORSDOF 2
ENDMDL
MODEL       32
REMARK  Name = ZINC000000137879
REMARK                            x       y       z     vdW  Elec       q    Type
REMARK                         _______ _______ _______ _____ _____    ______ ____
ROOT
ATOM      1  O   LIG    1        0.002  -0.004   0.002  0.00  0.00    -0.510 OA
ATOM      2  C   LIG    1       -0.014   1.214   0.009  0.00  0.00    +0.550 A 
ATOM      3  C   LIG    1       -1.246   1.911   0.030  0.00  0.00    -0.110 A 
ATOM      4  C   LIG    1       -1.236   3.261   0.038  0.00  0.00    +0.350 A 
ATOM      5  N   LIG    1       -0.043   3.930   0.025  0.00  0.00    -0.530 N 
ATOM      6  C   LIG    1        1.121   3.256   0.005  0.00  0.00    +0.700 A 
ATOM      7  O   LIG    1        2.170   3.870  -0.006  0.00  0.00    -0.520 OA
ATOM      8  N   LIG    1        1.140   1.910   0.001  0.00  0.00    -0.660 N 
ATOM      9  H   LIG    1        1.988   1.439  -0.013  0.00  0.00    +0.430 HD
ENDROOT
BRANCH   5  10
ATOM     10  C   LIG    1       -0.032   5.396   0.033  0.00  0.00    +0.440 C 
ATOM     11  C   LIG    1        0.614   5.906   1.300  0.00  0.00    -0.040 C 
ATOM     12  C   LIG    1        1.422   6.891   0.986  0.00  0.00    +0.020 C 
ATOM     13  C   LIG    1        1.363   7.096  -0.511  0.00  0.00    +0.220 C 
ATOM     14  O   LIG    1        0.779   5.893  -1.048  0.00  0.00    -0.340 OA
BRANCH  13  15
ATOM     15  C   LIG    1        0.484   8.304  -0.844  0.00  0.00    +0.170 C 
BRANCH  15  16
ATOM     16  O   LIG    1        0.531   8.554  -2.250  0.00  0.00    -0.560 OA
ATOM     17  H   LIG    1       -0.004   9.308  -2.534  0.00  0.00    +0.380 HD
ENDBRANCH  15  16
ENDBRANCH  13  15
ENDBRANCH   5  10
TORSDOF 3
ENDMDL
MODEL       33
REMARK  Name = ZINC000004127122
REMARK                            x       y       z     vdW  Elec       q    Type
REMARK                         _______ _______ _______ _____ _____    ______ ____
ROOT
ATOM      1  C   LIG    1       -0.032   5.396   0.033  0.00  0.00    +0.440 C 
ATOM      2  O   LIG    1       -1.376   5.882   0.055  0.00  0.00    -0.370 OA
ATOM      3  C   LIG    1       -1.481   7.307   0.039  0.00  0.00    +0.230 C 
ATOM      4  C   LIG    1       -0.796   7.882   1.282  0.00  0.00    +0.110 C 
ATOM      5  C   LIG    1        0.665   7.424   1.308  0.00  0.00    +0.160 C 
ATOM      6  C   LIG    1        0.711   5.894   1.275  0.00  0.00    +0.170 C 
ENDROOT
BRANCH   1  11
ATOM      7  O   LIG    1        0.002  -0.004   0.002  0.00  0.00    -0.510 OA
ATOM      8  C   LIG    1       -0.014   1.214   0.009  0.00  0.00    +0.550 A 
ATOM      9  C   LIG    1       -1.246   1.911   0.030  0.00  0.00    -0.130 A 
ATOM     10  C   LIG    1       -1.236   3.261   0.038  0.00  0.00    +0.390 A 
ATOM     11  N   LIG    1       -0.043   3.930   0.025  0.00  0.00    -0.520 N 
ATOM     12  C   LIG    1        1.121   3.256   0.005  0.00  0.00    +0.710 A 
ATOM     13  O   LIG    1        2.170   3.870  -0.006  0.00  0.00    -0.540 OA
ATOM     14  N   LIG    1        1.140   1.910   0.001  0.00  0.00    -0.660 N 
ATOM     15  H   LIG    1        1.988   1.439  -0.013  0.00  0.00    +0.430 HD
ENDBRANCH   1  11
BRANCH   5  16
ATOM     16  O   LIG    1        1.293   7.897   2.502  0.00  0.00    -0.550 OA
ATOM     17  H   LIG    1        1.294   8.861   2.590  0.00  0.00    +0.390 HD
ENDBRANCH   5  16
BRANCH   4  18
ATOM     18  O   LIG    1       -1.466   7.414   2.454  0.00  0.00    -0.530 OA
ATOM     19  H   LIG    1       -2.399   7.665   2.501  0.00  0.00    +0.380 HD
ENDBRANCH   4  18
BRANCH   6  20
ATOM     20  O   LIG    1        0.083   5.372   2.449  0.00  0.00    -0.530 OA
ATOM     21  H   LIG    1        0.500   5.652   3.275  0.00  0.00    +0.390 HD
ENDBRANCH   6  20
TORSDOF 4
ENDMDL
MODEL       34
REMARK  Name = ZINC000002556389
REMARK                            x       y       z     vdW  Elec       q    Type
REMARK                         _______ _______ _______ _____ _____    ______ ____
ROOT
ATOM      1  C1*   U A  1       -0.032   5.396   0.033  0.00  0.00    +0.420 C 
ATOM      2  C2*   U A  1        0.636   5.921   1.328  0.00  0.00    +0.010 C 
ATOM      3  C3*   U A  1        1.118   7.322   0.863  0.00  0.00    +0.170 C 
ATOM      4  C4*   U A  1        1.484   7.069  -0.615  0.00  0.00    +0.200 C 
ATOM      5  O4*   U A  1        0.782   5.894  -1.041  0.00  0.00    -0.350 OA
ENDROOT
BRANCH   1  10
ATOM      6  O4    U A  1        0.002  -0.004   0.002  0.00  0.00    -0.510 OA
ATOM      7  C4    U A  1       -0.014   1.214   0.009  0.00  0.00    +0.550 A 
ATOM      8  C5    U A  1       -1.246   1.911   0.030  0.00  0.00    -0.110 A 
ATOM      9  C6    U A  1       -1.236   3.261   0.038  0.00  0.00    +0.350 A 
ATOM     10  N1    U A  1       -0.043   3.930   0.025  0.00  0.00    -0.530 N 
ATOM     11  C2    U A  1        1.121   3.256   0.005  0.00  0.00    +0.700 A 
ATOM     12  O2    U A  1        2.170   3.870  -0.006  0.00  0.00    -0.520 OA
ATOM     13  N3    U A  1        1.140   1.910   0.001  0.00  0.00    -0.660 N 
ATOM     14  H3    U A  1        1.988   1.439  -0.013  0.00  0.00    +0.430 HD
ENDBRANCH   1  10
BRANCH   3  15
ATOM     15  O3*   U A  1        2.263   7.740   1.610  0.00  0.00    -0.550 OA
ATOM     16  H3*   U A  1        2.102   7.828   2.560  0.00  0.00    +0.390 HD
ENDBRANCH   3  15
BRANCH   4  17
ATOM     17  C5*   U A  1        1.058   8.266  -1.468  0.00  0.00    +0.190 C 
BRANCH  17  18
ATOM     18  O5*   U A  1        1.503   8.076  -2.812  0.00  0.00    -0.560 OA
ATOM     19  H5*   U A  1        1.268   8.798  -3.410  0.00  0.00    +0.380 HD
ENDBRANCH  17  18
ENDBRANCH   4  17
TORSDOF 4
ENDMDL
MODEL       35
REMARK  Name = ZINC000004127123
REMARK                            x       y       z     vdW  Elec       q    Type
REMARK                         _______ _______ _______ _____ _____    ______ ____
ROOT
ATOM      1  C   LIG    1       -0.032   5.396   0.033  0.00  0.00    +0.450 C 
ATOM      2  O   LIG    1        0.729   5.873  -1.079  0.00  0.00    -0.360 OA
ATOM      3  C   LIG    1        0.783   7.297  -1.181  0.00  0.00    +0.230 C 
ATOM      4  C   LIG    1        1.448   7.872   0.072  0.00  0.00    +0.120 C 
ATOM      5  C   LIG    1        0.663   7.425   1.309  0.00  0.00    +0.160 C 
ATOM      6  C   LIG    1        0.601   5.894   1.334  0.00  0.00    +0.170 C 
ENDROOT
BRANCH   1  11
ATOM      7  O   LIG    1        0.002  -0.004   0.002  0.00  0.00    -0.510 OA
ATOM      8  C   LIG    1       -0.014   1.214   0.009  0.00  0.00    +0.550 A 
ATOM      9  C   LIG    1       -1.246   1.911   0.030  0.00  0.00    -0.110 A 
ATOM     10  C   LIG    1       -1.236   3.261   0.038  0.00  0.00    +0.370 A 
ATOM     11  N   LIG    1       -0.043   3.930   0.025  0.00  0.00    -0.520 N 
ATOM     12  C   LIG    1        1.121   3.256   0.005  0.00  0.00    +0.700 A 
ATOM     13  O   LIG    1        2.170   3.870  -0.006  0.00  0.00    -0.530 OA
ATOM     14  N   LIG    1        1.140   1.910   0.001  0.00  0.00    -0.660 N 
ATOM     15  H   LIG    1        1.988   1.439  -0.013  0.00  0.00    +0.430 HD
ENDBRANCH   1  11
BRANCH   5  16
ATOM     16  O   LIG    1       -0.661   7.958   1.254  0.00  0.00    -0.550 OA
ATOM     17  H   LIG    1       -0.696   8.924   1.229  0.00  0.00    +0.390 HD
ENDBRANCH   5  16
BRANCH   4  18
ATOM     18  O   LIG    1        1.452   9.299  -0.002  0.00  0.00    -0.560 OA
ATOM     19  H   LIG    1        1.929   9.652  -0.765  0.00  0.00    +0.390 HD
ENDBRANCH   4  18
BRANCH   6  20
ATOM     20  O   LIG    1       -0.190   5.467   2.446  0.00  0.00    -0.540 OA
ATOM     21  H   LIG    1        0.152   5.752   3.304  0.00  0.00    +0.390 HD
ENDBRANCH   6  20
TORSDOF 4
ENDMDL
MODEL       36
REMARK  Name = ZINC000004529544
REMARK                            x       y       z     vdW  Elec       q    Type
REMARK                         _______ _______ _______ _____ _____    ______ ____
ROOT
ATOM      1  O   LIG    1        0.002  -0.004   0.002  0.00  0.00    -0.490 OA
ATOM      2  C   LIG    1       -0.015   1.217   0.009  0.00  0.00    +0.530 A 
ATOM      3  C   LIG    1       -1.250   1.914   0.030  0.00  0.00    -0.120 A 
ATOM      4  C   LIG    1       -1.232   3.264  -0.019  0.00  0.00    +0.350 A 
ATOM      5  N   LIG    1       -0.044   3.917  -0.094  0.00  0.00    -0.540 N 
ATOM      6  C   LIG    1        1.141   3.220  -0.032  0.00  0.00    +0.570 A 
ATOM      7  O   LIG    1        2.217   4.086   0.028  0.00  0.00    -0.230 OA
ATOM      8  C   LIG    1        1.658   5.238   0.610  0.00  0.00    +0.140 C 
ATOM      9  C   LIG    1        2.036   6.684   0.561  0.00  0.00    +0.230 C 
ATOM     10  C   LIG    1        0.636   7.334   0.819  0.00  0.00    +0.190 C 
ATOM     11  O   LIG    1       -0.358   6.333   0.471  0.00  0.00    -0.340 OA
ATOM     12  C   LIG    1        0.331   5.320  -0.259  0.00  0.00    +0.390 C 
ATOM     13  N   LIG    1        1.134   1.907   0.002  0.00  0.00    -0.560 NA
ENDROOT
BRANCH   9  14
ATOM     14  O   LIG    1        2.548   7.044  -0.724  0.00  0.00    -0.540 OA
ATOM     15  H   LIG    1        2.805   7.973  -0.798  0.00  0.00    +0.390 HD
ENDBRANCH   9  14
BRANCH  10  16
ATOM     16  C   LIG    1        0.464   8.573  -0.060  0.00  0.00    +0.200 C 
BRANCH  16  17
ATOM     17  O   LIG    1       -0.766   9.223   0.268  0.00  0.00    -0.560 OA
ATOM     18  H   LIG    1       -0.942  10.019  -0.252  0.00  0.00    +0.390 HD
ENDBRANCH  16  17
ENDBRANCH  10  16
TORSDOF 3
ENDMDL
MODEL       37
REMARK  Name = ZINC000004124398
REMARK                            x       y       z     vdW  Elec       q    Type
REMARK                         _______ _______ _______ _____ _____    ______ ____
ROOT
ATOM      1  C1*   U A  1       -0.032   5.396   0.033  0.00  0.00    +0.420 C 
ATOM      2  C2*   U A  1        0.637   5.921   1.322  0.00  0.00    +0.000 C 
ATOM      3  C3*   U A  1        1.422   7.168   0.856  0.00  0.00    +0.170 C 
ATOM      4  C4*   U A  1        1.134   7.248  -0.660  0.00  0.00    +0.190 C 
ATOM      5  O4*   U A  1        0.789   5.898  -1.044  0.00  0.00    -0.350 OA
ENDROOT
BRANCH   1  10
ATOM      6  O4    U A  1        0.002  -0.004   0.002  0.00  0.00    -0.510 OA
ATOM      7  C4    U A  1       -0.014   1.214   0.009  0.00  0.00    +0.550 A 
ATOM      8  C5    U A  1       -1.246   1.911   0.030  0.00  0.00    -0.110 A 
ATOM      9  C6    U A  1       -1.236   3.261   0.038  0.00  0.00    +0.350 A 
ATOM     10  N1    U A  1       -0.043   3.930   0.025  0.00  0.00    -0.530 N 
ATOM     11  C2    U A  1        1.121   3.256   0.005  0.00  0.00    +0.690 A 
ATOM     12  O2    U A  1        2.170   3.870  -0.006  0.00  0.00    -0.510 OA
ATOM     13  N3    U A  1        1.140   1.910   0.001  0.00  0.00    -0.660 N 
ATOM     14  H3    U A  1        1.988   1.439  -0.013  0.00  0.00    +0.430 HD
ENDBRANCH   1  10
BRANCH   3  15
ATOM     15  O3*   U A  1        2.821   6.997   1.094  0.00  0.00    -0.550 OA
ATOM     16  H3*   U A  1        3.050   6.883   2.026  0.00  0.00    +0.380 HD
ENDBRANCH   3  15
BRANCH   4  17
ATOM     17  C5*   U A  1        2.378   7.719  -1.415  0.00  0.00    +0.220 C 
BRANCH  17  18
ATOM     18  O5*   U A  1        2.059   7.898  -2.796  0.00  0.00    -0.570 OA
ATOM     19  H5*   U A  1        2.803   8.196  -3.337  0.00  0.00    +0.380 HD
ENDBRANCH  17  18
ENDBRANCH   4  17
TORSDOF 4
ENDMDL
MODEL       38
REMARK  Name = ZINC000005106305
REMARK                            x       y       z     vdW  Elec       q    Type
REMARK                         _______ _______ _______ _____ _____    ______ ____
ROOT
ATOM      1  C   LIG    1       -0.032   5.396   0.033  0.00  0.00    +0.440 C 
ATOM      2  O   LIG    1       -1.379   5.908   0.124  0.00  0.00    -0.350 OA
ATOM      3  C   LIG    1       -1.240   7.258   0.616  0.00  0.00    +0.120 C 
ATOM      4  C   LIG    1       -0.136   7.175   1.693  0.00  0.00    +0.130 C 
ATOM      5  C   LIG    1        0.680   5.921   1.299  0.00  0.00    +0.180 C 
ENDROOT
BRANCH   1  10
ATOM      6  O   LIG    1        0.002  -0.004   0.002  0.00  0.00    -0.520 OA
ATOM      7  C   LIG    1       -0.014   1.214   0.009  0.00  0.00    +0.550 A 
ATOM      8  C   LIG    1       -1.246   1.911   0.030  0.00  0.00    -0.130 A 
ATOM      9  C   LIG    1       -1.236   3.261   0.038  0.00  0.00    +0.370 A 
ATOM     10  N   LIG    1       -0.043   3.930   0.025  0.00  0.00    -0.520 N 
ATOM     11  C   LIG    1        1.121   3.256   0.005  0.00  0.00    +0.710 A 
ATOM     12  O   LIG    1        2.170   3.870  -0.006  0.00  0.00    -0.540 OA
ATOM     13  N   LIG    1        1.140   1.910   0.001  0.00  0.00    -0.660 N 
ATOM     14  H   LIG    1        1.988   1.439  -0.013  0.00  0.00    +0.430 HD
ENDBRANCH   1  10
BRANCH   4  15
ATOM     15  O   LIG    1       -0.713   7.015   2.990  0.00  0.00    -0.540 OA
ATOM     16  H   LIG    1       -1.282   7.748   3.261  0.00  0.00    +0.380 HD
ENDBRANCH   4  15
BRANCH   3  17
ATOM     17  C   LIG    1       -2.555   7.739   1.234  0.00  0.00    +0.260 C 
ATOM     18  F   LIG    1       -3.527   7.848   0.234  0.00  0.00    -0.200 F 
ENDBRANCH   3  17
BRANCH   5  19
ATOM     19  O   LIG    1        0.633   4.945   2.342  0.00  0.00    -0.530 OA
ATOM     20  H   LIG    1        1.012   5.246   3.179  0.00  0.00    +0.390 HD
ENDBRANCH   5  19
TORSDOF 4
ENDMDL
MODEL       39
REMARK  Name = ZINC000003869842
REMARK                            x       y       z     vdW  Elec       q    Type
REMARK                         _______ _______ _______ _____ _____    ______ ____
ROOT
ATOM      1  C1*   U A  1       -0.032   5.396   0.033  0.00  0.00    +0.430 C 
ATOM      2  C2*   U A  1        0.636   5.921   1.328  0.00  0.00    +0.010 C 
ATOM      3  C3*   U A  1        1.118   7.322   0.863  0.00  0.00    +0.170 C 
ATOM      4  C4*   U A  1        1.484   7.069  -0.615  0.00  0.00    +0.210 C 
ATOM      5  O4*   U A  1        0.782   5.894  -1.041  0.00  0.00    -0.350 OA
ENDROOT
BRANCH   1  10
ATOM      6  O4    U A  1        0.002  -0.004   0.002  0.00  0.00    -0.510 OA
ATOM      7  C4    U A  1       -0.014   1.214   0.009  0.00  0.00    +0.550 A 
ATOM      8  C5    U A  1       -1.246   1.911   0.030  0.00  0.00    -0.110 A 
ATOM      9  C6    U A  1       -1.236   3.261   0.038  0.00  0.00    +0.360 A 
ATOM     10  N1    U A  1       -0.043   3.930   0.025  0.00  0.00    -0.530 N 
ATOM     11  C2    U A  1        1.121   3.256   0.005  0.00  0.00    +0.700 A 
ATOM     12  O2    U A  1        2.170   3.870  -0.006  0.00  0.00    -0.520 OA
ATOM     13  N3    U A  1        1.140   1.910   0.001  0.00  0.00    -0.660 N 
ATOM     14  H3    U A  1        1.988   1.439  -0.013  0.00  0.00    +0.430 HD
ENDBRANCH   1  10
BRANCH   3  15
ATOM     15  O3*   U A  1        0.067   8.284   0.974  0.00  0.00    -0.560 OA
ATOM     16  H3*   U A  1       -0.255   8.413   1.876  0.00  0.00    +0.390 HD
ENDBRANCH   3  15
BRANCH   4  17
ATOM     17  C5*   U A  1        1.058   8.266  -1.468  0.00  0.00    +0.200 C 
BRANCH  17  18
ATOM     18  O5*   U A  1        1.503   8.076  -2.812  0.00  0.00    -0.570 OA
ATOM     19  H5*   U A  1        1.268   8.798  -3.410  0.00  0.00    +0.380 HD
ENDBRANCH  17  18
ENDBRANCH   4  17
TORSDOF 4
ENDMDL
MODEL       40
REMARK  Name = ZINC000012360648
REMARK                            x       y       z     vdW  Elec       q    Type
REMARK                         _______ _______ _______ _____ _____    ______ ____
ROOT
ATOM      1  O   LIG    1        0.002  -0.004   0.002  0.00  0.00    -0.490 OA
ATOM      2  C   LIG    1       -0.015   1.217   0.009  0.00  0.00    +0.530 A 
ATOM      3  C   LIG    1       -1.248   1.917   0.030  0.00  0.00    -0.110 A 
ATOM      4  C   LIG    1       -1.228   3.265   0.004  0.00  0.00    +0.340 A 
ATOM      5  N   LIG    1       -0.041   3.932  -0.048  0.00  0.00    -0.520 N 
ATOM      6  C   LIG    1        1.144   3.222  -0.019  0.00  0.00    +0.580 A 
ATOM      7  O   LIG    1        2.227   4.076   0.011  0.00  0.00    -0.250 OA
ATOM      8  C   LIG    1        1.708   5.255   0.656  0.00  0.00    +0.150 C 
ATOM      9  C   LIG    1        2.217   6.647   0.319  0.00  0.00    +0.210 C 
ATOM     10  C   LIG    1        0.899   7.463   0.160  0.00  0.00    +0.200 C 
ATOM     11  O   LIG    1       -0.199   6.505   0.271  0.00  0.00    -0.320 OA
ATOM     12  C   LIG    1        0.345   5.300  -0.142  0.00  0.00    +0.350 C 
ATOM     13  N   LIG    1        1.132   1.909   0.002  0.00  0.00    -0.550 NA
ENDROOT
BRANCH   9  14
ATOM     14  O   LIG    1        3.014   7.167   1.385  0.00  0.00    -0.540 OA
ATOM     15  H   LIG    1        3.362   8.053   1.219  0.00  0.00    +0.400 HD
ENDBRANCH   9  14
BRANCH  10  16
ATOM     16  C   LIG    1        0.866   8.143  -1.210  0.00  0.00    +0.190 C 
BRANCH  16  17
ATOM     17  O   LIG    1       -0.289   8.980  -1.298  0.00  0.00    -0.560 OA
ATOM     18  H   LIG    1       -0.375   9.444  -2.142  0.00  0.00    +0.390 HD
ENDBRANCH  16  17
ENDBRANCH  10  16
TORSDOF 3
ENDMDL
MODEL       41
REMARK  Name = ZINC000001303438
REMARK                            x       y       z     vdW  Elec       q    Type
REMARK                         _______ _______ _______ _____ _____    ______ ____
ROOT
ATOM      1  O   LIG    1        0.002  -0.004   0.002  0.00  0.00    -0.500 OA
ATOM      2  C   LIG    1       -0.015   1.217   0.009  0.00  0.00    +0.530 A 
ATOM      3  C   LIG    1       -1.249   1.913   0.030  0.00  0.00    -0.110 A 
ATOM      4  C   LIG    1       -1.225   3.263   0.040  0.00  0.00    +0.340 A 
ATOM      5  N   LIG    1       -0.025   3.916   0.030  0.00  0.00    -0.540 N 
ATOM      6  C   LIG    1        1.143   3.232   0.005  0.00  0.00    +0.590 A 
ATOM      7  O   LIG    1        2.222   4.044  -0.011  0.00  0.00    -0.240 OA
ATOM      8  C   LIG    1        1.803   5.433  -0.013  0.00  0.00    +0.220 C 
ATOM      9  C   LIG    1        2.216   6.102   1.318  0.00  0.00    +0.180 C 
ATOM     10  C   LIG    1        0.911   6.825   1.738  0.00  0.00    +0.160 C 
ATOM     11  O   LIG    1       -0.127   5.906   1.336  0.00  0.00    -0.350 OA
ATOM     12  C   LIG    1        0.258   5.362   0.045  0.00  0.00    +0.410 C 
ATOM     13  N   LIG    1        1.132   1.905   0.002  0.00  0.00    -0.580 NA
ENDROOT
BRANCH   9  14
ATOM     14  O   LIG    1        2.594   5.121   2.286  0.00  0.00    -0.530 OA
ATOM     15  H   LIG    1        2.861   5.492   3.138  0.00  0.00    +0.390 HD
ENDBRANCH   9  14
BRANCH  10  16
ATOM     16  C   LIG    1        0.882   7.048   3.251  0.00  0.00    +0.220 C 
BRANCH  16  17
ATOM     17  O   LIG    1       -0.272   7.817   3.597  0.00  0.00    -0.560 OA
ATOM     18  H   LIG    1       -0.356   7.997   4.544  0.00  0.00    +0.390 HD
ENDBRANCH  16  17
ENDBRANCH  10  16
TORSDOF 3
ENDMDL
MODEL       42
REMARK  Name = ZINC000004127125
REMARK                            x       y       z     vdW  Elec       q    Type
REMARK                         _______ _______ _______ _____ _____    ______ ____
ROOT
ATOM      1  C   LIG    1       -0.032   5.396   0.033  0.00  0.00    +0.440 C 
ATOM      2  O   LIG    1       -1.372   5.882  -0.062  0.00  0.00    -0.370 OA
ATOM      3  C   LIG    1       -1.475   7.308  -0.089  0.00  0.00    +0.240 C 
ATOM      4  C   LIG    1       -0.901   7.883   1.209  0.00  0.00    +0.120 C 
ATOM      5  C   LIG    1        0.552   7.425   1.363  0.00  0.00    +0.170 C 
ATOM      6  C   LIG    1        0.600   5.894   1.335  0.00  0.00    +0.170 C 
ENDROOT
BRANCH   1  11
ATOM      7  O   LIG    1       -0.024  -0.004  -0.053  0.00  0.00    -0.510 OA
ATOM      8  C   LIG    1       -0.031   1.214  -0.027  0.00  0.00    +0.550 A 
ATOM      9  C   LIG    1       -0.829   1.903   0.917  0.00  0.00    -0.120 A 
ATOM     10  C   LIG    1       -0.820   3.253   0.925  0.00  0.00    +0.360 A 
ATOM     11  N   LIG    1       -0.043   3.930   0.025  0.00  0.00    -0.520 N 
ATOM     12  C   LIG    1        0.711   3.264  -0.868  0.00  0.00    +0.710 A 
ATOM     13  O   LIG    1        1.395   3.885  -1.659  0.00  0.00    -0.530 OA
ATOM     14  N   LIG    1        0.724   1.918  -0.894  0.00  0.00    -0.660 N 
ATOM     15  H   LIG    1        1.274   1.453  -1.544  0.00  0.00    +0.430 HD
ENDBRANCH   1  11
BRANCH   5  16
ATOM     16  O   LIG    1        1.074   7.899   2.606  0.00  0.00    -0.550 OA
ATOM     17  H   LIG    1        1.068   8.861   2.694  0.00  0.00    +0.390 HD
ENDBRANCH   5  16
BRANCH   4  18
ATOM     18  O   LIG    1       -1.670   7.417   2.319  0.00  0.00    -0.540 OA
ATOM     19  H   LIG    1       -2.604   7.667   2.284  0.00  0.00    +0.380 HD
ENDBRANCH   4  18
BRANCH   6  20
ATOM     20  O   LIG    1        1.958   5.457   1.407  0.00  0.00    -0.550 OA
ATOM     21  H   LIG    1        2.421   5.742   2.206  0.00  0.00    +0.400 HD
ENDBRANCH   6  20
TORSDOF 4
ENDMDL
MODEL       43
REMARK  Name = ZINC000005106312
REMARK                            x       y       z     vdW  Elec       q    Type
REMARK                         _______ _______ _______ _____ _____    ______ ____
ROOT
ATOM      1  C   LIG    1       -0.032   5.396   0.033  0.00  0.00    +0.440 C 
ATOM      2  O   LIG    1       -1.379   5.908   0.124  0.00  0.00    -0.350 OA
ATOM      3  C   LIG    1       -1.240   7.258   0.616  0.00  0.00    +0.130 C 
ATOM      4  C   LIG    1       -0.136   7.175   1.693  0.00  0.00    +0.150 C 
ATOM      5  C   LIG    1        0.680   5.921   1.299  0.00  0.00    +0.170 C 
ENDROOT
BRANCH   1  10
ATOM      6  O   LIG    1        0.002  -0.004   0.002  0.00  0.00    -0.510 OA
ATOM      7  C   LIG    1       -0.014   1.214   0.009  0.00  0.00    +0.550 A 
ATOM      8  C   LIG    1       -1.246   1.911   0.030  0.00  0.00    -0.110 A 
ATOM      9  C   LIG    1       -1.236   3.261   0.038  0.00  0.00    +0.370 A 
ATOM     10  N   LIG    1       -0.043   3.930   0.025  0.00  0.00    -0.530 N 
ATOM     11  C   LIG    1        1.121   3.256   0.005  0.00  0.00    +0.700 A 
ATOM     12  O   LIG    1        2.170   3.870  -0.006  0.00  0.00    -0.510 OA
ATOM     13  N   LIG    1        1.140   1.910   0.001  0.00  0.00    -0.660 N 
ATOM     14  H   LIG    1        1.988   1.439  -0.013  0.00  0.00    +0.430 HD
ENDBRANCH   1  10
BRANCH   4  15
ATOM     15  O   LIG    1       -0.713   7.015   2.990  0.00  0.00    -0.550 OA
ATOM     16  H   LIG    1       -1.282   7.748   3.261  0.00  0.00    +0.390 HD
ENDBRANCH   4  15
BRANCH   3  17
ATOM     17  C   LIG    1       -2.555   7.739   1.234  0.00  0.00    +0.270 C 
ATOM     18  F   LIG    1       -3.527   7.848   0.234  0.00  0.00    -0.200 F 
ENDBRANCH   3  17
BRANCH   5  19
ATOM     19  O   LIG    1        2.034   6.275   1.010  0.00  0.00    -0.520 OA
ATOM     20  H   LIG    1        2.507   6.665   1.757  0.00  0.00    +0.390 HD
ENDBRANCH   5  19
TORSDOF 4
ENDMDL
MODEL       44
REMARK  Name = ZINC000003956782
REMARK                            x       y       z     vdW  Elec       q    Type
REMARK                         _______ _______ _______ _____ _____    ______ ____
ROOT
ATOM      1  O   LIG    1        0.002  -0.004   0.002  0.00  0.00    -0.490 OA
ATOM      2  C   LIG    1       -0.015   1.217   0.009  0.00  0.00    +0.530 A 
ATOM      3  C   LIG    1       -1.248   1.917   0.030  0.00  0.00    -0.110 A 
ATOM      4  C   LIG    1       -1.228   3.264   0.070  0.00  0.00    +0.340 A 
ATOM      5  N   LIG    1       -0.038   3.931   0.095  0.00  0.00    -0.520 N 
ATOM      6  C   LIG    1        1.144   3.222   0.025  0.00  0.00    +0.580 A 
ATOM      7  O   LIG    1        2.226   4.076  -0.027  0.00  0.00    -0.230 OA
ATOM      8  C   LIG    1        1.689   5.261  -0.645  0.00  0.00    +0.150 C 
ATOM      9  C   LIG    1        2.208   6.650  -0.308  0.00  0.00    +0.210 C 
ATOM     10  C   LIG    1        0.895   7.464  -0.102  0.00  0.00    +0.180 C 
ATOM     11  O   LIG    1       -0.206   6.507  -0.192  0.00  0.00    -0.320 OA
ATOM     12  C   LIG    1        0.350   5.298   0.193  0.00  0.00    +0.360 C 
ATOM     13  N   LIG    1        1.132   1.909   0.002  0.00  0.00    -0.560 NA
ENDROOT
BRANCH   9  14
ATOM     14  O   LIG    1        2.985   6.624   0.891  0.00  0.00    -0.540 OA
ATOM     15  H   LIG    1        3.339   7.486   1.149  0.00  0.00    +0.400 HD
ENDBRANCH   9  14
BRANCH  10  16
ATOM     16  C   LIG    1        0.760   8.525  -1.196  0.00  0.00    +0.220 C 
BRANCH  16  17
ATOM     17  O   LIG    1       -0.384   9.339  -0.931  0.00  0.00    -0.560 OA
ATOM     18  H   LIG    1       -0.532  10.036  -1.585  0.00  0.00    +0.390 HD
ENDBRANCH  16  17
ENDBRANCH  10  16
TORSDOF 3
ENDMDL
MODEL       45
REMARK  Name = ZINC000101742825
REMARK                            x       y       z     vdW  Elec       q    Type
REMARK                         _______ _______ _______ _____ _____    ______ ____
ROOT
ATOM      1  O   LIG    1        0.002  -0.004   0.002  0.00  0.00    -0.490 OA
ATOM      2  C   LIG    1       -0.015   1.217   0.009  0.00  0.00    +0.530 A 
ATOM      3  C   LIG    1       -1.250   1.914   0.030  0.00  0.00    -0.120 A 
ATOM      4  C   LIG    1       -1.230   3.264   0.088  0.00  0.00    +0.350 A 
ATOM      5  N   LIG    1       -0.040   3.916   0.132  0.00  0.00    -0.540 N 
ATOM      6  C   LIG    1        1.142   3.220   0.034  0.00  0.00    +0.570 A 
ATOM      7  O   LIG    1        2.216   4.086  -0.046  0.00  0.00    -0.230 OA
ATOM      8  C   LIG    1        1.643   5.240  -0.611  0.00  0.00    +0.140 C 
ATOM      9  C   LIG    1        2.021   6.686  -0.568  0.00  0.00    +0.230 C 
ATOM     10  C   LIG    1        0.616   7.335  -0.791  0.00  0.00    +0.190 C 
ATOM     11  O   LIG    1       -0.369   6.333  -0.421  0.00  0.00    -0.340 OA
ATOM     12  C   LIG    1        0.338   5.319   0.290  0.00  0.00    +0.390 C 
ATOM     13  N   LIG    1        1.134   1.907   0.002  0.00  0.00    -0.560 NA
ENDROOT
BRANCH   9  14
ATOM     14  O   LIG    1        2.565   7.044   0.704  0.00  0.00    -0.540 OA
ATOM     15  H   LIG    1        2.823   7.973   0.774  0.00  0.00    +0.390 HD
ENDBRANCH   9  14
BRANCH  10  16
ATOM     16  C   LIG    1        0.464   8.573   0.095  0.00  0.00    +0.200 C 
BRANCH  16  17
ATOM     17  O   LIG    1       -0.774   9.222  -0.202  0.00  0.00    -0.560 OA
ATOM     18  H   LIG    1       -0.937  10.017   0.324  0.00  0.00    +0.390 HD
ENDBRANCH  16  17
ENDBRANCH  10  16
TORSDOF 3
ENDMDL
MODEL       46
REMARK  Name = ZINC000000389497
REMARK                            x       y       z     vdW  Elec       q    Type
REMARK                         _______ _______ _______ _____ _____    ______ ____
ROOT
ATOM      1  O   LIG    1        0.002  -0.004   0.002  0.00  0.00    -0.500 OA
ATOM      2  C   LIG    1       -0.015   1.217   0.009  0.00  0.00    +0.530 A 
ATOM      3  C   LIG    1       -1.249   1.914   0.030  0.00  0.00    -0.110 A 
ATOM      4  C   LIG    1       -1.225   3.263   0.036  0.00  0.00    +0.340 A 
ATOM      5  N   LIG    1       -0.025   3.917   0.020  0.00  0.00    -0.550 N 
ATOM      6  C   LIG    1        1.143   3.232   0.002  0.00  0.00    +0.580 A 
ATOM      7  O   LIG    1        2.222   4.043  -0.008  0.00  0.00    -0.250 OA
ATOM      8  C   LIG    1        1.805   5.434   0.009  0.00  0.00    +0.230 C 
ATOM      9  C   LIG    1        2.175   6.056   1.377  0.00  0.00    +0.180 C 
ATOM     10  C   LIG    1        0.906   5.772   2.220  0.00  0.00    +0.130 C 
ATOM     11  O   LIG    1       -0.172   5.944   1.275  0.00  0.00    -0.330 OA
ATOM     12  C   LIG    1        0.259   5.361   0.017  0.00  0.00    +0.430 C 
ATOM     13  N   LIG    1        1.132   1.905   0.002  0.00  0.00    -0.580 NA
ENDROOT
BRANCH   9  14
ATOM     14  O   LIG    1        2.403   7.462   1.252  0.00  0.00    -0.540 OA
ATOM     15  H   LIG    1        2.638   7.897   2.083  0.00  0.00    +0.400 HD
ENDBRANCH   9  14
BRANCH  10  16
ATOM     16  C   LIG    1        0.786   6.775   3.369  0.00  0.00    +0.220 C 
BRANCH  16  17
ATOM     17  O   LIG    1       -0.324   6.421   4.197  0.00  0.00    -0.560 OA
ATOM     18  H   LIG    1       -0.460   7.016   4.947  0.00  0.00    +0.390 HD
ENDBRANCH  16  17
ENDBRANCH  10  16
TORSDOF 3
ENDMDL
MODEL       47
REMARK  Name = ZINC000004529545
REMARK                            x       y       z     vdW  Elec       q    Type
REMARK                         _______ _______ _______ _____ _____    ______ ____
ROOT
ATOM      1  O   LIG    1        0.002  -0.004   0.002  0.00  0.00    -0.500 OA
ATOM      2  C   LIG    1       -0.015   1.217   0.009  0.00  0.00    +0.530 A 
ATOM      3  C   LIG    1       -1.249   1.913   0.030  0.00  0.00    -0.110 A 
ATOM      4  C   LIG    1       -1.226   3.263   0.034  0.00  0.00    +0.340 A 
ATOM      5  N   LIG    1       -0.025   3.916   0.017  0.00  0.00    -0.540 N 
ATOM      6  C   LIG    1        1.143   3.232   0.002  0.00  0.00    +0.590 A 
ATOM      7  O   LIG    1        2.222   4.044  -0.005  0.00  0.00    -0.240 OA
ATOM      8  C   LIG    1        1.803   5.433   0.025  0.00  0.00    +0.220 C 
ATOM      9  C   LIG    1        2.178   6.116  -1.311  0.00  0.00    +0.180 C 
ATOM     10  C   LIG    1        0.842   6.866  -1.655  0.00  0.00    +0.150 C 
ATOM     11  O   LIG    1       -0.179   5.936  -1.234  0.00  0.00    -0.340 OA
ATOM     12  C   LIG    1        0.258   5.362   0.010  0.00  0.00    +0.400 C 
ATOM     13  N   LIG    1        1.132   1.905   0.002  0.00  0.00    -0.580 NA
ENDROOT
BRANCH   9  14
ATOM     14  O   LIG    1        2.506   5.167  -2.327  0.00  0.00    -0.530 OA
ATOM     15  H   LIG    1        2.651   5.558  -3.200  0.00  0.00    +0.390 HD
ENDBRANCH   9  14
BRANCH  10  16
ATOM     16  C   LIG    1        0.747   7.125  -3.160  0.00  0.00    +0.210 C 
BRANCH  16  17
ATOM     17  O   LIG    1       -0.473   7.812  -3.449  0.00  0.00    -0.560 OA
ATOM     18  H   LIG    1       -0.600   8.009  -4.387  0.00  0.00    +0.390 HD
ENDBRANCH  16  17
ENDBRANCH  10  16
TORSDOF 3
ENDMDL
MODEL       48
REMARK  Name = ZINC000005541275
REMARK                            x       y       z     vdW  Elec       q    Type
REMARK                         _______ _______ _______ _____ _____    ______ ____
ROOT
ATOM      1  C   LIG    1       -0.032   5.396   0.033  0.00  0.00    +0.410 C 
ATOM      2  O   LIG    1       -1.379   5.908   0.124  0.00  0.00    -0.350 OA
ATOM      3  C   LIG    1       -1.240   7.258   0.616  0.00  0.00    +0.200 C 
ATOM      4  C   LIG    1       -0.136   7.175   1.693  0.00  0.00    +0.160 C 
ATOM      5  C   LIG    1        0.680   5.921   1.299  0.00  0.00    +0.140 C 
ATOM      6  F   LIG    1        2.005   6.268   1.016  0.00  0.00    -0.170 F 
ENDROOT
BRANCH   1  11
ATOM      7  O   LIG    1        0.002  -0.004   0.002  0.00  0.00    -0.510 OA
ATOM      8  C   LIG    1       -0.014   1.214   0.009  0.00  0.00    +0.550 A 
ATOM      9  C   LIG    1       -1.246   1.911   0.030  0.00  0.00    -0.110 A 
ATOM     10  C   LIG    1       -1.236   3.261   0.038  0.00  0.00    +0.370 A 
ATOM     11  N   LIG    1       -0.043   3.930   0.025  0.00  0.00    -0.540 N 
ATOM     12  C   LIG    1        1.121   3.256   0.005  0.00  0.00    +0.700 A 
ATOM     13  O   LIG    1        2.170   3.870  -0.006  0.00  0.00    -0.520 OA
ATOM     14  N   LIG    1        1.140   1.910   0.001  0.00  0.00    -0.660 N 
ATOM     15  H   LIG    1        1.988   1.439  -0.013  0.00  0.00    +0.430 HD
ENDBRANCH   1  11
BRANCH   4  16
ATOM     16  O   LIG    1       -0.713   7.015   2.990  0.00  0.00    -0.540 OA
ATOM     17  H   LIG    1       -0.064   6.957   3.705  0.00  0.00    +0.390 HD
ENDBRANCH   4  16
BRANCH   3  18
ATOM     18  C   LIG    1       -2.555   7.739   1.234  0.00  0.00    +0.230 C 
BRANCH  18  19
ATOM     19  O   LIG    1       -3.548   7.850   0.213  0.00  0.00    -0.570 OA
ATOM     20  H   LIG    1       -4.410   8.150   0.533  0.00  0.00    +0.390 HD
ENDBRANCH  18  19
ENDBRANCH   3  18
TORSDOF 4
ENDMDL
MODEL       49
REMARK  Name = ZINC000005030589
REMARK                            x       y       z     vdW  Elec       q    Type
REMARK                         _______ _______ _______ _____ _____    ______ ____
ROOT
ATOM      1  C1* LIG    1        2.425   1.222  -0.021  0.00  0.00    +0.410 C 
ATOM      2  O4* LIG    1        2.221  -0.206  -0.089  0.00  0.00    -0.300 OA
ATOM      3  C4* LIG    1        3.462  -0.743  -0.596  0.00  0.00    +0.130 C 
ATOM      4  C3* LIG    1        3.901   0.249  -1.696  0.00  0.00    +0.140 C 
ATOM      5  C2* LIG    1        3.204   1.574  -1.307  0.00  0.00    +0.160 C 
ENDROOT
BRANCH   1  12
ATOM      6  O   LIG    1        0.002  -0.004   0.002  0.00  0.00    -0.490 OA
ATOM      7  C   LIG    1       -0.015   1.216   0.009  0.00  0.00    +0.510 A 
ATOM      8  C   LIG    1       -1.236   1.919   0.030  0.00  0.00    -0.120 A 
ATOM      9  C   LIG    1       -1.205   3.281   0.037  0.00  0.00    +0.310 A 
ATOM     10  N   LIG    1       -0.032   3.919   0.023  0.00  0.00    -0.540 NA
ATOM     11  C   LIG    1        1.100   3.268   0.003  0.00  0.00    +0.590 A 
ATOM     12  N   LIG    1        1.137   1.921   0.002  0.00  0.00    -0.520 N 
ENDBRANCH   1  12
BRANCH   4  13
ATOM     13  O3* LIG    1        3.458  -0.198  -2.979  0.00  0.00    -0.550 OA
ATOM     14  H3* LIG    1        3.821  -1.054  -3.244  0.00  0.00    +0.390 HD
ENDBRANCH   4  13
BRANCH   5  15
ATOM     15  O2* LIG    1        4.173   2.592  -1.050  0.00  0.00    -0.550 OA
ATOM     16  H2* LIG    1        4.729   2.807  -1.812  0.00  0.00    +0.400 HD
ENDBRANCH   5  15
BRANCH   3  17
ATOM     17  C5* LIG    1        3.235  -2.135  -1.190  0.00  0.00    +0.210 C 
BRANCH  17  18
ATOM     18  O5* LIG    1        2.873  -3.044  -0.149  0.00  0.00    -0.560 OA
ATOM     19  H5* LIG    1        2.714  -3.948  -0.454  0.00  0.00    +0.380 HD
ENDBRANCH  17  18
ENDBRANCH   3  17
TORSDOF 5
ENDMDL
MODEL       50
REMARK  Name = ZINC000001709545
REMARK                            x       y       z     vdW  Elec       q    Type
REMARK                         _______ _______ _______ _____ _____    ______ ____
ROOT
ATOM      1  C1* LIG    1        2.425   1.222  -0.021  0.00  0.00    +0.430 C 
ATOM      2  O4* LIG    1        3.323   1.793   0.956  0.00  0.00    -0.320 OA
ATOM      3  C4* LIG    1        3.821   3.007   0.351  0.00  0.00    +0.110 C 
ATOM      4  C3* LIG    1        4.069   2.638  -1.128  0.00  0.00    +0.130 C 
ATOM      5  C2* LIG    1        3.128   1.435  -1.380  0.00  0.00    +0.180 C 
ENDROOT
BRANCH   1  12
ATOM      6  O   LIG    1        0.285   0.567  -1.559  0.00  0.00    -0.530 OA
ATOM      7  C   LIG    1        0.134   1.516  -0.807  0.00  0.00    +0.520 A 
ATOM      8  C   LIG    1       -1.092   2.211  -0.761  0.00  0.00    -0.120 A 
ATOM      9  C   LIG    1       -1.213   3.264   0.094  0.00  0.00    +0.320 A 
ATOM     10  N   LIG    1       -0.181   3.618   0.864  0.00  0.00    -0.530 NA
ATOM     11  C   LIG    1        0.955   2.975   0.821  0.00  0.00    +0.580 A 
ATOM     12  N   LIG    1        1.137   1.921   0.002  0.00  0.00    -0.530 N 
ENDBRANCH   1  12
BRANCH   4  13
ATOM     13  O3* LIG    1        5.433   2.261  -1.328  0.00  0.00    -0.540 OA
ATOM     14  H3* LIG    1        6.068   2.961  -1.127  0.00  0.00    +0.380 HD
ENDBRANCH   4  13
BRANCH   5  15
ATOM     15  O2* LIG    1        3.882   0.278  -1.745  0.00  0.00    -0.530 OA
ATOM     16  H2* LIG    1        4.392   0.381  -2.560  0.00  0.00    +0.390 HD
ENDBRANCH   5  15
BRANCH   3  17
ATOM     17  C5* LIG    1        5.126   3.439   1.022  0.00  0.00    +0.220 C 
BRANCH  17  18
ATOM     18  O5* LIG    1        4.865   3.816   2.375  0.00  0.00    -0.560 OA
ATOM     19  H5* LIG    1        5.650   4.102   2.862  0.00  0.00    +0.390 HD
ENDBRANCH  17  18
ENDBRANCH   3  17
TORSDOF 5
ENDMDL
MODEL       51
REMARK  Name = ZINC000001580039
REMARK                            x       y       z     vdW  Elec       q    Type
REMARK                         _______ _______ _______ _____ _____    ______ ____
ROOT
ATOM      1  C   THR A  1        0.739  -2.004  -1.265  0.00  0.00    +0.510 C 
ATOM      2  N   GLY A  2       -0.353  -2.691  -1.658  0.00  0.00    -0.680 N 
ATOM      3  H   GLY A  2       -1.151  -2.215  -1.935  0.00  0.00    +0.420 HD
ATOM      4  O   THR A  1        1.737  -2.599  -0.918  0.00  0.00    -0.520 OA
ENDROOT
BRANCH   1   5
ATOM      5  CA  THR A  1        0.718  -0.497  -1.257  0.00  0.00    +0.150 C 
BRANCH   5   6
ATOM      6  N   THR A  1        2.096   0.011  -1.267  0.00  0.00    -0.620 N 
ATOM      7  H1  THR A  1        2.083   1.020  -1.262  0.00  0.00    +0.440 HD
ATOM      8  H2  THR A  1        2.569  -0.314  -2.097  0.00  0.00    +0.450 HD
ATOM      9  H3  THR A  1        2.584  -0.323  -0.450  0.00  0.00    +0.440 HD
ENDBRANCH   5   6
BRANCH   5  11
ATOM     10  CG2 THR A  1       -0.019   1.526   0.010  0.00  0.00    +0.050 C 
ATOM     11  CB  THR A  1        0.002  -0.004   0.002  0.00  0.00    +0.240 C 
BRANCH  11  12
ATOM     12  OG1 THR A  1        0.693  -0.477   1.160  0.00  0.00    -0.530 OA
ATOM     13  HG1 THR A  1        1.611  -0.180   1.219  0.00  0.00    +0.370 HD
ENDBRANCH  11  12
ENDBRANCH   5  11
ENDBRANCH   1   5
BRANCH   2  14
ATOM     14  CA  GLY A  2       -0.333  -4.156  -1.666  0.00  0.00    +0.320 C 
BRANCH  14  15
ATOM     15  C   GLY A  2       -1.666  -4.674  -2.142  0.00  0.00    +0.490 C 
ATOM     16  N   GLY A  3       -1.880  -6.001  -2.231  0.00  0.00    -0.680 N 
ATOM     17  H   GLY A  3       -1.176  -6.623  -1.989  0.00  0.00    +0.410 HD
ATOM     18  O   GLY A  2       -2.545  -3.896  -2.444  0.00  0.00    -0.560 OA
BRANCH  16  19
ATOM     19  CA  GLY A  3       -3.175  -6.505  -2.694  0.00  0.00    +0.190 C 
BRANCH  19  20
ATOM     20  C   GLY A  3       -3.155  -8.011  -2.702  0.00  0.00    +0.490 C 
ATOM     21  OXT GLY A  3       -4.142  -8.633  -3.057  0.00  0.00    -0.680 OA
ATOM     22  O   GLY A  3       -2.151  -8.610  -2.354  0.00  0.00    -0.690 OA
ENDBRANCH  19  20
ENDBRANCH  16  19
ENDBRANCH  14  15
ENDBRANCH   2  14
TORSDOF 8
ENDMDL
MODEL       52
REMARK  Name = ZINC000005030585
REMARK                            x       y       z     vdW  Elec       q    Type
REMARK                         _______ _______ _______ _____ _____    ______ ____
ROOT
ATOM      1  C1* LIG    1        2.425   1.222  -0.021  0.00  0.00    +0.400 C 
ATOM      2  O4* LIG    1        2.221  -0.206  -0.089  0.00  0.00    -0.300 OA
ATOM      3  C4* LIG    1        3.462  -0.743  -0.596  0.00  0.00    +0.130 C 
ATOM      4  C3* LIG    1        3.901   0.249  -1.696  0.00  0.00    +0.140 C 
ATOM      5  C2* LIG    1        3.204   1.574  -1.307  0.00  0.00    +0.170 C 
ENDROOT
BRANCH   1  12
ATOM      6  O   LIG    1        0.002  -0.004   0.002  0.00  0.00    -0.500 OA
ATOM      7  C   LIG    1       -0.015   1.216   0.009  0.00  0.00    +0.520 A 
ATOM      8  C   LIG    1       -1.236   1.919   0.030  0.00  0.00    -0.130 A 
ATOM      9  C   LIG    1       -1.205   3.281   0.037  0.00  0.00    +0.310 A 
ATOM     10  N   LIG    1       -0.032   3.919   0.023  0.00  0.00    -0.540 NA
ATOM     11  C   LIG    1        1.100   3.268   0.003  0.00  0.00    +0.590 A 
ATOM     12  N   LIG    1        1.137   1.921   0.002  0.00  0.00    -0.510 N 
ENDBRANCH   1  12
BRANCH   4  13
ATOM     13  O3* LIG    1        3.458  -0.198  -2.979  0.00  0.00    -0.540 OA
ATOM     14  H3* LIG    1        3.821  -1.054  -3.244  0.00  0.00    +0.380 HD
ENDBRANCH   4  13
BRANCH   5  15
ATOM     15  O2* LIG    1        2.308   1.990  -2.340  0.00  0.00    -0.530 OA
ATOM     16  H2* LIG    1        2.739   2.164  -3.188  0.00  0.00    +0.390 HD
ENDBRANCH   5  15
BRANCH   3  17
ATOM     17  C5* LIG    1        3.235  -2.135  -1.190  0.00  0.00    +0.210 C 
BRANCH  17  18
ATOM     18  O5* LIG    1        2.873  -3.044  -0.149  0.00  0.00    -0.560 OA
ATOM     19  H5* LIG    1        2.714  -3.948  -0.454  0.00  0.00    +0.380 HD
ENDBRANCH  17  18
ENDBRANCH   3  17
TORSDOF 5
ENDMDL
MODEL       53
REMARK  Name = ZINC000005030590
REMARK                            x       y       z     vdW  Elec       q    Type
REMARK                         _______ _______ _______ _____ _____    ______ ____
ROOT
ATOM      1  C1* LIG    1        2.425   1.222  -0.021  0.00  0.00    +0.440 C 
ATOM      2  O4* LIG    1        3.323   1.793   0.956  0.00  0.00    -0.330 OA
ATOM      3  C4* LIG    1        3.821   3.007   0.351  0.00  0.00    +0.120 C 
ATOM      4  C3* LIG    1        4.069   2.638  -1.128  0.00  0.00    +0.140 C 
ATOM      5  C2* LIG    1        3.128   1.435  -1.380  0.00  0.00    +0.200 C 
ENDROOT
BRANCH   1  12
ATOM      6  O   LIG    1        0.232   0.466  -1.433  0.00  0.00    -0.520 OA
ATOM      7  C   LIG    1        0.107   1.463  -0.742  0.00  0.00    +0.530 A 
ATOM      8  C   LIG    1       -1.119   2.159  -0.697  0.00  0.00    -0.120 A 
ATOM      9  C   LIG    1       -1.211   3.268   0.089  0.00  0.00    +0.310 A 
ATOM     10  N   LIG    1       -0.153   3.672   0.796  0.00  0.00    -0.540 NA
ATOM     11  C   LIG    1        0.983   3.027   0.755  0.00  0.00    +0.570 A 
ATOM     12  N   LIG    1        1.137   1.921   0.002  0.00  0.00    -0.530 N 
ENDBRANCH   1  12
BRANCH   4  13
ATOM     13  O3* LIG    1        5.433   2.261  -1.328  0.00  0.00    -0.550 OA
ATOM     14  H3* LIG    1        6.068   2.961  -1.127  0.00  0.00    +0.390 HD
ENDBRANCH   4  13
BRANCH   5  15
ATOM     15  O2* LIG    1        2.175   1.749  -2.398  0.00  0.00    -0.530 OA
ATOM     16  H2* LIG    1        2.570   1.951  -3.257  0.00  0.00    +0.390 HD
ENDBRANCH   5  15
BRANCH   3  17
ATOM     17  C5* LIG    1        5.126   3.439   1.022  0.00  0.00    +0.220 C 
BRANCH  17  18
ATOM     18  O5* LIG    1        4.865   3.816   2.375  0.00  0.00    -0.560 OA
ATOM     19  H5* LIG    1        5.650   4.102   2.862  0.00  0.00    +0.390 HD
ENDBRANCH  17  18
ENDBRANCH   3  17
TORSDOF 5
ENDMDL
MODEL       54
REMARK  Name = ZINC000218767022
REMARK                            x       y       z     vdW  Elec       q    Type
REMARK                         _______ _______ _______ _____ _____    ______ ____
ROOT
ATOM      1  N   THR A  1        2.096   0.011  -1.267  0.00  0.00    -0.490 N 
ATOM      2  H1  THR A  1        2.608  -0.389  -0.495  0.00  0.00    +0.420 HD
ATOM      3  H2  THR A  1        2.085   1.016  -1.179  0.00  0.00    +0.400 HD
ENDROOT
BRANCH   1   4
ATOM      4  CA  THR A  1        0.718  -0.497  -1.257  0.00  0.00    +0.050 C 
BRANCH   4   5
ATOM      5  C   THR A  1        0.739  -2.004  -1.265  0.00  0.00    +0.500 C 
ATOM      6  OXT THR A  1        1.666  -2.604  -0.749  0.00  0.00    -0.660 OA
ATOM      7  O   THR A  1       -0.172  -2.623  -1.788  0.00  0.00    -0.640 OA
ENDBRANCH   4   5
BRANCH   4   9
ATOM      8  CG2 THR A  1       -0.019   1.526   0.010  0.00  0.00    +0.020 C 
ATOM      9  CB  THR A  1        0.002  -0.004   0.002  0.00  0.00    +0.240 C 
BRANCH   9  10
ATOM     10  OG1 THR A  1        0.693  -0.477   1.160  0.00  0.00    -0.530 OA
ATOM     11  HG1 THR A  1        1.611  -0.180   1.219  0.00  0.00    +0.360 HD
ENDBRANCH   9  10
ENDBRANCH   4   9
ENDBRANCH   1   4
BRANCH   1  12
ATOM     12  C   UNK A  0        2.746  -0.362  -2.531  0.00  0.00    +0.350 C 
BRANCH  12  13
ATOM     13  C   UNK A  0        4.160   0.160  -2.541  0.00  0.00    -0.330 A 
ATOM     14  C   UNK A  0        4.445   1.423  -3.036  0.00  0.00    +0.400 A 
ATOM     15  N   UNK A  0        5.697   1.851  -3.030  0.00  0.00    -0.570 NA
ATOM     16  C   UNK A  0        6.671   1.087  -2.560  0.00  0.00    +0.580 A 
ATOM     17  N   UNK A  0        6.433  -0.125  -2.080  0.00  0.00    -0.560 NA
ATOM     18  C   UNK A  0        5.203  -0.611  -2.052  0.00  0.00    +0.420 A 
BRANCH  16  19
ATOM     19  N   UNK A  0        7.970   1.566  -2.569  0.00  0.00    -0.810 N 
ATOM     20  H   UNK A  0        8.692   1.016  -2.227  0.00  0.00    +0.420 HD
ATOM     21  H   UNK A  0        8.158   2.452  -2.917  0.00  0.00    +0.420 HD
ENDBRANCH  16  19
ENDBRANCH  12  13
ENDBRANCH   1  12
TORSDOF 7
ENDMDL
MODEL       55
REMARK  Name = ZINC000004342824
REMARK                            x       y       z     vdW  Elec       q    Type
REMARK                         _______ _______ _______ _____ _____    ______ ____
ROOT
ATOM      1  C1* LIG    1       -0.047   5.392   0.031  0.00  0.00    +0.480 C 
ATOM      2  O4* LIG    1       -0.481   5.903  -1.248  0.00  0.00    -0.350 OA
ATOM      3  C4* LIG    1       -0.908   7.258  -0.991  0.00  0.00    +0.190 C 
ATOM      4  C3* LIG    1       -1.663   7.185   0.355  0.00  0.00    +0.140 C 
ATOM      5  C2* LIG    1       -1.082   5.929   1.045  0.00  0.00    +0.140 C 
ENDROOT
BRANCH   1  10
ATOM      6  O   LIG    1        0.002  -0.004   0.002  0.00  0.00    -0.470 OA
ATOM      7  C   LIG    1       -0.014   1.213   0.009  0.00  0.00    +0.520 A 
ATOM      8  C   LIG    1       -1.288   1.938   0.031  0.00  0.00    +0.290 A 
ATOM      9  N   LIG    1       -1.275   3.242   0.038  0.00  0.00    -0.160 NA
ATOM     10  N   LIG    1       -0.054   3.927   0.024  0.00  0.00    -0.440 N 
ATOM     11  C   LIG    1        1.112   3.258   0.004  0.00  0.00    +0.690 A 
ATOM     12  O   LIG    1        2.158   3.878  -0.007  0.00  0.00    -0.520 OA
ATOM     13  N   LIG    1        1.140   1.912   0.001  0.00  0.00    -0.660 N 
ATOM     14  H   LIG    1        1.989   1.444  -0.013  0.00  0.00    +0.440 HD
ENDBRANCH   1  10
BRANCH   4  15
ATOM     15  O3* LIG    1       -3.067   7.036   0.134  0.00  0.00    -0.540 OA
ATOM     16  H3* LIG    1       -3.590   6.985   0.946  0.00  0.00    +0.390 HD
ENDBRANCH   4  15
BRANCH   5  17
ATOM     17  O2* LIG    1       -0.449   6.282   2.276  0.00  0.00    -0.550 OA
ATOM     18  H2* LIG    1       -1.045   6.679   2.926  0.00  0.00    +0.390 HD
ENDBRANCH   5  17
BRANCH   3  19
ATOM     19  C5* LIG    1       -1.842   7.742  -2.102  0.00  0.00    +0.230 C 
BRANCH  19  20
ATOM     20  O5* LIG    1       -1.112   7.844  -3.327  0.00  0.00    -0.570 OA
ATOM     21  H5* LIG    1       -1.643   8.146  -4.077  0.00  0.00    +0.380 HD
ENDBRANCH  19  20
ENDBRANCH   3  19
TORSDOF 5
ENDMDL
MODEL       56
REMARK  Name = ZINC000005395928
REMARK                            x       y       z     vdW  Elec       q    Type
REMARK                         _______ _______ _______ _____ _____    ______ ____
ROOT
ATOM      1  O   LIG    1        0.002  -0.004   0.002  0.00  0.00    -0.450 OA
ATOM      2  C   LIG    1       -0.015   1.217   0.009  0.00  0.00    +0.510 A 
ATOM      3  C   LIG    1       -1.288   1.941   0.031  0.00  0.00    +0.270 A 
ATOM      4  N   LIG    1       -1.267   3.244   0.006  0.00  0.00    -0.160 NA
ATOM      5  N   LIG    1       -0.047   3.929  -0.047  0.00  0.00    -0.450 N 
ATOM      6  C   LIG    1        1.137   3.223  -0.018  0.00  0.00    +0.590 A 
ATOM      7  O   LIG    1        2.220   4.078   0.013  0.00  0.00    -0.250 OA
ATOM      8  C   LIG    1        1.698   5.256   0.659  0.00  0.00    +0.150 C 
ATOM      9  C   LIG    1        2.204   6.649   0.323  0.00  0.00    +0.210 C 
ATOM     10  C   LIG    1        0.885   7.463   0.164  0.00  0.00    +0.180 C 
ATOM     11  O   LIG    1       -0.211   6.502   0.274  0.00  0.00    -0.320 OA
ATOM     12  C   LIG    1        0.336   5.298  -0.140  0.00  0.00    +0.390 C 
ATOM     13  N   LIG    1        1.130   1.909   0.002  0.00  0.00    -0.570 NA
ENDROOT
BRANCH   9  14
ATOM     14  O   LIG    1        3.000   7.170   1.390  0.00  0.00    -0.540 OA
ATOM     15  H   LIG    1        3.347   8.058   1.224  0.00  0.00    +0.400 HD
ENDBRANCH   9  14
BRANCH  10  16
ATOM     16  C   LIG    1        0.779   8.511   1.273  0.00  0.00    +0.220 C 
BRANCH  16  17
ATOM     17  O   LIG    1       -0.374   9.325   1.049  0.00  0.00    -0.570 OA
ATOM     18  H   LIG    1       -0.505  10.014   1.715  0.00  0.00    +0.390 HD
ENDBRANCH  16  17
ENDBRANCH  10  16
TORSDOF 3
ENDMDL
MODEL       57
REMARK  Name = ZINC000001724890
REMARK                            x       y       z     vdW  Elec       q    Type
REMARK                         _______ _______ _______ _____ _____    ______ ____
ROOT
ATOM      1  C1* LIG    1        2.430   1.203  -0.021  0.00  0.00    +0.450 C 
ATOM      2  O4* LIG    1        2.413   0.154  -1.013  0.00  0.00    -0.320 OA
ATOM      3  C4* LIG    1        1.679  -0.932  -0.406  0.00  0.00    +0.110 C 
ATOM      4  C3* LIG    1        2.162  -0.963   1.062  0.00  0.00    +0.130 C 
ATOM      5  C2* LIG    1        2.669   0.477   1.322  0.00  0.00    +0.180 C 
ENDROOT
BRANCH   1  13
ATOM      6  O   LIG    1        1.875   3.375   1.505  0.00  0.00    -0.470 OA
ATOM      7  C   LIG    1        0.963   2.979   0.799  0.00  0.00    +0.610 A 
ATOM      8  N   LIG    1       -0.217   3.613   0.810  0.00  0.00    -0.290 NA
ATOM      9  N   LIG    1       -1.194   3.215   0.073  0.00  0.00    +0.160 N 
ATOM     10  C   LIG    1       -1.067   2.158  -0.727  0.00  0.00    +0.110 A 
ATOM     11  C   LIG    1        0.110   1.480  -0.774  0.00  0.00    +0.440 A 
ATOM     12  O   LIG    1       -2.425   3.913   0.115  0.00  0.00    -0.380 OA
ATOM     13  N   LIG    1        1.145   1.906   0.001  0.00  0.00    -0.510 N 
ENDBRANCH   1  13
BRANCH   4  14
ATOM     14  O3* LIG    1        3.224  -1.906   1.219  0.00  0.00    -0.540 OA
ATOM     15  H3* LIG    1        2.975  -2.817   1.011  0.00  0.00    +0.390 HD
ENDBRANCH   4  14
BRANCH   5  16
ATOM     16  O2* LIG    1        4.060   0.466   1.650  0.00  0.00    -0.530 OA
ATOM     17  H2* LIG    1        4.271  -0.030   2.453  0.00  0.00    +0.400 HD
ENDBRANCH   5  16
BRANCH   3  18
ATOM     18  C5* LIG    1        2.007  -2.253  -1.105  0.00  0.00    +0.220 C 
BRANCH  18  19
ATOM     19  O5* LIG    1        1.513  -2.218  -2.445  0.00  0.00    -0.570 OA
ATOM     20  H5* LIG    1        1.686  -3.025  -2.949  0.00  0.00    +0.390 HD
ENDBRANCH  18  19
ENDBRANCH   3  18
TORSDOF 5
ENDMDL
MODEL       58
REMARK  Name = ZINC000004160021
REMARK                            x       y       z     vdW  Elec       q    Type
REMARK                         _______ _______ _______ _____ _____    ______ ____
ROOT
ATOM      1  C   LIG    1       -0.047   5.392   0.031  0.00  0.00    +0.480 C 
ATOM      2  O   LIG    1       -0.413   5.877  -1.262  0.00  0.00    -0.370 OA
ATOM      3  C   LIG    1       -0.413   7.301  -1.373  0.00  0.00    +0.220 C 
ATOM      4  C   LIG    1       -1.431   7.888  -0.392  0.00  0.00    +0.110 C 
ATOM      5  C   LIG    1       -1.082   7.432   1.028  0.00  0.00    +0.160 C 
ATOM      6  C   LIG    1       -1.051   5.902   1.069  0.00  0.00    +0.160 C 
ENDROOT
BRANCH   1  11
ATOM      7  O   LIG    1        0.002  -0.004   0.002  0.00  0.00    -0.480 OA
ATOM      8  C   LIG    1       -0.014   1.213   0.009  0.00  0.00    +0.520 A 
ATOM      9  C   LIG    1       -1.288   1.938   0.031  0.00  0.00    +0.260 A 
ATOM     10  N   LIG    1       -1.275   3.242   0.038  0.00  0.00    -0.110 NA
ATOM     11  N   LIG    1       -0.054   3.927   0.024  0.00  0.00    -0.440 N 
ATOM     12  C   LIG    1        1.112   3.258   0.004  0.00  0.00    +0.690 A 
ATOM     13  O   LIG    1        2.158   3.878  -0.007  0.00  0.00    -0.530 OA
ATOM     14  N   LIG    1        1.140   1.912   0.001  0.00  0.00    -0.660 N 
ATOM     15  H   LIG    1        1.989   1.444  -0.013  0.00  0.00    +0.440 HD
ENDBRANCH   1  11
BRANCH   5  16
ATOM     16  O   LIG    1       -2.068   7.917   1.942  0.00  0.00    -0.550 OA
ATOM     17  H   LIG    1       -2.146   8.880   1.963  0.00  0.00    +0.390 HD
ENDBRANCH   5  16
BRANCH   4  18
ATOM     18  O   LIG    1       -2.741   7.430  -0.733  0.00  0.00    -0.530 OA
ATOM     19  H   LIG    1       -3.026   7.680  -1.623  0.00  0.00    +0.380 HD
ENDBRANCH   4  18
BRANCH   6  20
ATOM     20  O   LIG    1       -2.351   5.389   0.769  0.00  0.00    -0.510 OA
ATOM     21  H   LIG    1       -3.039   5.677   1.385  0.00  0.00    +0.380 HD
ENDBRANCH   6  20
TORSDOF 4
ENDMDL
MODEL       59
REMARK  Name = ZINC000005395929
REMARK                            x       y       z     vdW  Elec       q    Type
REMARK                         _______ _______ _______ _____ _____    ______ ____
ROOT
ATOM      1  O   LIG    1        0.002  -0.004   0.002  0.00  0.00    -0.470 OA
ATOM      2  C   LIG    1       -0.015   1.217   0.009  0.00  0.00    +0.510 A 
ATOM      3  C   LIG    1       -1.290   1.938   0.031  0.00  0.00    +0.260 A 
ATOM      4  N   LIG    1       -1.264   3.242   0.040  0.00  0.00    -0.160 NA
ATOM      5  N   LIG    1       -0.031   3.914   0.030  0.00  0.00    -0.460 N 
ATOM      6  C   LIG    1        1.136   3.233   0.005  0.00  0.00    +0.600 A 
ATOM      7  O   LIG    1        2.214   4.046  -0.010  0.00  0.00    -0.240 OA
ATOM      8  C   LIG    1        1.793   5.435  -0.013  0.00  0.00    +0.220 C 
ATOM      9  C   LIG    1        2.205   6.105   1.318  0.00  0.00    +0.180 C 
ATOM     10  C   LIG    1        0.898   6.825   1.738  0.00  0.00    +0.150 C 
ATOM     11  O   LIG    1       -0.137   5.904   1.336  0.00  0.00    -0.340 OA
ATOM     12  C   LIG    1        0.249   5.361   0.045  0.00  0.00    +0.440 C 
ATOM     13  N   LIG    1        1.129   1.905   0.002  0.00  0.00    -0.590 NA
ENDROOT
BRANCH   9  14
ATOM     14  O   LIG    1        2.584   5.124   2.286  0.00  0.00    -0.530 OA
ATOM     15  H   LIG    1        2.851   5.495   3.138  0.00  0.00    +0.390 HD
ENDBRANCH   9  14
BRANCH  10  16
ATOM     16  C   LIG    1        0.868   7.048   3.252  0.00  0.00    +0.210 C 
BRANCH  16  17
ATOM     17  O   LIG    1       -0.288   7.813   3.597  0.00  0.00    -0.560 OA
ATOM     18  H   LIG    1       -0.372   7.993   4.544  0.00  0.00    +0.390 HD
ENDBRANCH  16  17
ENDBRANCH  10  16
TORSDOF 3
ENDMDL
MODEL       60
REMARK  Name = ZINC000005047985
REMARK                            x       y       z     vdW  Elec       q    Type
REMARK                         _______ _______ _______ _____ _____    ______ ____
ROOT
ATOM      1  C   LIG    1        1.673  -2.503  -2.400  0.00  0.00    +0.170 C 
ENDROOT
BRANCH   1   2
ATOM      2  O   LIG    1        1.021  -2.122  -3.613  0.00  0.00    -0.540 OA
ATOM      3  H   LIG    1        0.132  -2.488  -3.714  0.00  0.00    +0.380 HD
ENDBRANCH   1   2
BRANCH   1   4
ATOM      4  C   LIG    1        0.849  -2.021  -1.205  0.00  0.00    +0.170 C 
BRANCH   4   5
ATOM      5  O   LIG    1        1.502  -2.402   0.008  0.00  0.00    -0.510 OA
ATOM      6  H   LIG    1        2.391  -2.035   0.108  0.00  0.00    +0.360 HD
ENDBRANCH   4   5
BRANCH   4   7
ATOM      7  C   LIG    1        0.718  -0.497  -1.257  0.00  0.00    +0.160 C 
BRANCH   7   9
ATOM      8  C   LIG    1       -0.019   1.526   0.010  0.00  0.00    +0.010 C 
ATOM      9  C   LIG    1        0.002  -0.004   0.002  0.00  0.00    +0.180 C 
BRANCH   9  10
ATOM     10  O   LIG    1        0.693  -0.477   1.160  0.00  0.00    -0.540 OA
ATOM     11  H   LIG    1        1.611  -0.180   1.219  0.00  0.00    +0.360 HD
ENDBRANCH   9  10
ENDBRANCH   7   9
BRANCH   7  12
ATOM     12  O   LIG    1        2.019   0.090  -1.326  0.00  0.00    -0.550 OA
ATOM     13  H   LIG    1        2.587  -0.122  -0.573  0.00  0.00    +0.370 HD
ENDBRANCH   7  12
ENDBRANCH   4   7
ENDBRANCH   1   4
BRANCH   1  14
ATOM     14  C   LIG    1        1.805  -4.026  -2.349  0.00  0.00    +0.190 C 
BRANCH  14  15
ATOM     15  C   LIG    1        2.616  -4.501  -3.526  0.00  0.00    +0.490 C 
ATOM     16  O   LIG    1        3.695  -5.026  -3.347  0.00  0.00    -0.540 OA
ATOM     17  N   LIG    1        2.144  -4.343  -4.778  0.00  0.00    -0.840 N 
ATOM     18  H   LIG    1        2.666  -4.649  -5.536  0.00  0.00    +0.400 HD
ATOM     19  H   LIG    1        1.281  -3.924  -4.921  0.00  0.00    +0.400 HD
ENDBRANCH  14  15
BRANCH  14  20
ATOM     20  O   LIG    1        2.457  -4.407  -1.136  0.00  0.00    -0.510 OA
ATOM     21  H   LIG    1        3.346  -4.041  -1.035  0.00  0.00    +0.380 HD
ENDBRANCH  14  20
ENDBRANCH   1  14
TORSDOF 10
ENDMDL
MODEL       61
REMARK  Name = ZINC000011691714
REMARK                            x       y       z     vdW  Elec       q    Type
REMARK                         _______ _______ _______ _____ _____    ______ ____
ROOT
ATOM      1  C   LIG    1       -0.047   5.392   0.031  0.00  0.00    +0.470 C 
ATOM      2  O   LIG    1       -0.413   5.877  -1.262  0.00  0.00    -0.370 OA
ATOM      3  C   LIG    1       -0.413   7.301  -1.373  0.00  0.00    +0.230 C 
ATOM      4  C   LIG    1       -1.431   7.888  -0.392  0.00  0.00    +0.120 C 
ATOM      5  C   LIG    1       -1.082   7.432   1.028  0.00  0.00    +0.160 C 
ATOM      6  C   LIG    1       -1.051   5.902   1.069  0.00  0.00    +0.180 C 
ENDROOT
BRANCH   1  11
ATOM      7  O   LIG    1        0.002  -0.004   0.002  0.00  0.00    -0.480 OA
ATOM      8  C   LIG    1       -0.014   1.213   0.009  0.00  0.00    +0.520 A 
ATOM      9  C   LIG    1       -1.288   1.938   0.031  0.00  0.00    +0.280 A 
ATOM     10  N   LIG    1       -1.275   3.242   0.038  0.00  0.00    -0.160 NA
ATOM     11  N   LIG    1       -0.054   3.927   0.024  0.00  0.00    -0.430 N 
ATOM     12  C   LIG    1        1.112   3.258   0.004  0.00  0.00    +0.690 A 
ATOM     13  O   LIG    1        2.158   3.878  -0.007  0.00  0.00    -0.530 OA
ATOM     14  N   LIG    1        1.140   1.912   0.001  0.00  0.00    -0.650 N 
ATOM     15  H   LIG    1        1.989   1.444  -0.013  0.00  0.00    +0.440 HD
ENDBRANCH   1  11
BRANCH   5  16
ATOM     16  O   LIG    1       -2.068   7.917   1.942  0.00  0.00    -0.560 OA
ATOM     17  H   LIG    1       -2.146   8.880   1.963  0.00  0.00    +0.400 HD
ENDBRANCH   5  16
BRANCH   4  18
ATOM     18  O   LIG    1       -1.393   9.315  -0.460  0.00  0.00    -0.560 OA
ATOM     19  H   LIG    1       -1.601   9.673  -1.334  0.00  0.00    +0.390 HD
ENDBRANCH   4  18
BRANCH   6  20
ATOM     20  O   LIG    1       -0.657   5.466   2.371  0.00  0.00    -0.550 OA
ATOM     21  H   LIG    1       -1.247   5.758   3.079  0.00  0.00    +0.400 HD
ENDBRANCH   6  20
TORSDOF 4
ENDMDL
MODEL       62
REMARK  Name = ZINC000004160022
REMARK                            x       y       z     vdW  Elec       q    Type
REMARK                         _______ _______ _______ _____ _____    ______ ____
ROOT
ATOM      1  C   LIG    1       -0.047   5.392   0.031  0.00  0.00    +0.480 C 
ATOM      2  O   LIG    1       -0.376   5.863   1.340  0.00  0.00    -0.380 OA
ATOM      3  C   LIG    1       -0.372   7.286   1.465  0.00  0.00    +0.230 C 
ATOM      4  C   LIG    1       -1.418   7.883   0.520  0.00  0.00    +0.120 C 
ATOM      5  C   LIG    1       -1.110   7.443  -0.914  0.00  0.00    +0.160 C 
ATOM      6  C   LIG    1       -1.081   5.912  -0.971  0.00  0.00    +0.190 C 
ENDROOT
BRANCH   1  11
ATOM      7  O   LIG    1        0.002  -0.004   0.002  0.00  0.00    -0.480 OA
ATOM      8  C   LIG    1       -0.014   1.213   0.009  0.00  0.00    +0.520 A 
ATOM      9  C   LIG    1       -1.288   1.938   0.031  0.00  0.00    +0.280 A 
ATOM     10  N   LIG    1       -1.275   3.242   0.038  0.00  0.00    -0.160 NA
ATOM     11  N   LIG    1       -0.054   3.927   0.024  0.00  0.00    -0.430 N 
ATOM     12  C   LIG    1        1.112   3.258   0.004  0.00  0.00    +0.690 A 
ATOM     13  O   LIG    1        2.158   3.878  -0.007  0.00  0.00    -0.520 OA
ATOM     14  N   LIG    1        1.140   1.912   0.001  0.00  0.00    -0.660 N 
ATOM     15  H   LIG    1        1.989   1.444  -0.013  0.00  0.00    +0.440 HD
ENDBRANCH   1  11
BRANCH   5  16
ATOM     16  O   LIG    1        0.161   7.962  -1.311  0.00  0.00    -0.550 OA
ATOM     17  H   LIG    1        0.214   8.927  -1.292  0.00  0.00    +0.390 HD
ENDBRANCH   5  16
BRANCH   4  18
ATOM     18  O   LIG    1       -1.378   9.309   0.602  0.00  0.00    -0.560 OA
ATOM     19  H   LIG    1       -1.560   9.658   1.486  0.00  0.00    +0.390 HD
ENDBRANCH   4  18
BRANCH   6  20
ATOM     20  O   LIG    1       -0.724   5.491  -2.289  0.00  0.00    -0.540 OA
ATOM     21  H   LIG    1       -1.335   5.790  -2.977  0.00  0.00    +0.390 HD
ENDBRANCH   6  20
TORSDOF 4
ENDMDL
MODEL       63
REMARK  Name = ZINC000001859286
REMARK                            x       y       z     vdW  Elec       q    Type
REMARK                         _______ _______ _______ _____ _____    ______ ____
ROOT
ATOM      1  O   LIG    1        0.002  -0.004   0.002  0.00  0.00    -0.460 OA
ATOM      2  C   LIG    1       -0.015   1.217   0.009  0.00  0.00    +0.510 A 
ATOM      3  C   LIG    1       -1.289   1.938   0.031  0.00  0.00    +0.260 A 
ATOM      4  N   LIG    1       -1.264   3.242   0.039  0.00  0.00    -0.150 NA
ATOM      5  N   LIG    1       -0.031   3.915   0.027  0.00  0.00    -0.470 N 
ATOM      6  C   LIG    1        1.136   3.233   0.004  0.00  0.00    +0.580 A 
ATOM      7  O   LIG    1        2.215   4.046  -0.007  0.00  0.00    -0.250 OA
ATOM      8  C   LIG    1        1.795   5.436   0.003  0.00  0.00    +0.240 C 
ATOM      9  C   LIG    1        2.125   6.074  -1.368  0.00  0.00    +0.180 C 
ATOM     10  C   LIG    1        0.834   5.795  -2.179  0.00  0.00    +0.120 C 
ATOM     11  O   LIG    1       -0.217   5.955  -1.202  0.00  0.00    -0.330 OA
ATOM     12  C   LIG    1        0.250   5.360   0.038  0.00  0.00    +0.460 C 
ATOM     13  N   LIG    1        1.129   1.905   0.002  0.00  0.00    -0.590 NA
ENDROOT
BRANCH   9  14
ATOM     14  O   LIG    1        2.354   7.478  -1.235  0.00  0.00    -0.540 OA
ATOM     15  H   LIG    1        2.564   7.923  -2.067  0.00  0.00    +0.400 HD
ENDBRANCH   9  14
BRANCH  10  16
ATOM     16  C   LIG    1        0.680   6.811  -3.312  0.00  0.00    +0.220 C 
BRANCH  16  17
ATOM     17  O   LIG    1       -0.452   6.463  -4.113  0.00  0.00    -0.560 OA
ATOM     18  H   LIG    1       -0.611   7.065  -4.852  0.00  0.00    +0.390 HD
ENDBRANCH  16  17
ENDBRANCH  10  16
TORSDOF 3
ENDMDL
MODEL       64
REMARK  Name = ZINC000005395930
REMARK                            x       y       z     vdW  Elec       q    Type
REMARK                         _______ _______ _______ _____ _____    ______ ____
ROOT
ATOM      1  O   LIG    1        0.002  -0.004   0.002  0.00  0.00    -0.460 OA
ATOM      2  C   LIG    1       -0.015   1.217   0.009  0.00  0.00    +0.510 A 
ATOM      3  C   LIG    1       -1.290   1.938   0.031  0.00  0.00    +0.250 A 
ATOM      4  N   LIG    1       -1.269   3.243   0.087  0.00  0.00    -0.150 NA
ATOM      5  N   LIG    1       -0.046   3.914   0.132  0.00  0.00    -0.460 N 
ATOM      6  C   LIG    1        1.136   3.221   0.034  0.00  0.00    +0.580 A 
ATOM      7  O   LIG    1        2.209   4.089  -0.048  0.00  0.00    -0.230 OA
ATOM      8  C   LIG    1        1.633   5.241  -0.613  0.00  0.00    +0.140 C 
ATOM      9  C   LIG    1        2.008   6.688  -0.571  0.00  0.00    +0.230 C 
ATOM     10  C   LIG    1        0.601   7.334  -0.794  0.00  0.00    +0.180 C 
ATOM     11  O   LIG    1       -0.382   6.329  -0.423  0.00  0.00    -0.330 OA
ATOM     12  C   LIG    1        0.328   5.318   0.288  0.00  0.00    +0.430 C 
ATOM     13  N   LIG    1        1.132   1.907   0.002  0.00  0.00    -0.570 NA
ENDROOT
BRANCH   9  14
ATOM     14  O   LIG    1        2.551   7.048   0.701  0.00  0.00    -0.540 OA
ATOM     15  H   LIG    1        2.807   7.978   0.771  0.00  0.00    +0.400 HD
ENDBRANCH   9  14
BRANCH  10  16
ATOM     16  C   LIG    1        0.446   8.572   0.091  0.00  0.00    +0.200 C 
BRANCH  16  17
ATOM     17  O   LIG    1       -0.793   9.218  -0.206  0.00  0.00    -0.560 OA
ATOM     18  H   LIG    1       -0.958  10.013   0.319  0.00  0.00    +0.390 HD
ENDBRANCH  16  17
ENDBRANCH  10  16
TORSDOF 3
ENDMDL
MODEL       65
REMARK  Name = ZINC000004160023
REMARK                            x       y       z     vdW  Elec       q    Type
REMARK                         _______ _______ _______ _____ _____    ______ ____
ROOT
ATOM      1  C   LIG    1       -0.047   5.392   0.031  0.00  0.00    +0.480 C 
ATOM      2  O   LIG    1       -0.413   5.877  -1.262  0.00  0.00    -0.370 OA
ATOM      3  C   LIG    1       -0.413   7.301  -1.373  0.00  0.00    +0.230 C 
ATOM      4  C   LIG    1       -1.431   7.888  -0.392  0.00  0.00    +0.120 C 
ATOM      5  C   LIG    1       -1.082   7.432   1.028  0.00  0.00    +0.160 C 
ATOM      6  C   LIG    1       -1.051   5.902   1.069  0.00  0.00    +0.190 C 
ENDROOT
BRANCH   1  11
ATOM      7  O   LIG    1        0.002  -0.004   0.002  0.00  0.00    -0.480 OA
ATOM      8  C   LIG    1       -0.014   1.213   0.009  0.00  0.00    +0.520 A 
ATOM      9  C   LIG    1       -1.288   1.938   0.031  0.00  0.00    +0.280 A 
ATOM     10  N   LIG    1       -1.275   3.242   0.038  0.00  0.00    -0.150 NA
ATOM     11  N   LIG    1       -0.054   3.927   0.024  0.00  0.00    -0.430 N 
ATOM     12  C   LIG    1        1.112   3.258   0.004  0.00  0.00    +0.690 A 
ATOM     13  O   LIG    1        2.158   3.878  -0.007  0.00  0.00    -0.530 OA
ATOM     14  N   LIG    1        1.140   1.912   0.001  0.00  0.00    -0.660 N 
ATOM     15  H   LIG    1        1.989   1.444  -0.013  0.00  0.00    +0.440 HD
ENDBRANCH   1  11
BRANCH   5  16
ATOM     16  O   LIG    1       -2.068   7.917   1.942  0.00  0.00    -0.550 OA
ATOM     17  H   LIG    1       -2.146   8.880   1.963  0.00  0.00    +0.390 HD
ENDBRANCH   5  16
BRANCH   4  18
ATOM     18  O   LIG    1       -2.741   7.430  -0.733  0.00  0.00    -0.540 OA
ATOM     19  H   LIG    1       -3.026   7.680  -1.623  0.00  0.00    +0.380 HD
ENDBRANCH   4  18
BRANCH   6  20
ATOM     20  O   LIG    1       -0.657   5.466   2.371  0.00  0.00    -0.560 OA
ATOM     21  H   LIG    1       -1.247   5.758   3.079  0.00  0.00    +0.390 HD
ENDBRANCH   6  20
TORSDOF 4
ENDMDL
MODEL       66
REMARK  Name = ZINC000004160024
REMARK                            x       y       z     vdW  Elec       q    Type
REMARK                         _______ _______ _______ _____ _____    ______ ____
ROOT
ATOM      1  C   LIG    1       -0.047   5.392   0.031  0.00  0.00    +0.510 C 
ATOM      2  O   LIG    1       -0.488   5.864   1.306  0.00  0.00    -0.350 OA
ATOM      3  C   LIG    1       -1.799   5.426   1.669  0.00  0.00    +0.200 C 
ATOM      4  C   LIG    1       -2.811   5.948   0.646  0.00  0.00    +0.110 C 
ATOM      5  C   LIG    1       -2.417   5.452  -0.749  0.00  0.00    +0.180 C 
ATOM      6  C   LIG    1       -0.989   5.912  -1.058  0.00  0.00    +0.190 C 
ENDROOT
BRANCH   1  11
ATOM      7  O   LIG    1        0.002  -0.004   0.006  0.00  0.00    -0.480 OA
ATOM      8  C   LIG    1       -0.015   1.213   0.012  0.00  0.00    +0.520 A 
ATOM      9  C   LIG    1       -1.287   1.938  -0.038  0.00  0.00    +0.280 A 
ATOM     10  N   LIG    1       -1.274   3.242  -0.031  0.00  0.00    -0.180 NA
ATOM     11  N   LIG    1       -0.054   3.927   0.024  0.00  0.00    -0.450 N 
ATOM     12  C   LIG    1        1.111   3.257   0.069  0.00  0.00    +0.690 A 
ATOM     13  O   LIG    1        2.156   3.877   0.117  0.00  0.00    -0.520 OA
ATOM     14  N   LIG    1        1.138   1.911   0.069  0.00  0.00    -0.660 N 
ATOM     15  H   LIG    1        1.987   1.444   0.103  0.00  0.00    +0.440 HD
ENDBRANCH   1  11
BRANCH   5  16
ATOM     16  O   LIG    1       -3.316   5.994  -1.720  0.00  0.00    -0.560 OA
ATOM     17  H   LIG    1       -4.240   5.747  -1.581  0.00  0.00    +0.380 HD
ENDBRANCH   5  16
BRANCH   4  18
ATOM     18  O   LIG    1       -2.814   7.377   0.663  0.00  0.00    -0.550 OA
ATOM     19  H   LIG    1       -3.051   7.759   1.519  0.00  0.00    +0.380 HD
ENDBRANCH   4  18
BRANCH   6  20
ATOM     20  O   LIG    1       -0.585   5.396  -2.328  0.00  0.00    -0.560 OA
ATOM     21  H   LIG    1       -1.142   5.682  -3.064  0.00  0.00    +0.400 HD
ENDBRANCH   6  20
TORSDOF 4
ENDMDL
MODEL       67
REMARK  Name = ZINC000005189524
REMARK                            x       y       z     vdW  Elec       q    Type
REMARK                         _______ _______ _______ _____ _____    ______ ____
ROOT
ATOM      1  C1* LIG    1        2.430   1.203  -0.021  0.00  0.00    +0.460 C 
ATOM      2  O4* LIG    1        2.413   0.154  -1.013  0.00  0.00    -0.320 OA
ATOM      3  C4* LIG    1        1.679  -0.932  -0.406  0.00  0.00    +0.110 C 
ATOM      4  C3* LIG    1        2.162  -0.963   1.062  0.00  0.00    +0.140 C 
ATOM      5  C2* LIG    1        2.669   0.477   1.322  0.00  0.00    +0.200 C 
ENDROOT
BRANCH   1  13
ATOM      6  O   LIG    1        1.910   3.443   1.417  0.00  0.00    -0.460 OA
ATOM      7  C   LIG    1        0.982   3.015   0.753  0.00  0.00    +0.620 A 
ATOM      8  N   LIG    1       -0.198   3.648   0.764  0.00  0.00    -0.290 NA
ATOM      9  N   LIG    1       -1.193   3.216   0.072  0.00  0.00    +0.160 N 
ATOM     10  C   LIG    1       -1.085   2.123  -0.682  0.00  0.00    +0.100 A 
ATOM     11  C   LIG    1        0.092   1.444  -0.727  0.00  0.00    +0.430 A 
ATOM     12  O   LIG    1       -2.424   3.915   0.112  0.00  0.00    -0.390 OA
ATOM     13  N   LIG    1        1.145   1.906   0.001  0.00  0.00    -0.500 N 
ENDBRANCH   1  13
BRANCH   4  14
ATOM     14  O3* LIG    1        3.224  -1.906   1.219  0.00  0.00    -0.540 OA
ATOM     15  H3* LIG    1        2.975  -2.817   1.011  0.00  0.00    +0.390 HD
ENDBRANCH   4  14
BRANCH   5  16
ATOM     16  O2* LIG    1        1.916   1.091   2.369  0.00  0.00    -0.540 OA
ATOM     17  H2* LIG    1        1.982   0.637   3.220  0.00  0.00    +0.400 HD
ENDBRANCH   5  16
BRANCH   3  18
ATOM     18  C5* LIG    1        2.007  -2.253  -1.105  0.00  0.00    +0.220 C 
BRANCH  18  19
ATOM     19  O5* LIG    1        1.513  -2.218  -2.445  0.00  0.00    -0.570 OA
ATOM     20  H5* LIG    1        1.686  -3.025  -2.949  0.00  0.00    +0.390 HD
ENDBRANCH  18  19
ENDBRANCH   3  18
TORSDOF 5
ENDMDL
MODEL       68
REMARK  Name = ZINC000004342826
REMARK                            x       y       z     vdW  Elec       q    Type
REMARK                         _______ _______ _______ _____ _____    ______ ____
ROOT
ATOM      1  C1* LIG    1       -0.047   5.392   0.031  0.00  0.00    +0.490 C 
ATOM      2  O4* LIG    1       -0.444   5.889   1.328  0.00  0.00    -0.340 OA
ATOM      3  C4* LIG    1       -1.882   5.764   1.360  0.00  0.00    +0.180 C 
ATOM      4  C3* LIG    1       -2.347   6.190  -0.050  0.00  0.00    +0.140 C 
ATOM      5  C2* LIG    1       -1.110   5.939  -0.947  0.00  0.00    +0.150 C 
ENDROOT
BRANCH   1  10
ATOM      6  O   LIG    1        0.002  -0.004   0.002  0.00  0.00    -0.480 OA
ATOM      7  C   LIG    1       -0.014   1.213   0.009  0.00  0.00    +0.520 A 
ATOM      8  C   LIG    1       -1.288   1.938   0.031  0.00  0.00    +0.270 A 
ATOM      9  N   LIG    1       -1.275   3.242   0.038  0.00  0.00    -0.150 NA
ATOM     10  N   LIG    1       -0.054   3.927   0.024  0.00  0.00    -0.440 N 
ATOM     11  C   LIG    1        1.112   3.258   0.004  0.00  0.00    +0.690 A 
ATOM     12  O   LIG    1        2.158   3.878  -0.007  0.00  0.00    -0.530 OA
ATOM     13  N   LIG    1        1.140   1.912   0.001  0.00  0.00    -0.660 N 
ATOM     14  H   LIG    1        1.989   1.444  -0.013  0.00  0.00    +0.440 HD
ENDBRANCH   1  10
BRANCH   4  15
ATOM     15  O3* LIG    1       -2.705   7.574  -0.063  0.00  0.00    -0.550 OA
ATOM     16  H3* LIG    1       -3.005   7.894  -0.924  0.00  0.00    +0.380 HD
ENDBRANCH   4  15
BRANCH   5  17
ATOM     17  O2* LIG    1       -1.412   4.975  -1.957  0.00  0.00    -0.540 OA
ATOM     18  H2* LIG    1       -2.117   5.245  -2.561  0.00  0.00    +0.390 HD
ENDBRANCH   5  17
BRANCH   3  19
ATOM     19  C5* LIG    1       -2.474   6.693   2.422  0.00  0.00    +0.220 C 
BRANCH  19  20
ATOM     20  O5* LIG    1       -2.067   6.254   3.719  0.00  0.00    -0.570 OA
ATOM     21  H5* LIG    1       -2.406   6.798   4.443  0.00  0.00    +0.380 HD
ENDBRANCH  19  20
ENDBRANCH   3  19
TORSDOF 5
ENDMDL
MODEL       69
REMARK  Name = ZINC000005189519
REMARK                            x       y       z     vdW  Elec       q    Type
REMARK                         _______ _______ _______ _____ _____    ______ ____
ROOT
ATOM      1  C1* LIG    1        2.430   1.203  -0.021  0.00  0.00    +0.430 C 
ATOM      2  O4* LIG    1        3.521   2.148   0.033  0.00  0.00    -0.350 OA
ATOM      3  C4* LIG    1        4.659   1.391   0.499  0.00  0.00    +0.150 C 
ATOM      4  C3* LIG    1        4.093   0.467   1.600  0.00  0.00    +0.140 C 
ATOM      5  C2* LIG    1        2.592   0.338   1.249  0.00  0.00    +0.190 C 
ENDROOT
BRANCH   1  13
ATOM      6  O   LIG    1        0.002  -0.004   0.002  0.00  0.00    -0.490 OA
ATOM      7  C   LIG    1       -0.015   1.215   0.009  0.00  0.00    +0.620 A 
ATOM      8  N   LIG    1       -1.183   1.869   0.029  0.00  0.00    -0.300 NA
ATOM      9  N   LIG    1       -1.227   3.155   0.036  0.00  0.00    +0.160 N 
ATOM     10  C   LIG    1       -0.112   3.883   0.025  0.00  0.00    +0.100 A 
ATOM     11  C   LIG    1        1.100   3.266   0.004  0.00  0.00    +0.470 A 
ATOM     12  O   LIG    1       -2.484   3.808   0.058  0.00  0.00    -0.390 OA
ATOM     13  N   LIG    1        1.145   1.906   0.001  0.00  0.00    -0.480 N 
ENDBRANCH   1  13
BRANCH   4  14
ATOM     14  O3* LIG    1        4.261   1.062   2.888  0.00  0.00    -0.540 OA
ATOM     15  H3* LIG    1        5.184   1.218   3.132  0.00  0.00    +0.390 HD
ENDBRANCH   4  14
BRANCH   5  16
ATOM     16  O2* LIG    1        1.784   0.850   2.311  0.00  0.00    -0.540 OA
ATOM     17  H2* LIG    1        1.893   0.381   3.149  0.00  0.00    +0.400 HD
ENDBRANCH   5  16
BRANCH   3  18
ATOM     18  C5* LIG    1        5.720   2.327   1.079  0.00  0.00    +0.220 C 
BRANCH  18  19
ATOM     19  O5* LIG    1        6.260   3.141   0.036  0.00  0.00    -0.560 OA
ATOM     20  H5* LIG    1        6.940   3.761   0.332  0.00  0.00    +0.390 HD
ENDBRANCH  18  19
ENDBRANCH   3  18
TORSDOF 5
ENDMDL
MODEL       70
REMARK  Name = ZINC000005189523
REMARK                            x       y       z     vdW  Elec       q    Type
REMARK                         _______ _______ _______ _____ _____    ______ ____
ROOT
ATOM      1  C1* LIG    1        2.430   1.203  -0.021  0.00  0.00    +0.430 C 
ATOM      2  O4* LIG    1        3.521   2.148   0.033  0.00  0.00    -0.350 OA
ATOM      3  C4* LIG    1        4.659   1.391   0.499  0.00  0.00    +0.150 C 
ATOM      4  C3* LIG    1        4.093   0.467   1.600  0.00  0.00    +0.150 C 
ATOM      5  C2* LIG    1        2.592   0.338   1.249  0.00  0.00    +0.170 C 
ENDROOT
BRANCH   1  13
ATOM      6  O   LIG    1        0.002  -0.004   0.002  0.00  0.00    -0.450 OA
ATOM      7  C   LIG    1       -0.015   1.215   0.009  0.00  0.00    +0.610 A 
ATOM      8  N   LIG    1       -1.183   1.869   0.029  0.00  0.00    -0.290 NA
ATOM      9  N   LIG    1       -1.227   3.155   0.036  0.00  0.00    +0.160 N 
ATOM     10  C   LIG    1       -0.112   3.883   0.025  0.00  0.00    +0.100 A 
ATOM     11  C   LIG    1        1.100   3.266   0.004  0.00  0.00    +0.460 A 
ATOM     12  O   LIG    1       -2.484   3.808   0.058  0.00  0.00    -0.390 OA
ATOM     13  N   LIG    1        1.145   1.906   0.001  0.00  0.00    -0.500 N 
ENDBRANCH   1  13
BRANCH   4  14
ATOM     14  O3* LIG    1        4.261   1.062   2.888  0.00  0.00    -0.550 OA
ATOM     15  H3* LIG    1        5.184   1.218   3.132  0.00  0.00    +0.390 HD
ENDBRANCH   4  14
BRANCH   5  16
ATOM     16  O2* LIG    1        2.256  -1.024   0.980  0.00  0.00    -0.520 OA
ATOM     17  H2* LIG    1        2.397  -1.619   1.730  0.00  0.00    +0.390 HD
ENDBRANCH   5  16
BRANCH   3  18
ATOM     18  C5* LIG    1        5.720   2.327   1.079  0.00  0.00    +0.220 C 
BRANCH  18  19
ATOM     19  O5* LIG    1        6.260   3.141   0.036  0.00  0.00    -0.560 OA
ATOM     20  H5* LIG    1        6.940   3.761   0.332  0.00  0.00    +0.390 HD
ENDBRANCH  18  19
ENDBRANCH   3  18
TORSDOF 5
ENDMDL
MODEL       71
REMARK  Name = ZINC000001618140
REMARK                            x       y       z     vdW  Elec       q    Type
REMARK                         _______ _______ _______ _____ _____    ______ ____
ROOT
ATOM      1  C   LIG    1        2.419   1.167  -0.021  0.00  0.00    +0.410 C 
ATOM      2  O   LIG    1        2.382   0.119  -1.013  0.00  0.00    -0.330 OA
ATOM      3  C   LIG    1        1.627  -0.953  -0.406  0.00  0.00    +0.160 C 
ATOM      4  C   LIG    1        2.110  -0.993   1.061  0.00  0.00    +0.160 C 
ATOM      5  C   LIG    1        2.644   0.436   1.321  0.00  0.00    +0.160 C 
ATOM      6  F   LIG    1        4.005   0.400   1.643  0.00  0.00    -0.170 F 
ENDROOT
BRANCH   1  13
ATOM      7  O   LIG    1        1.923   3.308   1.524  0.00  0.00    -0.520 OA
ATOM      8  C   LIG    1        0.995   2.957   0.814  0.00  0.00    +0.630 A 
ATOM      9  N   LIG    1       -0.155   3.634   0.850  0.00  0.00    -0.540 NA
ATOM     10  C   LIG    1       -1.173   3.277   0.094  0.00  0.00    +0.430 A 
ATOM     11  C   LIG    1       -1.053   2.176  -0.759  0.00  0.00    -0.120 A 
ATOM     12  C   LIG    1        0.121   1.489  -0.791  0.00  0.00    +0.350 A 
ATOM     13  N   LIG    1        1.148   1.895   0.001  0.00  0.00    -0.530 N 
ENDBRANCH   1  13
BRANCH   4  14
ATOM     14  O   LIG    1        3.153  -1.957   1.219  0.00  0.00    -0.540 OA
ATOM     15  H   LIG    1        3.493  -2.024   2.121  0.00  0.00    +0.390 HD
ENDBRANCH   4  14
BRANCH   3  16
ATOM     16  C   LIG    1        1.930  -2.280  -1.105  0.00  0.00    +0.230 C 
BRANCH  16  17
ATOM     17  O   LIG    1        1.437  -2.235  -2.446  0.00  0.00    -0.570 OA
ATOM     18  H   LIG    1        1.594  -3.045  -2.950  0.00  0.00    +0.390 HD
ENDBRANCH  16  17
ENDBRANCH   3  16
TORSDOF 4
ENDMDL
MODEL       72
REMARK  Name = ZINC000001568870
REMARK                            x       y       z     vdW  Elec       q    Type
REMARK                         _______ _______ _______ _____ _____    ______ ____
ROOT
ATOM      1  C1* LIG    1        2.419   1.167  -0.021  0.00  0.00    +0.430 C 
ATOM      2  O4* LIG    1        2.382   0.119  -1.013  0.00  0.00    -0.330 OA
ATOM      3  C4* LIG    1        1.627  -0.953  -0.406  0.00  0.00    +0.110 C 
ATOM      4  C3* LIG    1        2.110  -0.993   1.061  0.00  0.00    +0.130 C 
ATOM      5  C2* LIG    1        2.644   0.436   1.321  0.00  0.00    +0.180 C 
ENDROOT
BRANCH   1  12
ATOM      6  O   LIG    1        1.923   3.308   1.524  0.00  0.00    -0.520 OA
ATOM      7  C   LIG    1        0.995   2.957   0.814  0.00  0.00    +0.630 A 
ATOM      8  N   LIG    1       -0.155   3.634   0.850  0.00  0.00    -0.540 NA
ATOM      9  C   LIG    1       -1.173   3.277   0.094  0.00  0.00    +0.430 A 
ATOM     10  C   LIG    1       -1.053   2.176  -0.759  0.00  0.00    -0.130 A 
ATOM     11  C   LIG    1        0.121   1.489  -0.791  0.00  0.00    +0.350 A 
ATOM     12  N   LIG    1        1.148   1.895   0.001  0.00  0.00    -0.530 N 
ENDBRANCH   1  12
BRANCH   4  13
ATOM     13  O3* LIG    1        3.153  -1.957   1.219  0.00  0.00    -0.540 OA
ATOM     14  H3* LIG    1        2.887  -2.862   1.010  0.00  0.00    +0.380 HD
ENDBRANCH   4  13
BRANCH   5  15
ATOM     15  O2* LIG    1        4.034   0.399   1.650  0.00  0.00    -0.530 OA
ATOM     16  H2* LIG    1        4.236  -0.102   2.453  0.00  0.00    +0.390 HD
ENDBRANCH   5  15
BRANCH   3  17
ATOM     17  C5* LIG    1        1.930  -2.280  -1.105  0.00  0.00    +0.220 C 
BRANCH  17  18
ATOM     18  O5* LIG    1        1.437  -2.235  -2.446  0.00  0.00    -0.570 OA
ATOM     19  H5* LIG    1        1.594  -3.045  -2.950  0.00  0.00    +0.390 HD
ENDBRANCH  17  18
ENDBRANCH   3  17
TORSDOF 5
ENDMDL
MODEL       73
REMARK  Name = ZINC000006599342
REMARK                            x       y       z     vdW  Elec       q    Type
REMARK                         _______ _______ _______ _____ _____    ______ ____
ROOT
ATOM      1  C1* LIG    1        2.419   1.167  -0.021  0.00  0.00    +0.440 C 
ATOM      2  O4* LIG    1        2.382   0.119  -1.013  0.00  0.00    -0.330 OA
ATOM      3  C4* LIG    1        1.627  -0.953  -0.406  0.00  0.00    +0.110 C 
ATOM      4  C3* LIG    1        2.110  -0.993   1.061  0.00  0.00    +0.140 C 
ATOM      5  C2* LIG    1        2.644   0.436   1.321  0.00  0.00    +0.200 C 
ENDROOT
BRANCH   1  12
ATOM      6  O   LIG    1        1.968   3.390   1.419  0.00  0.00    -0.510 OA
ATOM      7  C   LIG    1        1.019   3.000   0.759  0.00  0.00    +0.640 A 
ATOM      8  N   LIG    1       -0.130   3.678   0.794  0.00  0.00    -0.540 NA
ATOM      9  C   LIG    1       -1.171   3.280   0.091  0.00  0.00    +0.430 A 
ATOM     10  C   LIG    1       -1.076   2.133  -0.703  0.00  0.00    -0.130 A 
ATOM     11  C   LIG    1        0.098   1.446  -0.735  0.00  0.00    +0.350 A 
ATOM     12  N   LIG    1        1.148   1.895   0.001  0.00  0.00    -0.520 N 
ENDBRANCH   1  12
BRANCH   4  13
ATOM     13  O3* LIG    1        3.153  -1.957   1.219  0.00  0.00    -0.550 OA
ATOM     14  H3* LIG    1        2.887  -2.862   1.010  0.00  0.00    +0.380 HD
ENDBRANCH   4  13
BRANCH   5  15
ATOM     15  O2* LIG    1        1.903   1.065   2.369  0.00  0.00    -0.530 OA
ATOM     16  H2* LIG    1        1.960   0.609   3.220  0.00  0.00    +0.390 HD
ENDBRANCH   5  15
BRANCH   3  17
ATOM     17  C5* LIG    1        1.930  -2.280  -1.105  0.00  0.00    +0.220 C 
BRANCH  17  18
ATOM     18  O5* LIG    1        1.437  -2.235  -2.446  0.00  0.00    -0.560 OA
ATOM     19  H5* LIG    1        1.594  -3.045  -2.950  0.00  0.00    +0.390 HD
ENDBRANCH  17  18
ENDBRANCH   3  17
TORSDOF 5
ENDMDL
MODEL       74
REMARK  Name = ZINC000005813289
REMARK                            x       y       z     vdW  Elec       q    Type
REMARK                         _______ _______ _______ _____ _____    ______ ____
ROOT
ATOM      1  C   LIG    1        2.419   1.167  -0.021  0.00  0.00    +0.420 C 
ATOM      2  O   LIG    1        2.382   0.119  -1.013  0.00  0.00    -0.330 OA
ATOM      3  C   LIG    1        1.627  -0.953  -0.406  0.00  0.00    +0.160 C 
ATOM      4  C   LIG    1        2.110  -0.993   1.061  0.00  0.00    +0.160 C 
ATOM      5  C   LIG    1        2.644   0.436   1.321  0.00  0.00    +0.160 C 
ATOM      6  F   LIG    1        1.918   1.052   2.347  0.00  0.00    -0.180 F 
ENDROOT
BRANCH   1  13
ATOM      7  O   LIG    1        1.959   3.375   1.439  0.00  0.00    -0.520 OA
ATOM      8  C   LIG    1        1.015   2.992   0.770  0.00  0.00    +0.630 A 
ATOM      9  N   LIG    1       -0.135   3.670   0.805  0.00  0.00    -0.540 NA
ATOM     10  C   LIG    1       -1.171   3.279   0.091  0.00  0.00    +0.430 A 
ATOM     11  C   LIG    1       -1.072   2.141  -0.714  0.00  0.00    -0.130 A 
ATOM     12  C   LIG    1        0.102   1.454  -0.746  0.00  0.00    +0.350 A 
ATOM     13  N   LIG    1        1.148   1.895   0.001  0.00  0.00    -0.530 N 
ENDBRANCH   1  13
BRANCH   4  14
ATOM     14  O   LIG    1        3.153  -1.957   1.219  0.00  0.00    -0.540 OA
ATOM     15  H   LIG    1        3.493  -2.024   2.121  0.00  0.00    +0.390 HD
ENDBRANCH   4  14
BRANCH   3  16
ATOM     16  C   LIG    1        1.930  -2.280  -1.105  0.00  0.00    +0.230 C 
BRANCH  16  17
ATOM     17  O   LIG    1        1.437  -2.235  -2.446  0.00  0.00    -0.570 OA
ATOM     18  H   LIG    1        1.594  -3.045  -2.950  0.00  0.00    +0.390 HD
ENDBRANCH  16  17
ENDBRANCH   3  16
TORSDOF 4
ENDMDL
MODEL       75
REMARK  Name = ZINC000006119091
REMARK                            x       y       z     vdW  Elec       q    Type
REMARK                         _______ _______ _______ _____ _____    ______ ____
ROOT
ATOM      1  C   LIG    1        2.419   1.167  -0.021  0.00  0.00    +0.390 C 
ATOM      2  O   LIG    1        2.425   0.225  -1.106  0.00  0.00    -0.330 OA
ATOM      3  C   LIG    1        3.181  -0.923  -0.664  0.00  0.00    +0.200 C 
ATOM      4  C   LIG    1        2.737  -1.102   0.810  0.00  0.00    +0.170 C 
ATOM      5  C   LIG    1        2.588   0.367   1.285  0.00  0.00    +0.140 C 
ATOM      6  F   LIG    1        1.457   0.507   2.097  0.00  0.00    -0.180 F 
ENDROOT
BRANCH   1  13
ATOM      7  O   LIG    1        0.002  -0.004   0.002  0.00  0.00    -0.510 OA
ATOM      8  C   LIG    1       -0.015   1.215   0.009  0.00  0.00    +0.640 A 
ATOM      9  N   LIG    1       -1.185   1.857   0.029  0.00  0.00    -0.540 NA
ATOM     10  C   LIG    1       -1.233   3.174   0.037  0.00  0.00    +0.430 A 
ATOM     11  C   LIG    1       -0.046   3.913   0.024  0.00  0.00    -0.130 A 
ATOM     12  C   LIG    1        1.144   3.253   0.004  0.00  0.00    +0.360 A 
ATOM     13  N   LIG    1        1.148   1.895   0.001  0.00  0.00    -0.520 N 
ENDBRANCH   1  13
BRANCH   4  14
ATOM     14  O   LIG    1        3.741  -1.782   1.565  0.00  0.00    -0.550 OA
ATOM     15  H   LIG    1        3.509  -1.918   2.494  0.00  0.00    +0.390 HD
ENDBRANCH   4  14
BRANCH   3  16
ATOM     16  C   LIG    1        2.820  -2.157  -1.493  0.00  0.00    +0.220 C 
BRANCH  16  17
ATOM     17  O   LIG    1        3.253  -1.969  -2.842  0.00  0.00    -0.570 OA
ATOM     18  H   LIG    1        3.056  -2.714  -3.426  0.00  0.00    +0.390 HD
ENDBRANCH  16  17
ENDBRANCH   3  16
TORSDOF 4
ENDMDL
MODEL       76
REMARK  Name = ZINC000005813287
REMARK                            x       y       z     vdW  Elec       q    Type
REMARK                         _______ _______ _______ _____ _____    ______ ____
ROOT
ATOM      1  C   LIG    1        2.419   1.167  -0.021  0.00  0.00    +0.390 C 
ATOM      2  O   LIG    1        3.528   2.091   0.033  0.00  0.00    -0.350 OA
ATOM      3  C   LIG    1        4.651   1.312   0.499  0.00  0.00    +0.200 C 
ATOM      4  C   LIG    1        4.068   0.399   1.600  0.00  0.00    +0.160 C 
ATOM      5  C   LIG    1        2.564   0.299   1.249  0.00  0.00    +0.140 C 
ATOM      6  F   LIG    1        2.209  -1.028   0.986  0.00  0.00    -0.170 F 
ENDROOT
BRANCH   1  13
ATOM      7  O   LIG    1        0.002  -0.004   0.002  0.00  0.00    -0.510 OA
ATOM      8  C   LIG    1       -0.015   1.215   0.009  0.00  0.00    +0.620 A 
ATOM      9  N   LIG    1       -1.185   1.857   0.029  0.00  0.00    -0.540 NA
ATOM     10  C   LIG    1       -1.233   3.174   0.037  0.00  0.00    +0.430 A 
ATOM     11  C   LIG    1       -0.046   3.913   0.024  0.00  0.00    -0.130 A 
ATOM     12  C   LIG    1        1.144   3.253   0.004  0.00  0.00    +0.380 A 
ATOM     13  N   LIG    1        1.148   1.895   0.001  0.00  0.00    -0.520 N 
ENDBRANCH   1  13
BRANCH   4  14
ATOM     14  O   LIG    1        4.247   0.990   2.888  0.00  0.00    -0.540 OA
ATOM     15  H   LIG    1        3.899   0.459   3.617  0.00  0.00    +0.390 HD
ENDBRANCH   4  14
BRANCH   3  16
ATOM     16  C   LIG    1        5.730   2.228   1.080  0.00  0.00    +0.230 C 
BRANCH  16  17
ATOM     17  O   LIG    1        6.285   3.031   0.036  0.00  0.00    -0.570 OA
ATOM     18  H   LIG    1        6.978   3.637   0.333  0.00  0.00    +0.390 HD
ENDBRANCH  16  17
ENDBRANCH   3  16
TORSDOF 4
ENDMDL
MODEL       77
REMARK  Name = ZINC000006599341
REMARK                            x       y       z     vdW  Elec       q    Type
REMARK                         _______ _______ _______ _____ _____    ______ ____
ROOT
ATOM      1  C1* LIG    1        2.419   1.167  -0.021  0.00  0.00    +0.420 C 
ATOM      2  O4* LIG    1        3.528   2.091   0.033  0.00  0.00    -0.350 OA
ATOM      3  C4* LIG    1        4.651   1.312   0.499  0.00  0.00    +0.150 C 
ATOM      4  C3* LIG    1        4.068   0.399   1.600  0.00  0.00    +0.140 C 
ATOM      5  C2* LIG    1        2.564   0.299   1.249  0.00  0.00    +0.180 C 
ENDROOT
BRANCH   1  12
ATOM      6  O   LIG    1        0.002  -0.004   0.002  0.00  0.00    -0.500 OA
ATOM      7  C   LIG    1       -0.015   1.215   0.009  0.00  0.00    +0.620 A 
ATOM      8  N   LIG    1       -1.185   1.857   0.029  0.00  0.00    -0.540 NA
ATOM      9  C   LIG    1       -1.233   3.174   0.037  0.00  0.00    +0.430 A 
ATOM     10  C   LIG    1       -0.046   3.913   0.024  0.00  0.00    -0.140 A 
ATOM     11  C   LIG    1        1.144   3.253   0.004  0.00  0.00    +0.380 A 
ATOM     12  N   LIG    1        1.148   1.895   0.001  0.00  0.00    -0.510 N 
ENDBRANCH   1  12
BRANCH   4  13
ATOM     13  O3* LIG    1        4.247   0.990   2.888  0.00  0.00    -0.550 OA
ATOM     14  H3* LIG    1        5.173   1.129   3.132  0.00  0.00    +0.380 HD
ENDBRANCH   4  13
BRANCH   5  15
ATOM     15  O2* LIG    1        2.202  -1.057   0.980  0.00  0.00    -0.520 OA
ATOM     16  H2* LIG    1        2.332  -1.654   1.729  0.00  0.00    +0.390 HD
ENDBRANCH   5  15
BRANCH   3  17
ATOM     17  C5* LIG    1        5.730   2.228   1.080  0.00  0.00    +0.220 C 
BRANCH  17  18
ATOM     18  O5* LIG    1        6.285   3.031   0.036  0.00  0.00    -0.560 OA
ATOM     19  H5* LIG    1        6.978   3.637   0.333  0.00  0.00    +0.390 HD
ENDBRANCH  17  18
ENDBRANCH   3  17
TORSDOF 5
ENDMDL
MODEL       78
REMARK  Name = ZINC000005813284
REMARK                            x       y       z     vdW  Elec       q    Type
REMARK                         _______ _______ _______ _____ _____    ______ ____
ROOT
ATOM      1  C   LIG    1        2.419   1.167  -0.021  0.00  0.00    +0.400 C 
ATOM      2  O   LIG    1        3.528   2.091   0.033  0.00  0.00    -0.350 OA
ATOM      3  C   LIG    1        4.651   1.312   0.499  0.00  0.00    +0.200 C 
ATOM      4  C   LIG    1        4.068   0.399   1.600  0.00  0.00    +0.150 C 
ATOM      5  C   LIG    1        2.564   0.299   1.249  0.00  0.00    +0.160 C 
ATOM      6  F   LIG    1        1.783   0.815   2.288  0.00  0.00    -0.180 F 
ENDROOT
BRANCH   1  13
ATOM      7  O   LIG    1        0.002  -0.004   0.002  0.00  0.00    -0.530 OA
ATOM      8  C   LIG    1       -0.015   1.215   0.009  0.00  0.00    +0.640 A 
ATOM      9  N   LIG    1       -1.185   1.857   0.029  0.00  0.00    -0.540 NA
ATOM     10  C   LIG    1       -1.233   3.174   0.037  0.00  0.00    +0.430 A 
ATOM     11  C   LIG    1       -0.046   3.913   0.024  0.00  0.00    -0.130 A 
ATOM     12  C   LIG    1        1.144   3.253   0.004  0.00  0.00    +0.380 A 
ATOM     13  N   LIG    1        1.148   1.895   0.001  0.00  0.00    -0.510 N 
ENDBRANCH   1  13
BRANCH   4  14
ATOM     14  O   LIG    1        4.247   0.990   2.888  0.00  0.00    -0.540 OA
ATOM     15  H   LIG    1        3.899   0.459   3.617  0.00  0.00    +0.390 HD
ENDBRANCH   4  14
BRANCH   3  16
ATOM     16  C   LIG    1        5.730   2.228   1.080  0.00  0.00    +0.230 C 
BRANCH  16  17
ATOM     17  O   LIG    1        6.285   3.031   0.036  0.00  0.00    -0.570 OA
ATOM     18  H   LIG    1        6.978   3.637   0.333  0.00  0.00    +0.390 HD
ENDBRANCH  16  17
ENDBRANCH   3  16
TORSDOF 4
ENDMDL
MODEL       79
REMARK  Name = ZINC000006599340
REMARK                            x       y       z     vdW  Elec       q    Type
REMARK                         _______ _______ _______ _____ _____    ______ ____
ROOT
ATOM      1  C1* LIG    1        2.419   1.167  -0.021  0.00  0.00    +0.410 C 
ATOM      2  O4* LIG    1        3.528   2.091   0.033  0.00  0.00    -0.350 OA
ATOM      3  C4* LIG    1        4.651   1.312   0.499  0.00  0.00    +0.150 C 
ATOM      4  C3* LIG    1        4.068   0.399   1.600  0.00  0.00    +0.130 C 
ATOM      5  C2* LIG    1        2.564   0.299   1.249  0.00  0.00    +0.190 C 
ENDROOT
BRANCH   1  12
ATOM      6  O   LIG    1        0.002  -0.004   0.002  0.00  0.00    -0.530 OA
ATOM      7  C   LIG    1       -0.015   1.215   0.009  0.00  0.00    +0.640 A 
ATOM      8  N   LIG    1       -1.185   1.857   0.029  0.00  0.00    -0.550 NA
ATOM      9  C   LIG    1       -1.233   3.174   0.037  0.00  0.00    +0.430 A 
ATOM     10  C   LIG    1       -0.046   3.913   0.024  0.00  0.00    -0.140 A 
ATOM     11  C   LIG    1        1.144   3.253   0.004  0.00  0.00    +0.390 A 
ATOM     12  N   LIG    1        1.148   1.895   0.001  0.00  0.00    -0.500 N 
ENDBRANCH   1  12
BRANCH   4  13
ATOM     13  O3* LIG    1        4.247   0.990   2.888  0.00  0.00    -0.540 OA
ATOM     14  H3* LIG    1        5.173   1.129   3.132  0.00  0.00    +0.380 HD
ENDBRANCH   4  13
BRANCH   5  15
ATOM     15  O2* LIG    1        1.766   0.826   2.311  0.00  0.00    -0.530 OA
ATOM     16  H2* LIG    1        1.867   0.355   3.149  0.00  0.00    +0.390 HD
ENDBRANCH   5  15
BRANCH   3  17
ATOM     17  C5* LIG    1        5.730   2.228   1.080  0.00  0.00    +0.220 C 
BRANCH  17  18
ATOM     18  O5* LIG    1        6.285   3.031   0.036  0.00  0.00    -0.560 OA
ATOM     19  H5* LIG    1        6.978   3.637   0.333  0.00  0.00    +0.390 HD
ENDBRANCH  17  18
ENDBRANCH   3  17
TORSDOF 5
ENDMDL
MODEL       80
REMARK  Name = ZINC000013813286
REMARK                            x       y       z     vdW  Elec       q    Type
REMARK                         _______ _______ _______ _____ _____    ______ ____
ROOT
ATOM      1  C1* LIG    1        2.419   1.167  -0.021  0.00  0.00    +0.420 C 
ATOM      2  O4* LIG    1        2.425   0.185  -1.079  0.00  0.00    -0.340 OA
ATOM      3  C4* LIG    1        3.422  -0.793  -0.739  0.00  0.00    +0.150 C 
ATOM      4  C3* LIG    1        3.559  -0.791   0.796  0.00  0.00    +0.140 C 
ATOM      5  C2* LIG    1        2.585   0.319   1.266  0.00  0.00    +0.160 C 
ENDROOT
BRANCH   1  12
ATOM      6  O   LIG    1        0.002  -0.004   0.002  0.00  0.00    -0.470 OA
ATOM      7  C   LIG    1       -0.015   1.215   0.009  0.00  0.00    +0.630 A 
ATOM      8  N   LIG    1       -1.185   1.857   0.029  0.00  0.00    -0.540 NA
ATOM      9  C   LIG    1       -1.233   3.174   0.037  0.00  0.00    +0.410 A 
ATOM     10  C   LIG    1       -0.046   3.913   0.024  0.00  0.00    -0.130 A 
ATOM     11  C   LIG    1        1.144   3.253   0.004  0.00  0.00    +0.350 A 
ATOM     12  N   LIG    1        1.148   1.895   0.001  0.00  0.00    -0.510 N 
ENDBRANCH   1  12
BRANCH   4  13
ATOM     13  O3* LIG    1        4.899  -0.474   1.178  0.00  0.00    -0.550 OA
ATOM     14  H3* LIG    1        5.559  -1.107   0.861  0.00  0.00    +0.390 HD
ENDBRANCH   4  13
BRANCH   5  15
ATOM     15  O2* LIG    1        1.333  -0.239   1.671  0.00  0.00    -0.510 OA
ATOM     16  H2* LIG    1        1.398  -0.851   2.416  0.00  0.00    +0.370 HD
ENDBRANCH   5  15
BRANCH   3  17
ATOM     17  C5* LIG    1        2.981  -2.175  -1.223  0.00  0.00    +0.210 C 
BRANCH  17  18
ATOM     18  O5* LIG    1        2.955  -2.193  -2.652  0.00  0.00    -0.560 OA
ATOM     19  H5* LIG    1        2.684  -3.041  -3.030  0.00  0.00    +0.380 HD
ENDBRANCH  17  18
ENDBRANCH   3  17
TORSDOF 5
ENDMDL
MODEL       81
REMARK  Name = ZINC000001580037
REMARK                            x       y       z     vdW  Elec       q    Type
REMARK                         _______ _______ _______ _____ _____    ______ ____
ROOT
ATOM      1  C   THR A  1        0.739  -2.004  -1.265  0.00  0.00    +0.500 C 
ATOM      2  N   GLY A  2        1.649  -2.670  -0.527  0.00  0.00    -0.670 N 
ATOM      3  H   GLY A  2        2.291  -2.179   0.009  0.00  0.00    +0.420 HD
ATOM      4  O   THR A  1       -0.064  -2.618  -1.936  0.00  0.00    -0.530 OA
ENDROOT
BRANCH   1   5
ATOM      5  CA  THR A  1        0.718  -0.497  -1.257  0.00  0.00    +0.140 C 
BRANCH   5   6
ATOM      6  N   THR A  1        0.008  -0.011  -2.447  0.00  0.00    -0.610 N 
ATOM      7  H1  THR A  1        0.480  -0.336  -3.277  0.00  0.00    +0.440 HD
ATOM      8  H2  THR A  1       -0.006   0.998  -2.441  0.00  0.00    +0.440 HD
ATOM      9  H3  THR A  1       -0.939  -0.360  -2.440  0.00  0.00    +0.440 HD
ENDBRANCH   5   6
BRANCH   5  11
ATOM     10  CG2 THR A  1       -0.019   1.526   0.010  0.00  0.00    +0.040 C 
ATOM     11  CB  THR A  1        0.002  -0.004   0.002  0.00  0.00    +0.230 C 
BRANCH  11  12
ATOM     12  OG1 THR A  1        0.693  -0.477   1.160  0.00  0.00    -0.520 OA
ATOM     13  HG1 THR A  1        1.611  -0.180   1.219  0.00  0.00    +0.390 HD
ENDBRANCH  11  12
ENDBRANCH   5  11
ENDBRANCH   1   5
BRANCH   2  14
ATOM     14  CA  GLY A  2        1.669  -4.135  -0.535  0.00  0.00    +0.310 C 
BRANCH  14  15
ATOM     15  C   GLY A  2        2.773  -4.627   0.365  0.00  0.00    +0.490 C 
ATOM     16  N   GLY A  3        2.981  -5.950   0.514  0.00  0.00    -0.680 N 
ATOM     17  H   GLY A  3        2.420  -6.586   0.042  0.00  0.00    +0.410 HD
ATOM     18  O   GLY A  2        3.474  -3.833   0.955  0.00  0.00    -0.560 OA
BRANCH  16  19
ATOM     19  CA  GLY A  3        4.054  -6.429   1.389  0.00  0.00    +0.190 C 
BRANCH  19  20
ATOM     20  C   GLY A  3        4.074  -7.936   1.381  0.00  0.00    +0.490 C 
ATOM     21  OXT GLY A  3        4.898  -8.538   2.049  0.00  0.00    -0.680 OA
ATOM     22  O   GLY A  3        3.267  -8.553   0.707  0.00  0.00    -0.690 OA
ENDBRANCH  19  20
ENDBRANCH  16  19
ENDBRANCH  14  15
ENDBRANCH   2  14
TORSDOF 8
ENDMDL
MODEL       82
REMARK  Name = ZINC000247713220
REMARK                            x       y       z     vdW  Elec       q    Type
REMARK                         _______ _______ _______ _____ _____    ______ ____
ROOT
ATOM      1  C   LIG    1       -1.251  -0.869  -0.043  0.00  0.00    +0.260 C 
ATOM      2  O   LIG    1       -1.938  -0.695  -1.285  0.00  0.00    -0.380 OA
ATOM      3  C   LIG    1       -3.120  -1.487  -1.414  0.00  0.00    +0.310 C 
ATOM      4  C   LIG    1       -4.115  -1.100  -0.317  0.00  0.00    +0.130 C 
ATOM      5  C   LIG    1       -3.454  -1.293   1.052  0.00  0.00    +0.210 C 
ATOM      6  C   LIG    1       -2.171  -0.457   1.109  0.00  0.00    +0.200 C 
ENDROOT
BRANCH   1  10
ATOM      7  N   LIG    1        0.751   0.052   1.079  0.00  0.00    -0.840 N 
ATOM      8  H   LIG    1        0.463  -0.392   1.893  0.00  0.00    +0.410 HD
ATOM      9  H   LIG    1        1.587   0.544   1.065  0.00  0.00    +0.410 HD
ATOM     10  C   LIG    1       -0.013  -0.010  -0.029  0.00  0.00    +0.500 C 
ATOM     11  O   LIG    1        0.296   0.624  -1.015  0.00  0.00    -0.500 OA
ENDBRANCH   1  10
BRANCH   5  12
ATOM     12  O   LIG    1       -3.136  -2.673   1.239  0.00  0.00    -0.530 OA
ATOM     13  H   LIG    1       -3.903  -3.261   1.208  0.00  0.00    +0.390 HD
ENDBRANCH   5  12
BRANCH   4  14
ATOM     14  O   LIG    1       -4.494   0.268  -0.477  0.00  0.00    -0.530 OA
ATOM     15  H   LIG    1       -4.916   0.462  -1.325  0.00  0.00    +0.380 HD
ENDBRANCH   4  14
BRANCH   3  16
ATOM     16  O   LIG    1       -3.710  -1.257  -2.695  0.00  0.00    -0.540 OA
ATOM     17  H   LIG    1       -3.134  -1.480  -3.439  0.00  0.00    +0.390 HD
ENDBRANCH   3  16
BRANCH   1  18
ATOM     18  O   LIG    1       -0.882  -2.241   0.108  0.00  0.00    -0.530 OA
ATOM     19  H   LIG    1       -0.298  -2.571  -0.588  0.00  0.00    +0.390 HD
ENDBRANCH   1  18
BRANCH   6  20
ATOM     20  O   LIG    1       -2.498   0.929   0.989  0.00  0.00    -0.510 OA
ATOM     21  H   LIG    1       -1.728   1.513   0.953  0.00  0.00    +0.380 HD
ENDBRANCH   6  20
TORSDOF 6
ENDMDL
MODEL       83
REMARK  Name = ZINC000247713219
REMARK                            x       y       z     vdW  Elec       q    Type
REMARK                         _______ _______ _______ _____ _____    ______ ____
ROOT
ATOM      1  C   LIG    1       -1.293  -0.775   0.010  0.00  0.00    +0.260 C 
ATOM      2  O   LIG    1       -2.006  -0.522  -1.202  0.00  0.00    -0.400 OA
ATOM      3  C   LIG    1       -3.243  -1.229  -1.309  0.00  0.00    +0.320 C 
ATOM      4  C   LIG    1       -4.173  -0.803  -0.170  0.00  0.00    +0.150 C 
ATOM      5  C   LIG    1       -3.482  -1.076   1.170  0.00  0.00    +0.220 C 
ATOM      6  C   LIG    1       -2.143  -0.332   1.203  0.00  0.00    +0.210 C 
ENDROOT
BRANCH   1  10
ATOM      7  N   LIG    1       -0.016   1.344   0.009  0.00  0.00    -0.830 N 
ATOM      8  H   LIG    1       -0.863   1.817   0.016  0.00  0.00    +0.410 HD
ATOM      9  H   LIG    1        0.817   1.840   0.004  0.00  0.00    +0.410 HD
ATOM     10  C   LIG    1        0.002  -0.004   0.002  0.00  0.00    +0.510 C 
ATOM     11  O   LIG    1        1.060  -0.596  -0.011  0.00  0.00    -0.510 OA
ENDBRANCH   1  10
BRANCH   5  12
ATOM     12  O   LIG    1       -4.313  -0.616   2.238  0.00  0.00    -0.540 OA
ATOM     13  H   LIG    1       -5.180  -1.042   2.273  0.00  0.00    +0.380 HD
ENDBRANCH   5  12
BRANCH   4  14
ATOM     14  O   LIG    1       -4.462   0.591  -0.284  0.00  0.00    -0.540 OA
ATOM     15  H   LIG    1       -4.896   0.836  -1.113  0.00  0.00    +0.390 HD
ENDBRANCH   4  14
BRANCH   3  16
ATOM     16  O   LIG    1       -3.858  -0.926  -2.564  0.00  0.00    -0.540 OA
ATOM     17  H   LIG    1       -3.323  -1.169  -3.332  0.00  0.00    +0.400 HD
ENDBRANCH   3  16
BRANCH   1  18
ATOM     18  O   LIG    1       -1.014  -2.173   0.117  0.00  0.00    -0.530 OA
ATOM     19  H   LIG    1       -0.478  -2.523  -0.607  0.00  0.00    +0.390 HD
ENDBRANCH   1  18
BRANCH   6  20
ATOM     20  O   LIG    1       -1.458  -0.635   2.420  0.00  0.00    -0.530 OA
ATOM     21  H   LIG    1       -0.601  -0.197   2.508  0.00  0.00    +0.380 HD
ENDBRANCH   6  20
TORSDOF 6
ENDMDL
MODEL       84
REMARK  Name = ZINC000247713217
REMARK                            x       y       z     vdW  Elec       q    Type
REMARK                         _______ _______ _______ _____ _____    ______ ____
ROOT
ATOM      1  C   LIG    1       -1.251  -0.869  -0.043  0.00  0.00    +0.260 C 
ATOM      2  O   LIG    1       -1.938  -0.694  -1.285  0.00  0.00    -0.380 OA
ATOM      3  C   LIG    1       -3.120  -1.487  -1.414  0.00  0.00    +0.310 C 
ATOM      4  C   LIG    1       -4.114  -1.100  -0.317  0.00  0.00    +0.130 C 
ATOM      5  C   LIG    1       -3.454  -1.293   1.052  0.00  0.00    +0.230 C 
ATOM      6  C   LIG    1       -2.171  -0.457   1.109  0.00  0.00    +0.190 C 
ENDROOT
BRANCH   1  10
ATOM      7  N   LIG    1        0.751   0.052   1.079  0.00  0.00    -0.840 N 
ATOM      8  H   LIG    1        0.463  -0.392   1.893  0.00  0.00    +0.410 HD
ATOM      9  H   LIG    1        1.587   0.544   1.065  0.00  0.00    +0.410 HD
ATOM     10  C   LIG    1       -0.013  -0.010  -0.029  0.00  0.00    +0.500 C 
ATOM     11  O   LIG    1        0.297   0.624  -1.015  0.00  0.00    -0.500 OA
ENDBRANCH   1  10
BRANCH   5  12
ATOM     12  O   LIG    1       -4.350  -0.866   2.080  0.00  0.00    -0.540 OA
ATOM     13  H   LIG    1       -5.187  -1.350   2.097  0.00  0.00    +0.380 HD
ENDBRANCH   5  12
BRANCH   4  14
ATOM     14  O   LIG    1       -4.494   0.268  -0.477  0.00  0.00    -0.520 OA
ATOM     15  H   LIG    1       -4.916   0.462  -1.325  0.00  0.00    +0.380 HD
ENDBRANCH   4  14
BRANCH   3  16
ATOM     16  O   LIG    1       -3.710  -1.257  -2.695  0.00  0.00    -0.540 OA
ATOM     17  H   LIG    1       -3.134  -1.480  -3.439  0.00  0.00    +0.400 HD
ENDBRANCH   3  16
BRANCH   1  18
ATOM     18  O   LIG    1       -0.882  -2.241   0.108  0.00  0.00    -0.550 OA
ATOM     19  H   LIG    1       -0.298  -2.571  -0.588  0.00  0.00    +0.400 HD
ENDBRANCH   1  18
BRANCH   6  20
ATOM     20  O   LIG    1       -2.498   0.929   0.989  0.00  0.00    -0.500 OA
ATOM     21  H   LIG    1       -1.728   1.513   0.953  0.00  0.00    +0.370 HD
ENDBRANCH   6  20
TORSDOF 6
ENDMDL
MODEL       85
REMARK  Name = ZINC000005006479
REMARK                            x       y       z     vdW  Elec       q    Type
REMARK                         _______ _______ _______ _____ _____    ______ ____
ROOT
ATOM      1  C   LIG    1        0.236  -1.022  -1.155  0.00  0.00    +0.360 A 
ATOM      2  N   LIG    1       -0.895  -1.345  -0.571  0.00  0.00    -0.360 NA
ATOM      3  O   LIG    1       -0.728  -1.417   0.624  0.00  0.00    +0.300 OA
ATOM      4  N   LIG    1        0.392  -1.188   1.019  0.00  0.00    -0.010 N 
ATOM      5  O   LIG    1        0.804  -1.216   2.373  0.00  0.00    -0.420 OA
ATOM      6  C   LIG    1        1.169  -0.914  -0.011  0.00  0.00    -0.070 A 
ENDROOT
BRANCH   6   7
ATOM      7  C   LIG    1        2.607  -0.574  -0.020  0.00  0.00    +0.620 C 
ATOM      8  N   LIG    1        3.530  -1.551   0.077  0.00  0.00    -0.590 N 
ATOM      9  C   LIG    1        3.137  -2.969   0.076  0.00  0.00    +0.240 C 
ATOM     10  C   LIG    1        3.988  -3.705  -0.965  0.00  0.00    +0.220 C 
ATOM     11  O   LIG    1        5.370  -3.430  -0.723  0.00  0.00    -0.370 OA
ATOM     12  C   LIG    1        5.724  -2.052  -0.858  0.00  0.00    +0.230 C 
ATOM     13  C   LIG    1        4.963  -1.231   0.183  0.00  0.00    +0.280 C 
ATOM     14  O   LIG    1        2.957   0.586  -0.116  0.00  0.00    -0.490 OA
ENDBRANCH   6   7
BRANCH   1  15
ATOM     15  N   LIG    1        0.492  -0.836  -2.506  0.00  0.00    -0.790 N 
ATOM     16  H   LIG    1       -0.221  -0.944  -3.155  0.00  0.00    +0.430 HD
ATOM     17  H   LIG    1        1.386  -0.601  -2.802  0.00  0.00    +0.430 HD
ENDBRANCH   1  15
TORSDOF 2
ENDMDL
MODEL       86
REMARK  Name = ZINC000218767090
REMARK                            x       y       z     vdW  Elec       q    Type
REMARK                         _______ _______ _______ _____ _____    ______ ____
ROOT
ATOM      1  N   THR A  1        0.634  -1.962  -1.326  0.00  0.00    -0.480 N 
ATOM      2  H1  THR A  1       -0.333  -2.246  -1.276  0.00  0.00    +0.400 HD
ATOM      3  H2  THR A  1        1.143  -2.365  -0.554  0.00  0.00    +0.430 HD
ENDROOT
BRANCH   1   4
ATOM      4  CA  THR A  1        0.718  -0.497  -1.257  0.00  0.00    +0.050 C 
BRANCH   4   5
ATOM      5  C   THR A  1        2.165  -0.079  -1.208  0.00  0.00    +0.490 C 
ATOM      6  OXT THR A  1        2.465   1.096  -1.331  0.00  0.00    -0.630 OA
ATOM      7  O   THR A  1        3.037  -0.917  -1.045  0.00  0.00    -0.660 OA
ENDBRANCH   4   5
BRANCH   4   9
ATOM      8  CG2 THR A  1       -0.019   1.526   0.010  0.00  0.00    +0.050 C 
ATOM      9  CB  THR A  1        0.002  -0.004   0.002  0.00  0.00    +0.220 C 
BRANCH   9  10
ATOM     10  OG1 THR A  1        0.693  -0.477   1.160  0.00  0.00    -0.560 OA
ATOM     11  HG1 THR A  1        1.611  -0.180   1.219  0.00  0.00    +0.390 HD
ENDBRANCH   9  10
ENDBRANCH   4   9
ENDBRANCH   1   4
BRANCH   1  12
ATOM     12  C   UNK A  0        1.216  -2.427  -2.592  0.00  0.00    +0.350 C 
BRANCH  12  13
ATOM     13  C   UNK A  0        1.129  -3.930  -2.663  0.00  0.00    -0.330 A 
ATOM     14  C   UNK A  0        2.153  -4.723  -2.169  0.00  0.00    +0.420 A 
ATOM     15  N   UNK A  0        2.046  -6.039  -2.246  0.00  0.00    -0.570 NA
ATOM     16  C   UNK A  0        0.975  -6.600  -2.788  0.00  0.00    +0.580 A 
ATOM     17  N   UNK A  0       -0.022  -5.871  -3.268  0.00  0.00    -0.570 NA
ATOM     18  C   UNK A  0        0.021  -4.550  -3.218  0.00  0.00    +0.390 A 
BRANCH  16  19
ATOM     19  N   UNK A  0        0.895  -7.980  -2.852  0.00  0.00    -0.810 N 
ATOM     20  H   UNK A  0        0.116  -8.403  -3.246  0.00  0.00    +0.420 HD
ATOM     21  H   UNK A  0        1.618  -8.525  -2.503  0.00  0.00    +0.420 HD
ENDBRANCH  16  19
ENDBRANCH  12  13
ENDBRANCH   1  12
TORSDOF 7
ENDMDL
MODEL       87
REMARK  Name = ZINC000005047981
REMARK                            x       y       z     vdW  Elec       q    Type
REMARK                         _______ _______ _______ _____ _____    ______ ____
ROOT
ATOM      1  C   LIG    1        1.455  -2.521  -2.524  0.00  0.00    +0.160 C 
ENDROOT
BRANCH   1   2
ATOM      2  O   LIG    1        0.764  -2.047  -3.682  0.00  0.00    -0.530 OA
ATOM      3  H   LIG    1       -0.154  -2.345  -3.741  0.00  0.00    +0.370 HD
ENDBRANCH   1   2
BRANCH   1   4
ATOM      4  C   LIG    1        0.739  -2.027  -1.265  0.00  0.00    +0.160 C 
BRANCH   4   5
ATOM      5  O   LIG    1        1.430  -2.501  -0.107  0.00  0.00    -0.510 OA
ATOM      6  H   LIG    1        2.348  -2.203  -0.049  0.00  0.00    +0.370 HD
ENDBRANCH   4   5
BRANCH   4   7
ATOM      7  C   LIG    1        0.718  -0.497  -1.257  0.00  0.00    +0.150 C 
BRANCH   7   9
ATOM      8  C   LIG    1       -0.019   1.526   0.010  0.00  0.00    +0.010 C 
ATOM      9  C   LIG    1        0.002  -0.004   0.002  0.00  0.00    +0.180 C 
BRANCH   9  10
ATOM     10  O   LIG    1        0.693  -0.477   1.160  0.00  0.00    -0.540 OA
ATOM     11  H   LIG    1        1.611  -0.180   1.219  0.00  0.00    +0.370 HD
ENDBRANCH   9  10
ENDBRANCH   7   9
BRANCH   7  12
ATOM     12  O   LIG    1        0.027  -0.024  -2.414  0.00  0.00    -0.530 OA
ATOM     13  H   LIG    1       -0.891  -0.322  -2.473  0.00  0.00    +0.370 HD
ENDBRANCH   7  12
ENDBRANCH   4   7
ENDBRANCH   1   4
BRANCH   1  14
ATOM     14  C   LIG    1        1.476  -4.051  -2.532  0.00  0.00    +0.190 C 
BRANCH  14  15
ATOM     15  C   LIG    1        2.181  -4.537  -3.772  0.00  0.00    +0.490 C 
ATOM     16  O   LIG    1        3.227  -5.144  -3.677  0.00  0.00    -0.540 OA
ATOM     17  N   LIG    1        1.650  -4.297  -4.987  0.00  0.00    -0.840 N 
ATOM     18  H   LIG    1        2.104  -4.609  -5.786  0.00  0.00    +0.400 HD
ATOM     19  H   LIG    1        0.814  -3.811  -5.064  0.00  0.00    +0.400 HD
ENDBRANCH  14  15
BRANCH  14  20
ATOM     20  O   LIG    1        2.167  -4.524  -1.375  0.00  0.00    -0.510 OA
ATOM     21  H   LIG    1        3.085  -4.226  -1.316  0.00  0.00    +0.380 HD
ENDBRANCH  14  20
ENDBRANCH   1  14
TORSDOF 10
ENDMDL
MODEL       88
REMARK  Name = ZINC000017174523
REMARK                            x       y       z     vdW  Elec       q    Type
REMARK                         _______ _______ _______ _____ _____    ______ ____
ROOT
ATOM      1  C1* LIG    1        2.366   0.221  -0.181  0.00  0.00    +0.410 C 
ATOM      2  O4* LIG    1        3.117  -0.104  -1.370  0.00  0.00    -0.340 OA
ATOM      3  C4* LIG    1        4.468   0.330  -1.145  0.00  0.00    +0.150 C 
ATOM      4  C3* LIG    1        4.707   0.311   0.378  0.00  0.00    +0.140 C 
ATOM      5  C2* LIG    1        3.343  -0.120   0.973  0.00  0.00    +0.170 C 
ENDROOT
BRANCH   1  12
ATOM      6  C   LIG    1        0.128  -0.209   0.703  0.00  0.00    +0.660 A 
ATOM      7  N   LIG    1       -0.971  -0.928   0.802  0.00  0.00    -0.630 NA
ATOM      8  C   LIG    1       -1.101  -2.075   0.120  0.00  0.00    +0.530 A 
ATOM      9  C   LIG    1       -0.043  -2.516  -0.715  0.00  0.00    -0.150 A 
ATOM     10  C   LIG    1        1.075  -1.766  -0.803  0.00  0.00    +0.340 A 
ATOM     11  O   LIG    1       -2.124  -2.735   0.217  0.00  0.00    -0.520 OA
ATOM     12  N   LIG    1        1.157  -0.603  -0.093  0.00  0.00    -0.510 N 
BRANCH   6  13
ATOM     13  N   LIG    1        0.234   0.958   1.411  0.00  0.00    -0.830 N 
ATOM     14  H   LIG    1       -0.527   1.292   1.912  0.00  0.00    +0.430 HD
ATOM     15  H   LIG    1        1.068   1.453   1.408  0.00  0.00    +0.410 HD
ENDBRANCH   6  13
ENDBRANCH   1  12
BRANCH   4  16
ATOM     16  O3* LIG    1        5.066   1.614   0.843  0.00  0.00    -0.550 OA
ATOM     17  H3* LIG    1        5.884   1.958   0.458  0.00  0.00    +0.390 HD
ENDBRANCH   4  16
BRANCH   5  18
ATOM     18  O2* LIG    1        3.329  -1.521   1.253  0.00  0.00    -0.530 OA
ATOM     19  H2* LIG    1        3.989  -1.799   1.903  0.00  0.00    +0.390 HD
ENDBRANCH   5  18
BRANCH   3  20
ATOM     20  C5* LIG    1        5.444  -0.623  -1.839  0.00  0.00    +0.210 C 
BRANCH  20  21
ATOM     21  O5* LIG    1        5.282  -0.522  -3.255  0.00  0.00    -0.560 OA
ATOM     22  H5* LIG    1        5.870  -1.099  -3.761  0.00  0.00    +0.390 HD
ENDBRANCH  20  21
ENDBRANCH   3  20
TORSDOF 6
ENDMDL
MODEL       89
REMARK  Name = ZINC000247865026
REMARK                            x       y       z     vdW  Elec       q    Type
REMARK                         _______ _______ _______ _____ _____    ______ ____
ROOT
ATOM      1  O   LIG    1        0.002  -0.004   0.002  0.00  0.00    -0.510 OA
ATOM      2  C   LIG    1       -0.014   1.211   0.009  0.00  0.00    +0.640 C 
ATOM      3  N   LIG    1       -1.150   1.930   0.029  0.00  0.00    -0.740 N 
ATOM      4  H   LIG    1       -2.051   1.574   0.001  0.00  0.00    +0.440 HD
ATOM      5  C   LIG    1       -0.784   3.346   0.100  0.00  0.00    +0.410 C 
ATOM      6  O   LIG    1       -1.552   4.182  -0.697  0.00  0.00    -0.340 OA
ATOM      7  C   LIG    1       -1.119   4.566  -1.982  0.00  0.00    +0.200 C 
ATOM      8  C   LIG    1        0.340   4.983  -1.980  0.00  0.00    +0.140 C 
ATOM      9  C   LIG    1        1.228   3.926  -1.365  0.00  0.00    +0.180 C 
ATOM     10  C   LIG    1        0.722   3.376  -0.070  0.00  0.00    +0.210 C 
ATOM     11  O   LIG    1        1.097   1.958   0.002  0.00  0.00    -0.310 OA
ENDROOT
BRANCH   9  12
ATOM     12  O   LIG    1        2.522   4.491  -1.150  0.00  0.00    -0.550 OA
ATOM     13  H   LIG    1        2.954   4.804  -1.957  0.00  0.00    +0.400 HD
ENDBRANCH   9  12
BRANCH   8  14
ATOM     14  O   LIG    1        0.760   5.214  -3.326  0.00  0.00    -0.550 OA
ATOM     15  H   LIG    1        0.261   5.907  -3.780  0.00  0.00    +0.390 HD
ENDBRANCH   8  14
BRANCH   7  16
ATOM     16  C   LIG    1       -1.299   3.388  -2.942  0.00  0.00    +0.150 C 
BRANCH  16  17
ATOM     17  O   LIG    1       -2.690   3.093  -3.079  0.00  0.00    -0.560 OA
ATOM     18  H   LIG    1       -2.879   2.355  -3.674  0.00  0.00    +0.380 HD
ENDBRANCH  16  17
ENDBRANCH   7  16
TORSDOF 4
ENDMDL
MODEL       90
REMARK  Name = ZINC000017860887
REMARK                            x       y       z     vdW  Elec       q    Type
REMARK                         _______ _______ _______ _____ _____    ______ ____
ROOT
ATOM      1  C   LIG    1       -1.413  -2.041   0.005  0.00  0.00    +0.120 A 
ATOM      2  C   LIG    1       -2.092  -2.743   0.994  0.00  0.00    +0.200 A 
ATOM      3  N   LIG    1       -2.086  -4.061   1.004  0.00  0.00    -0.350 NA
ATOM      4  C   LIG    1       -1.427  -4.720   0.061  0.00  0.00    -0.070 A 
ATOM      5  C   LIG    1       -1.389  -6.192   0.025  0.00  0.00    +0.580 A 
ATOM      6  N   LIG    1       -0.690  -6.775  -0.977  0.00  0.00    -0.660 N 
ATOM      7  H   LIG    1       -0.642  -7.742  -1.032  0.00  0.00    +0.420 HD
ATOM      8  C   LIG    1       -0.051  -6.011  -1.909  0.00  0.00    +0.670 A 
ATOM      9  N   LIG    1       -0.071  -4.701  -1.896  0.00  0.00    -0.570 NA
ATOM     10  O   LIG    1       -1.964  -6.859   0.864  0.00  0.00    -0.470 OA
ATOM     11  C   LIG    1       -0.734  -4.012  -0.949  0.00  0.00    +0.360 A 
ATOM     12  N   LIG    1       -0.756  -2.679  -0.944  0.00  0.00    -0.400 NA
ENDROOT
BRANCH   8  13
ATOM     13  N   LIG    1        0.645  -6.643  -2.906  0.00  0.00    -0.810 N 
ATOM     14  H   LIG    1        1.108  -6.122  -3.580  0.00  0.00    +0.430 HD
ATOM     15  H   LIG    1        0.675  -7.612  -2.937  0.00  0.00    +0.420 HD
ENDBRANCH   8  13
BRANCH   1  16
ATOM     16  C   LIG    1       -1.433  -0.534   0.013  0.00  0.00    +0.310 C 
BRANCH  16  18
ATOM     17  C   LIG    1       -0.019   1.526   0.010  0.00  0.00    +0.020 C 
ATOM     18  C   LIG    1        0.002  -0.004   0.002  0.00  0.00    +0.130 C 
BRANCH  18  19
ATOM     19  O   LIG    1        0.671  -0.465  -1.174  0.00  0.00    -0.540 OA
ATOM     20  H   LIG    1        1.588  -0.167  -1.247  0.00  0.00    +0.380 HD
ENDBRANCH  18  19
ENDBRANCH  16  18
BRANCH  16  21
ATOM     21  O   LIG    1       -2.102  -0.073   1.189  0.00  0.00    -0.530 OA
ATOM     22  H   LIG    1       -1.687  -0.357   2.014  0.00  0.00    +0.380 HD
ENDBRANCH  16  21
ENDBRANCH   1  16
TORSDOF 5
ENDMDL
MODEL       91
REMARK  Name = ZINC000064858426
REMARK                            x       y       z     vdW  Elec       q    Type
REMARK                         _______ _______ _______ _____ _____    ______ ____
ROOT
ATOM      1  C   LIG    1        0.739  -2.004  -1.265  0.00  0.00    +0.090 C 
ATOM      2  N   LIG    1        0.197  -2.676  -0.305  0.00  0.00    -0.390 NA
ATOM      3  C   LIG    1        0.264  -4.141  -0.381  0.00  0.00    +0.110 C 
ATOM      4  C   LIG    1       -0.078  -4.768   0.936  0.00  0.00    +0.540 C 
ATOM      5  N   LIG    1        0.723  -5.662   1.499  0.00  0.00    -0.690 NA
ATOM      6  C   LIG    1        1.878  -6.012   0.952  0.00  0.00    +0.680 C 
ATOM      7  N   LIG    1        2.341  -5.432  -0.161  0.00  0.00    -0.650 NA
ATOM      8  O   LIG    1       -1.108  -4.452   1.498  0.00  0.00    -0.470 OA
ATOM      9  C   LIG    1        1.668  -4.522  -0.780  0.00  0.00    +0.480 C 
ATOM     10  N   LIG    1        2.203  -3.835  -1.826  0.00  0.00    -0.670 N 
ATOM     11  H   LIG    1        3.080  -4.044  -2.184  0.00  0.00    +0.430 HD
ATOM     12  C   LIG    1        1.389  -2.762  -2.402  0.00  0.00    +0.330 C 
ENDROOT
BRANCH   6  13
ATOM     13  N   LIG    1        2.619  -6.998   1.543  0.00  0.00    -0.780 N 
ATOM     14  H   LIG    1        3.467  -7.266   1.155  0.00  0.00    +0.420 HD
ATOM     15  H   LIG    1        2.297  -7.429   2.350  0.00  0.00    +0.420 HD
ENDBRANCH   6  13
BRANCH   1  16
ATOM     16  C   LIG    1        0.718  -0.497  -1.257  0.00  0.00    +0.250 C 
BRANCH  16  18
ATOM     17  C   LIG    1       -0.019   1.526   0.010  0.00  0.00    +0.020 C 
ATOM     18  C   LIG    1        0.002  -0.004   0.002  0.00  0.00    +0.200 C 
BRANCH  18  19
ATOM     19  O   LIG    1        0.693  -0.477   1.160  0.00  0.00    -0.540 OA
ATOM     20  H   LIG    1        1.611  -0.180   1.219  0.00  0.00    +0.370 HD
ENDBRANCH  18  19
ENDBRANCH  16  18
BRANCH  16  21
ATOM     21  O   LIG    1        0.027  -0.024  -2.414  0.00  0.00    -0.540 OA
ATOM     22  H   LIG    1       -0.891  -0.322  -2.473  0.00  0.00    +0.390 HD
ENDBRANCH  16  21
ENDBRANCH   1  16
TORSDOF 5
ENDMDL
MODEL       92
REMARK  Name = ZINC000064858420
REMARK                            x       y       z     vdW  Elec       q    Type
REMARK                         _______ _______ _______ _____ _____    ______ ____
ROOT
ATOM      1  C   LIG    1        0.739  -2.004  -1.265  0.00  0.00    +0.090 C 
ATOM      2  N   LIG    1        0.197  -2.676  -0.305  0.00  0.00    -0.390 NA
ATOM      3  C   LIG    1        0.252  -4.141  -0.388  0.00  0.00    +0.110 C 
ATOM      4  C   LIG    1       -0.699  -4.774   0.581  0.00  0.00    +0.540 C 
ATOM      5  N   LIG    1       -1.576  -5.686   0.185  0.00  0.00    -0.690 NA
ATOM      6  C   LIG    1       -1.686  -6.049  -1.084  0.00  0.00    +0.680 C 
ATOM      7  N   LIG    1       -0.972  -5.466  -2.054  0.00  0.00    -0.650 NA
ATOM      8  O   LIG    1       -0.665  -4.447   1.751  0.00  0.00    -0.460 OA
ATOM      9  C   LIG    1       -0.111  -4.541  -1.797  0.00  0.00    +0.480 C 
ATOM     10  N   LIG    1        0.507  -3.852  -2.795  0.00  0.00    -0.670 N 
ATOM     11  H   LIG    1        0.372  -4.071  -3.730  0.00  0.00    +0.430 HD
ATOM     12  C   LIG    1        1.389  -2.762  -2.402  0.00  0.00    +0.330 C 
ENDROOT
BRANCH   6  13
ATOM     13  N   LIG    1       -2.556  -7.052  -1.413  0.00  0.00    -0.780 N 
ATOM     14  H   LIG    1       -2.648  -7.330  -2.338  0.00  0.00    +0.420 HD
ATOM     15  H   LIG    1       -3.081  -7.486  -0.722  0.00  0.00    +0.420 HD
ENDBRANCH   6  13
BRANCH   1  16
ATOM     16  C   LIG    1        0.718  -0.497  -1.257  0.00  0.00    +0.260 C 
BRANCH  16  18
ATOM     17  C   LIG    1       -0.019   1.526   0.010  0.00  0.00    +0.020 C 
ATOM     18  C   LIG    1        0.002  -0.004   0.002  0.00  0.00    +0.190 C 
BRANCH  18  19
ATOM     19  O   LIG    1        0.693  -0.477   1.160  0.00  0.00    -0.530 OA
ATOM     20  H   LIG    1        1.611  -0.180   1.219  0.00  0.00    +0.370 HD
ENDBRANCH  18  19
ENDBRANCH  16  18
BRANCH  16  21
ATOM     21  O   LIG    1        0.027  -0.024  -2.414  0.00  0.00    -0.540 OA
ATOM     22  H   LIG    1       -0.891  -0.322  -2.473  0.00  0.00    +0.380 HD
ENDBRANCH  16  21
ENDBRANCH   1  16
TORSDOF 5
ENDMDL
MODEL       93
REMARK  Name = ZINC000247870030
REMARK                            x       y       z     vdW  Elec       q    Type
REMARK                         _______ _______ _______ _____ _____    ______ ____
ROOT
ATOM      1  C   LIG    1       -1.433  -0.534   0.013  0.00  0.00    -0.030 C 
ATOM      2  C   LIG    1       -2.110  -0.147   1.328  0.00  0.00    +0.230 C 
ATOM      3  O   LIG    1       -3.525  -0.254   1.202  0.00  0.00    -0.360 OA
ATOM      4  C   LIG    1       -4.045   0.295  -0.013  0.00  0.00    +0.170 C 
ATOM      5  C   LIG    1       -4.613  -0.836  -0.875  0.00  0.00    +0.120 C 
ATOM      6  C   LIG    1       -3.459  -1.626  -1.494  0.00  0.00    +0.150 C 
ATOM      7  C   LIG    1       -2.837  -2.539  -0.440  0.00  0.00    +0.180 C 
ATOM      8  C   LIG    1       -1.416  -2.061  -0.120  0.00  0.00    +0.190 C 
ENDROOT
BRANCH   7   9
ATOM      9  O   LIG    1       -2.788  -3.877  -0.939  0.00  0.00    -0.560 OA
ATOM     10  H   LIG    1       -3.653  -4.247  -1.162  0.00  0.00    +0.390 HD
ENDBRANCH   7   9
BRANCH   6  11
ATOM     11  O   LIG    1       -3.951  -2.417  -2.577  0.00  0.00    -0.550 OA
ATOM     12  H   LIG    1       -4.359  -1.903  -3.288  0.00  0.00    +0.380 HD
ENDBRANCH   6  11
BRANCH   5  13
ATOM     13  O   LIG    1       -5.405  -1.704  -0.062  0.00  0.00    -0.540 OA
ATOM     14  H   LIG    1       -6.154  -1.268   0.365  0.00  0.00    +0.380 HD
ENDBRANCH   5  13
BRANCH   8  15
ATOM     15  O   LIG    1       -0.977  -2.647   1.107  0.00  0.00    -0.560 OA
ATOM     16  H   LIG    1       -0.956  -3.614   1.095  0.00  0.00    +0.390 HD
ENDBRANCH   8  15
BRANCH   1  17
ATOM     17  C   LIG    1        0.002  -0.004   0.002  0.00  0.00    +0.190 C 
BRANCH  17  18
ATOM     18  O   LIG    1       -0.017   1.425   0.010  0.00  0.00    -0.580 OA
ATOM     19  H   LIG    1        0.861   1.830   0.004  0.00  0.00    +0.390 HD
ENDBRANCH  17  18
ENDBRANCH   1  17
TORSDOF 6
ENDMDL
MODEL       94
REMARK  Name = ZINC000072202830
REMARK                            x       y       z     vdW  Elec       q    Type
REMARK                         _______ _______ _______ _____ _____    ______ ____
ROOT
ATOM      1  C   LIG    1        0.976   1.264  -1.315  0.00  0.00    -0.140 A 
ATOM      2  C   LIG    1        1.045   2.660  -1.273  0.00  0.00    +0.070 A 
ATOM      3  C   LIG    1        2.257   3.295  -1.431  0.00  0.00    +0.070 A 
ATOM      4  C   LIG    1        3.418   2.543  -1.633  0.00  0.00    -0.140 A 
ATOM      5  C   LIG    1        3.350   1.148  -1.674  0.00  0.00    +0.070 A 
ATOM      6  C   LIG    1        2.139   0.512  -1.512  0.00  0.00    +0.070 A 
ENDROOT
BRANCH   1   8
ATOM      7  O   LIG    1       -0.398  -0.618  -1.282  0.00  0.00    -0.410 OA
ATOM      8  C   LIG    1       -0.321   0.584  -1.146  0.00  0.00    +0.370 C 
BRANCH   8   9
ATOM      9  C   LIG    1       -1.553   1.384  -0.811  0.00  0.00    +0.370 C 
BRANCH   9  10
ATOM     10  O   LIG    1       -1.239   2.339   0.205  0.00  0.00    -0.560 OA
ATOM     11  H   LIG    1       -0.921   1.946   1.029  0.00  0.00    +0.390 HD
ENDBRANCH   9  10
BRANCH   9  12
ATOM     12  O   LIG    1       -2.578   0.507  -0.339  0.00  0.00    -0.560 OA
ATOM     13  H   LIG    1       -3.402   0.955  -0.104  0.00  0.00    +0.400 HD
ENDBRANCH   9  12
ENDBRANCH   8   9
ENDBRANCH   1   8
BRANCH   4  14
ATOM     14  C   LIG    1        4.715   3.223  -1.803  0.00  0.00    +0.370 C 
ATOM     15  O   LIG    1        4.761   4.432  -1.880  0.00  0.00    -0.410 OA
BRANCH  14  16
ATOM     16  C   LIG    1        5.985   2.415  -1.880  0.00  0.00    +0.370 C 
BRANCH  16  17
ATOM     17  O   LIG    1        6.015   1.471  -0.807  0.00  0.00    -0.560 OA
ATOM     18  H   LIG    1        5.986   1.874   0.072  0.00  0.00    +0.390 HD
ENDBRANCH  16  17
BRANCH  16  19
ATOM     19  O   LIG    1        7.112   3.288  -1.778  0.00  0.00    -0.560 OA
ATOM     20  H   LIG    1        7.965   2.835  -1.820  0.00  0.00    +0.400 HD
ENDBRANCH  16  19
ENDBRANCH  14  16
ENDBRANCH   4  14
TORSDOF 8
ENDMDL
MODEL       95
REMARK  Name = ZINC000257223453
REMARK                            x       y       z     vdW  Elec       q    Type
REMARK                         _______ _______ _______ _____ _____    ______ ____
ROOT
ATOM      1  C   LIG    1        0.020  -2.136  -1.177  0.00  0.00    +0.260 C 
ATOM      2  C   LIG    1        1.474  -2.672  -1.183  0.00  0.00    +0.260 C 
ATOM      3  N   LIG    1        1.379  -4.012  -1.791  0.00  0.00    -0.620 N 
ATOM      4  C   LIG    1        0.176  -4.064  -2.634  0.00  0.00    +0.240 C 
ATOM      5  C   LIG    1        2.252  -5.022  -1.604  0.00  0.00    +0.530 C 
ATOM      6  O   LIG    1        3.214  -4.867  -0.882  0.00  0.00    -0.510 OA
ATOM      7  C   LIG    1       -0.524  -2.693  -2.519  0.00  0.00    +0.170 C 
ENDROOT
BRANCH   1  10
ATOM      8  C   LIG    1       -0.018   1.503   0.010  0.00  0.00    +0.110 C 
ATOM      9  C   LIG    1        0.002  -0.004   0.002  0.00  0.00    +0.510 C 
ATOM     10  N   LIG    1        0.000  -0.672  -1.169  0.00  0.00    -0.720 N 
ATOM     11  H   LIG    1       -0.015  -0.182  -2.006  0.00  0.00    +0.400 HD
ATOM     12  O   LIG    1        0.020  -0.616   1.049  0.00  0.00    -0.540 OA
ENDBRANCH   1  10
BRANCH   7  13
ATOM     13  O   LIG    1       -1.943  -2.852  -2.469  0.00  0.00    -0.550 OA
ATOM     14  H   LIG    1       -2.321  -3.267  -3.256  0.00  0.00    +0.390 HD
ENDBRANCH   7  13
BRANCH   5  15
ATOM     15  C   LIG    1        2.031  -6.345  -2.291  0.00  0.00    +0.210 C 
BRANCH  15  16
ATOM     16  N   LIG    1        3.111  -7.272  -1.928  0.00  0.00    -0.530 NA
ATOM     17  C   LIG    1        4.401  -6.812  -2.461  0.00  0.00    +0.200 C 
ATOM     18  C   LIG    1        2.810  -8.636  -2.382  0.00  0.00    +0.200 C 
ENDBRANCH  15  16
ENDBRANCH   5  15
TORSDOF 4
ENDMDL
MODEL       96
REMARK  Name = ZINC000257234234
REMARK                            x       y       z     vdW  Elec       q    Type
REMARK                         _______ _______ _______ _____ _____    ______ ____
ROOT
ATOM      1  C   LIG    1        0.034  -0.764   1.303  0.00  0.00    +0.100 C 
ATOM      2  C   LIG    1        0.002  -0.004   0.002  0.00  0.00    +0.510 C 
ATOM      3  N   LIG    1        0.102  -0.666  -1.167  0.00  0.00    -0.620 N 
ATOM      4  C   LIG    1        0.198   0.062  -2.442  0.00  0.00    +0.290 C 
ATOM      5  C   LIG    1       -0.856  -0.498  -3.403  0.00  0.00    +0.180 C 
ATOM      6  N   LIG    1       -0.695  -1.955  -3.506  0.00  0.00    -0.520 NA
ATOM      7  C   LIG    1       -0.933  -2.610  -2.214  0.00  0.00    +0.120 C 
ATOM      8  C   LIG    1       -1.572  -2.509  -4.547  0.00  0.00    +0.200 C 
ATOM      9  C   LIG    1        0.124  -2.137  -1.203  0.00  0.00    +0.310 C 
ATOM     10  O   LIG    1       -0.113   1.203   0.007  0.00  0.00    -0.540 OA
ENDROOT
BRANCH   7  11
ATOM     11  C   LIG    1       -0.833  -4.104  -2.381  0.00  0.00    +0.520 C 
ATOM     12  N   LIG    1       -1.393  -4.924  -1.470  0.00  0.00    -0.610 N 
ATOM     13  C   LIG    1       -2.099  -4.362  -0.316  0.00  0.00    +0.290 C 
ATOM     14  O   LIG    1       -0.248  -4.569  -3.337  0.00  0.00    -0.510 OA
BRANCH  12  15
ATOM     15  C   LIG    1       -1.295  -6.377  -1.633  0.00  0.00    +0.310 C 
BRANCH  15  16
ATOM     16  C   LIG    1       -0.031  -6.884  -0.936  0.00  0.00    +0.170 C 
BRANCH  16  17
ATOM     17  O   LIG    1       -0.145  -6.669   0.472  0.00  0.00    -0.570 OA
ATOM     18  H   LIG    1        0.623  -6.968   0.979  0.00  0.00    +0.380 HD
ENDBRANCH  16  17
ENDBRANCH  15  16
ENDBRANCH  12  15
ENDBRANCH   7  11
TORSDOF 4
ENDMDL
MODEL       97
REMARK  Name = ZINC000001752135
REMARK                            x       y       z     vdW  Elec       q    Type
REMARK                         _______ _______ _______ _____ _____    ______ ____
ROOT
ATOM      1  C   LIG    1       -0.003   1.509   0.260  0.00  0.00    +0.130 C 
ATOM      2  C   LIG    1        0.008  -0.015   0.126  0.00  0.00    -0.110 C 
ATOM      3  C   LIG    1        0.648  -0.368  -1.203  0.00  0.00    +0.530 C 
ATOM      4  N   LIG    1        1.742  -1.158  -1.179  0.00  0.00    -0.620 N 
ATOM      5  H   LIG    1        2.168  -1.398  -2.017  0.00  0.00    +0.450 HD
ATOM      6  C   LIG    1        2.256  -1.621  -0.034  0.00  0.00    +0.540 C 
ATOM      7  N   LIG    1        1.763  -1.365   1.183  0.00  0.00    -0.620 N 
ATOM      8  H   LIG    1        2.203  -1.745   1.959  0.00  0.00    +0.450 HD
ATOM      9  S   LIG    1        3.647  -2.615  -0.133  0.00  0.00    -0.480 S 
ATOM     10  O   LIG    1        0.193   0.045  -2.249  0.00  0.00    -0.440 OA
ATOM     11  C   LIG    1        0.671  -0.592   1.363  0.00  0.00    +0.530 C 
ATOM     12  O   LIG    1        0.235  -0.368   2.472  0.00  0.00    -0.440 OA
ENDROOT
BRANCH   2  13
ATOM     13  C   LIG    1       -1.443  -0.497   0.095  0.00  0.00    +0.110 C 
BRANCH  13  14
ATOM     14  C   LIG    1       -1.472  -2.021  -0.036  0.00  0.00    +0.150 C 
BRANCH  14  15
ATOM     15  O   LIG    1       -2.828  -2.471  -0.067  0.00  0.00    -0.560 OA
ATOM     16  H   LIG    1       -2.922  -3.430  -0.149  0.00  0.00    +0.390 HD
ENDBRANCH  14  15
ENDBRANCH  13  14
ENDBRANCH   2  13
TORSDOF 3
ENDMDL
MODEL       98
REMARK  Name = ZINC000006415987
REMARK                            x       y       z     vdW  Elec       q    Type
REMARK                         _______ _______ _______ _____ _____    ______ ____
ROOT
ATOM      1  C   ALA A  1       -1.412  -0.526   0.013  0.00  0.00    +0.520 C 
ATOM      2  N   PRO A  2       -2.256  -0.206  -0.988  0.00  0.00    -0.580 N 
ATOM      3  CD  PRO A  2       -1.927   0.635  -2.153  0.00  0.00    +0.250 C 
ATOM      4  CG  PRO A  2       -2.931   0.203  -3.251  0.00  0.00    +0.060 C 
ATOM      5  CB  PRO A  2       -4.213  -0.056  -2.416  0.00  0.00    +0.060 C 
ATOM      6  CA  PRO A  2       -3.654  -0.644  -1.103  0.00  0.00    +0.230 C 
ATOM      7  O   ALA A  1       -1.790  -1.233   0.922  0.00  0.00    -0.510 OA
ENDROOT
BRANCH   6   8
ATOM      8  C   PRO A  2       -4.447  -0.125   0.069  0.00  0.00    +0.500 C 
ATOM      9  N   GLY A  3       -5.765  -0.393   0.163  0.00  0.00    -0.690 N 
ATOM     10  H   GLY A  3       -6.203  -0.919  -0.524  0.00  0.00    +0.410 HD
ATOM     11  O   PRO A  2       -3.900   0.533   0.928  0.00  0.00    -0.550 OA
BRANCH   9  12
ATOM     12  CA  GLY A  3       -6.536   0.111   1.302  0.00  0.00    +0.190 C 
BRANCH  12  13
ATOM     13  C   GLY A  3       -7.972  -0.324   1.169  0.00  0.00    +0.490 C 
ATOM     14  OXT GLY A  3       -8.787  -0.007   2.019  0.00  0.00    -0.680 OA
ATOM     15  O   GLY A  3       -8.320  -0.993   0.211  0.00  0.00    -0.690 OA
ENDBRANCH  12  13
ENDBRANCH   9  12
ENDBRANCH   6   8
BRANCH   1  17
ATOM     16  CB  ALA A  1       -0.019   1.526   0.010  0.00  0.00    +0.100 C 
ATOM     17  CA  ALA A  1        0.002  -0.004   0.002  0.00  0.00    +0.180 C 
BRANCH  17  18
ATOM     18  N   ALA A  1        0.713  -0.491   1.192  0.00  0.00    -0.620 N 
ATOM     19  H1  ALA A  1        1.659  -0.141   1.185  0.00  0.00    +0.440 HD
ATOM     20  H2  ALA A  1        0.726  -1.500   1.187  0.00  0.00    +0.440 HD
ATOM     21  H3  ALA A  1        0.240  -0.165   2.022  0.00  0.00    +0.440 HD
ENDBRANCH  17  18
ENDBRANCH   1  17
TORSDOF 5
ENDMDL
MODEL       99
REMARK  Name = ZINC000006415990
REMARK                            x       y       z     vdW  Elec       q    Type
REMARK                         _______ _______ _______ _____ _____    ______ ____
ROOT
ATOM      1  C   ALA A  1       -1.412  -0.526   0.013  0.00  0.00    +0.520 C 
ATOM      2  N   PRO A  2       -2.256  -0.206  -0.988  0.00  0.00    -0.580 N 
ATOM      3  CD  PRO A  2       -1.927   0.635  -2.153  0.00  0.00    +0.260 C 
ATOM      4  CG  PRO A  2       -2.931   0.203  -3.251  0.00  0.00    +0.050 C 
ATOM      5  CB  PRO A  2       -4.213  -0.056  -2.416  0.00  0.00    +0.070 C 
ATOM      6  CA  PRO A  2       -3.654  -0.644  -1.103  0.00  0.00    +0.230 C 
ATOM      7  O   ALA A  1       -1.790  -1.233   0.922  0.00  0.00    -0.510 OA
ENDROOT
BRANCH   6   8
ATOM      8  C   PRO A  2       -3.729  -2.148  -1.142  0.00  0.00    +0.500 C 
ATOM      9  N   GLY A  3       -4.925  -2.761  -1.256  0.00  0.00    -0.690 N 
ATOM     10  H   GLY A  3       -5.737  -2.233  -1.311  0.00  0.00    +0.410 HD
ATOM     11  O   PRO A  2       -2.714  -2.808  -1.073  0.00  0.00    -0.550 OA
BRANCH   9  12
ATOM     12  CA  GLY A  3       -4.997  -4.224  -1.294  0.00  0.00    +0.190 C 
BRANCH  12  13
ATOM     13  C   GLY A  3       -6.436  -4.652  -1.423  0.00  0.00    +0.490 C 
ATOM     14  OXT GLY A  3       -6.718  -5.837  -1.473  0.00  0.00    -0.680 OA
ATOM     15  O   GLY A  3       -7.319  -3.813  -1.478  0.00  0.00    -0.690 OA
ENDBRANCH  12  13
ENDBRANCH   9  12
ENDBRANCH   6   8
BRANCH   1  17
ATOM     16  CB  ALA A  1       -0.019   1.526   0.010  0.00  0.00    +0.110 C 
ATOM     17  CA  ALA A  1        0.002  -0.004   0.002  0.00  0.00    +0.180 C 
BRANCH  17  18
ATOM     18  N   ALA A  1        0.713  -0.491   1.192  0.00  0.00    -0.620 N 
ATOM     19  H1  ALA A  1        1.659  -0.141   1.185  0.00  0.00    +0.440 HD
ATOM     20  H2  ALA A  1        0.726  -1.500   1.187  0.00  0.00    +0.450 HD
ATOM     21  H3  ALA A  1        0.240  -0.165   2.022  0.00  0.00    +0.440 HD
ENDBRANCH  17  18
ENDBRANCH   1  17
TORSDOF 5
ENDMDL
MODEL      100
REMARK  Name = ZINC000003872996
REMARK                            x       y       z     vdW  Elec       q    Type
REMARK                         _______ _______ _______ _____ _____    ______ ____
ROOT
ATOM      1  O   LIG    1       -0.436   0.165  -0.093  0.00  0.00    -0.470 OA
ATOM      2  C   LIG    1       -0.339   1.374  -0.088  0.00  0.00    +0.500 C 
ATOM      3  N   LIG    1       -1.368   2.245  -0.134  0.00  0.00    -0.710 N 
ATOM      4  H   LIG    1       -2.308   2.019  -0.217  0.00  0.00    +0.440 HD
ATOM      5  C   LIG    1       -0.811   3.594  -0.034  0.00  0.00    +0.480 C 
ATOM      6  C   LIG    1       -1.265   4.466  -1.208  0.00  0.00    +0.130 C 
ATOM      7  C   LIG    1       -0.443   5.759  -1.210  0.00  0.00    +0.120 C 
ATOM      8  C   LIG    1        1.036   5.448  -1.439  0.00  0.00    +0.200 C 
ATOM      9  C   LIG    1        1.568   4.587  -0.283  0.00  0.00    +0.300 C 
ATOM     10  N   LIG    1        0.654   3.450  -0.107  0.00  0.00    -0.600 N 
ATOM     11  C   LIG    1        0.940   2.145  -0.022  0.00  0.00    +0.510 C 
ATOM     12  O   LIG    1        2.052   1.667   0.070  0.00  0.00    -0.460 OA
ENDROOT
BRANCH   8  13
ATOM     13  O   LIG    1        1.775   6.669  -1.501  0.00  0.00    -0.540 OA
ATOM     14  H   LIG    1        1.495   7.263  -2.211  0.00  0.00    +0.390 HD
ENDBRANCH   8  13
BRANCH   7  15
ATOM     15  O   LIG    1       -0.595   6.418   0.049  0.00  0.00    -0.540 OA
ATOM     16  H   LIG    1       -1.507   6.659   0.259  0.00  0.00    +0.380 HD
ENDBRANCH   7  15
BRANCH   6  17
ATOM     17  O   LIG    1       -2.652   4.778  -1.065  0.00  0.00    -0.550 OA
ATOM     18  H   LIG    1       -3.007   5.329  -1.776  0.00  0.00    +0.390 HD
ENDBRANCH   6  17
BRANCH   9  19
ATOM     19  C   LIG    1        1.605   5.413   1.004  0.00  0.00    +0.210 C 
BRANCH  19  20
ATOM     20  O   LIG    1        2.237   4.655   2.038  0.00  0.00    -0.570 OA
ATOM     21  H   LIG    1        2.296   5.117   2.885  0.00  0.00    +0.380 HD
ENDBRANCH  19  20
ENDBRANCH   9  19
TORSDOF 5
ENDMDL
MODEL      101
REMARK  Name = ZINC000003872997
REMARK                            x       y       z     vdW  Elec       q    Type
REMARK                         _______ _______ _______ _____ _____    ______ ____
ROOT
ATOM      1  O   LIG    1        0.002  -0.004   0.002  0.00  0.00    -0.470 OA
ATOM      2  C   LIG    1       -0.014   1.209   0.009  0.00  0.00    +0.500 C 
ATOM      3  N   LIG    1       -1.122   1.980   0.029  0.00  0.00    -0.710 N 
ATOM      4  H   LIG    1       -2.039   1.666   0.001  0.00  0.00    +0.440 HD
ATOM      5  C   LIG    1       -0.688   3.375   0.102  0.00  0.00    +0.480 C 
ATOM      6  C   LIG    1       -1.292   4.201  -1.037  0.00  0.00    +0.130 C 
ATOM      7  C   LIG    1       -0.596   5.565  -1.081  0.00  0.00    +0.130 C 
ATOM      8  C   LIG    1        0.889   5.394  -1.401  0.00  0.00    +0.190 C 
ATOM      9  C   LIG    1        1.568   4.587  -0.283  0.00  0.00    +0.290 C 
ATOM     10  N   LIG    1        0.777   3.370  -0.059  0.00  0.00    -0.610 N 
ATOM     11  C   LIG    1        1.189   2.097   0.002  0.00  0.00    +0.500 C 
ATOM     12  O   LIG    1        2.344   1.726   0.024  0.00  0.00    -0.440 OA
ENDROOT
BRANCH   8  13
ATOM     13  O   LIG    1        1.506   6.680  -1.500  0.00  0.00    -0.540 OA
ATOM     14  H   LIG    1        1.129   7.244  -2.188  0.00  0.00    +0.390 HD
ENDBRANCH   8  13
BRANCH   7  15
ATOM     15  O   LIG    1       -0.733   6.206   0.188  0.00  0.00    -0.540 OA
ATOM     16  H   LIG    1       -1.650   6.361   0.454  0.00  0.00    +0.390 HD
ENDBRANCH   7  15
BRANCH   6  17
ATOM     17  O   LIG    1       -2.691   4.381  -0.809  0.00  0.00    -0.550 OA
ATOM     18  H   LIG    1       -3.138   4.896  -1.494  0.00  0.00    +0.390 HD
ENDBRANCH   6  17
BRANCH   9  19
ATOM     19  C   LIG    1        2.992   4.216  -0.702  0.00  0.00    +0.200 C 
BRANCH  19  20
ATOM     20  O   LIG    1        3.654   3.568   0.386  0.00  0.00    -0.550 OA
ATOM     21  H   LIG    1        4.564   3.304   0.192  0.00  0.00    +0.380 HD
ENDBRANCH  19  20
ENDBRANCH   9  19
TORSDOF 5
ENDMDL
MODEL      102
REMARK  Name = ZINC000013304552
REMARK                            x       y       z     vdW  Elec       q    Type
REMARK                         _______ _______ _______ _____ _____    ______ ____
ROOT
ATOM      1  C   LIG    1        0.673  -0.582   1.123  0.00  0.00    +0.170 C 
ATOM      2  C   LIG    1        2.156  -0.773   0.790  0.00  0.00    +0.140 C 
ATOM      3  C   LIG    1        2.851  -1.465   1.966  0.00  0.00    +0.150 C 
ATOM      4  O   LIG    1        2.207  -2.712   2.231  0.00  0.00    -0.380 OA
ATOM      5  C   LIG    1        0.830  -2.592   2.594  0.00  0.00    +0.320 C 
ATOM      6  C   LIG    1        0.053  -1.945   1.445  0.00  0.00    +0.250 C 
ENDROOT
BRANCH   6   7
ATOM      7  N   LIG    1       -1.348  -1.769   1.839  0.00  0.00    -0.720 N 
ATOM      8  H   LIG    1       -1.645  -0.923   2.208  0.00  0.00    +0.400 HD
ATOM      9  C   LIG    1       -2.223  -2.783   1.687  0.00  0.00    +0.510 C 
ATOM     10  O   LIG    1       -1.851  -3.841   1.225  0.00  0.00    -0.520 OA
ATOM     11  C   LIG    1       -3.663  -2.602   2.092  0.00  0.00    +0.080 C 
ENDBRANCH   6   7
BRANCH   1  13
ATOM     12  C   LIG    1       -0.017   1.425   0.010  0.00  0.00    +0.190 C 
ATOM     13  O   LIG    1        0.002  -0.004   0.002  0.00  0.00    -0.360 OA
ENDBRANCH   1  13
BRANCH   5  14
ATOM     14  O   LIG    1        0.293  -3.889   2.862  0.00  0.00    -0.520 OA
ATOM     15  H   LIG    1        0.738  -4.359   3.581  0.00  0.00    +0.380 HD
ENDBRANCH   5  14
BRANCH   2  16
ATOM     16  O   LIG    1        2.283  -1.580  -0.382  0.00  0.00    -0.530 OA
ATOM     17  H   LIG    1        3.197  -1.742  -0.652  0.00  0.00    +0.380 HD
ENDBRANCH   2  16
BRANCH   3  18
ATOM     18  C   LIG    1        4.320  -1.712   1.617  0.00  0.00    +0.210 C 
BRANCH  18  19
ATOM     19  O   LIG    1        4.995  -2.251   2.755  0.00  0.00    -0.560 OA
ATOM     20  H   LIG    1        5.933  -2.433   2.606  0.00  0.00    +0.390 HD
ENDBRANCH  18  19
ENDBRANCH   3  18
TORSDOF 6
ENDMDL
MODEL      103
REMARK  Name = ZINC000108349328
REMARK                            x       y       z     vdW  Elec       q    Type
REMARK                         _______ _______ _______ _____ _____    ______ ____
ROOT
ATOM      1  C   LIG    1       -1.000  -2.663   1.418  0.00  0.00    +0.310 C 
ENDROOT
BRANCH   1   2
ATOM      2  N   LIG    1       -1.174  -4.117   1.435  0.00  0.00    -0.580 N 
ATOM      3  C   LIG    1       -2.347  -4.736   1.674  0.00  0.00    +0.510 C 
ATOM      4  C   LIG    1       -2.052  -6.220   1.589  0.00  0.00    +0.320 C 
ATOM      5  N   LIG    1       -0.612  -6.270   1.284  0.00  0.00    -0.730 N 
ATOM      6  H   LIG    1       -0.073  -7.067   1.159  0.00  0.00    +0.450 HD
ATOM      7  O   LIG    1       -3.417  -4.214   1.907  0.00  0.00    -0.460 OA
ATOM      8  C   LIG    1       -0.190  -4.995   1.208  0.00  0.00    +0.700 C 
ATOM      9  O   LIG    1        0.958  -4.676   0.969  0.00  0.00    -0.530 OA
ENDBRANCH   1   2
BRANCH   1  10
ATOM     10  C   LIG    1       -1.244  -2.135   0.003  0.00  0.00    +0.220 C 
BRANCH  10  11
ATOM     11  N   LIG    1       -2.568  -2.572  -0.461  0.00  0.00    -0.820 NA
ATOM     12  H   LIG    1       -3.296  -2.223   0.144  0.00  0.00    +0.360 HD
ATOM     13  H   LIG    1       -2.611  -3.577  -0.536  0.00  0.00    +0.350 HD
ENDBRANCH  10  11
BRANCH  10  14
ATOM     14  C   LIG    1       -1.185  -0.630   0.010  0.00  0.00    +0.470 C 
ATOM     15  O   LIG    1       -2.208   0.015   0.023  0.00  0.00    -0.490 OA
BRANCH  14  17
ATOM     16  C   LIG    1       -0.018   1.448   0.010  0.00  0.00    +0.290 C 
ATOM     17  O   LIG    1        0.002  -0.004   0.002  0.00  0.00    -0.360 OA
ENDBRANCH  14  17
ENDBRANCH  10  14
ENDBRANCH   1  10
TORSDOF 5
ENDMDL
MODEL      104
REMARK  Name = ZINC000108349331
REMARK                            x       y       z     vdW  Elec       q    Type
REMARK                         _______ _______ _______ _____ _____    ______ ____
ROOT
ATOM      1  C   LIG    1       -1.027  -2.647  -1.423  0.00  0.00    +0.340 C 
ENDROOT
BRANCH   1   2
ATOM      2  N   LIG    1       -1.202  -4.101  -1.452  0.00  0.00    -0.560 N 
ATOM      3  C   LIG    1       -0.208  -4.988  -1.248  0.00  0.00    +0.520 C 
ATOM      4  C   LIG    1       -0.847  -6.357  -1.369  0.00  0.00    +0.300 C 
ATOM      5  N   LIG    1       -2.260  -6.054  -1.655  0.00  0.00    -0.730 N 
ATOM      6  H   LIG    1       -2.974  -6.696  -1.795  0.00  0.00    +0.440 HD
ATOM      7  O   LIG    1        0.956  -4.742  -1.015  0.00  0.00    -0.470 OA
ATOM      8  C   LIG    1       -2.370  -4.714  -1.678  0.00  0.00    +0.710 C 
ATOM      9  O   LIG    1       -3.412  -4.124  -1.889  0.00  0.00    -0.530 OA
ENDBRANCH   1   2
BRANCH   1  10
ATOM     10  C   LIG    1       -1.244  -2.135   0.003  0.00  0.00    +0.210 C 
BRANCH  10  11
ATOM     11  N   LIG    1       -2.559  -2.577   0.486  0.00  0.00    -0.810 NA
ATOM     12  H   LIG    1       -3.298  -2.221  -0.101  0.00  0.00    +0.360 HD
ATOM     13  H   LIG    1       -2.700  -2.307   1.448  0.00  0.00    +0.350 HD
ENDBRANCH  10  11
BRANCH  10  14
ATOM     14  C   LIG    1       -1.185  -0.630   0.010  0.00  0.00    +0.430 C 
ATOM     15  O   LIG    1       -2.208   0.015   0.023  0.00  0.00    -0.500 OA
BRANCH  14  17
ATOM     16  C   LIG    1       -0.018   1.448   0.010  0.00  0.00    +0.270 C 
ATOM     17  O   LIG    1        0.002  -0.004   0.002  0.00  0.00    -0.360 OA
ENDBRANCH  14  17
ENDBRANCH  10  14
ENDBRANCH   1  10
TORSDOF 5
ENDMDL
MODEL      105
REMARK  Name = ZINC000004100813
REMARK                            x       y       z     vdW  Elec       q    Type
REMARK                         _______ _______ _______ _____ _____    ______ ____
ROOT
ATOM      1  C   LIG    1        0.652  -0.570  -1.138  0.00  0.00    +0.190 C 
ATOM      2  C   LIG    1        2.140  -0.759  -0.835  0.00  0.00    +0.120 C 
ATOM      3  C   LIG    1        2.301  -1.698   0.362  0.00  0.00    +0.160 C 
ATOM      4  C   LIG    1        1.671  -3.053   0.037  0.00  0.00    +0.210 C 
ATOM      5  C   LIG    1        0.183  -2.864  -0.266  0.00  0.00    +0.140 C 
ATOM      6  C   LIG    1        0.021  -1.926  -1.463  0.00  0.00    +0.160 C 
ENDROOT
BRANCH   1   8
ATOM      7  C   LIG    1       -0.017   1.425   0.010  0.00  0.00    +0.230 C 
ATOM      8  O   LIG    1        0.002  -0.004   0.002  0.00  0.00    -0.370 OA
ENDBRANCH   1   8
BRANCH   5   9
ATOM      9  O   LIG    1       -0.406  -4.130  -0.569  0.00  0.00    -0.560 OA
ATOM     10  H   LIG    1       -1.350  -4.086  -0.772  0.00  0.00    +0.380 HD
ENDBRANCH   5   9
BRANCH   4  11
ATOM     11  O   LIG    1        1.822  -3.929   1.156  0.00  0.00    -0.370 OA
ATOM     12  C   LIG    1        1.917  -5.311   0.803  0.00  0.00    +0.210 C 
ENDBRANCH   4  11
BRANCH   3  13
ATOM     13  O   LIG    1        3.691  -1.874   0.645  0.00  0.00    -0.550 OA
ATOM     14  H   LIG    1        4.156  -1.054   0.860  0.00  0.00    +0.380 HD
ENDBRANCH   3  13
BRANCH   2  15
ATOM     15  O   LIG    1        2.789  -1.325  -1.975  0.00  0.00    -0.530 OA
ATOM     16  H   LIG    1        3.737  -1.473  -1.855  0.00  0.00    +0.380 HD
ENDBRANCH   2  15
BRANCH   6  17
ATOM     17  O   LIG    1        0.671  -2.492  -2.603  0.00  0.00    -0.530 OA
ATOM     18  H   LIG    1        0.322  -3.354  -2.867  0.00  0.00    +0.380 HD
ENDBRANCH   6  17
TORSDOF 6
ENDMDL
MODEL      106
REMARK  Name = ZINC000018270605
REMARK                            x       y       z     vdW  Elec       q    Type
REMARK                         _______ _______ _______ _____ _____    ______ ____
ROOT
ATOM      1  C   LIG    1        0.652  -0.570  -1.138  0.00  0.00    +0.190 C 
ATOM      2  C   LIG    1        2.140  -0.759  -0.835  0.00  0.00    +0.150 C 
ATOM      3  C   LIG    1        2.835  -1.365  -2.056  0.00  0.00    +0.160 C 
ATOM      4  C   LIG    1        2.205  -2.721  -2.381  0.00  0.00    +0.200 C 
ATOM      5  C   LIG    1        0.717  -2.532  -2.684  0.00  0.00    +0.140 C 
ATOM      6  C   LIG    1        0.021  -1.926  -1.463  0.00  0.00    +0.170 C 
ENDROOT
BRANCH   1   8
ATOM      7  C   LIG    1       -0.017   1.425   0.010  0.00  0.00    +0.210 C 
ATOM      8  O   LIG    1        0.002  -0.004   0.002  0.00  0.00    -0.370 OA
ENDBRANCH   1   8
BRANCH   5   9
ATOM      9  O   LIG    1        0.128  -3.798  -2.987  0.00  0.00    -0.560 OA
ATOM     10  H   LIG    1       -0.816  -3.754  -3.190  0.00  0.00    +0.380 HD
ENDBRANCH   5   9
BRANCH   4  11
ATOM     11  O   LIG    1        2.356  -3.597  -1.262  0.00  0.00    -0.380 OA
ATOM     12  C   LIG    1        2.451  -4.979  -1.615  0.00  0.00    +0.220 C 
ENDBRANCH   4  11
BRANCH   3  13
ATOM     13  O   LIG    1        2.684  -0.489  -3.174  0.00  0.00    -0.550 OA
ATOM     14  H   LIG    1        3.062   0.391  -3.038  0.00  0.00    +0.390 HD
ENDBRANCH   3  13
BRANCH   2  15
ATOM     15  O   LIG    1        2.728   0.507  -0.531  0.00  0.00    -0.560 OA
ATOM     16  H   LIG    1        3.673   0.463  -0.329  0.00  0.00    +0.380 HD
ENDBRANCH   2  15
BRANCH   6  17
ATOM     17  O   LIG    1       -1.368  -1.749  -1.746  0.00  0.00    -0.550 OA
ATOM     18  H   LIG    1       -1.833  -2.570  -1.961  0.00  0.00    +0.380 HD
ENDBRANCH   6  17
TORSDOF 6
ENDMDL
MODEL      107
REMARK  Name = ZINC000004100816
REMARK                            x       y       z     vdW  Elec       q    Type
REMARK                         _______ _______ _______ _____ _____    ______ ____
ROOT
ATOM      1  C   LIG    1        0.652  -0.570  -1.138  0.00  0.00    +0.190 C 
ATOM      2  C   LIG    1        2.140  -0.759  -0.835  0.00  0.00    +0.160 C 
ATOM      3  C   LIG    1        2.835  -1.365  -2.056  0.00  0.00    +0.150 C 
ATOM      4  C   LIG    1        2.205  -2.721  -2.381  0.00  0.00    +0.190 C 
ATOM      5  C   LIG    1        0.717  -2.532  -2.684  0.00  0.00    +0.120 C 
ATOM      6  C   LIG    1        0.021  -1.926  -1.463  0.00  0.00    +0.160 C 
ENDROOT
BRANCH   1   8
ATOM      7  C   LIG    1       -0.017   1.425   0.010  0.00  0.00    +0.210 C 
ATOM      8  O   LIG    1        0.002  -0.004   0.002  0.00  0.00    -0.360 OA
ENDBRANCH   1   8
BRANCH   5   9
ATOM      9  O   LIG    1        0.128  -3.798  -2.987  0.00  0.00    -0.550 OA
ATOM     10  H   LIG    1       -0.816  -3.754  -3.190  0.00  0.00    +0.380 HD
ENDBRANCH   5   9
BRANCH   4  11
ATOM     11  O   LIG    1        2.356  -3.597  -1.262  0.00  0.00    -0.350 OA
ATOM     12  C   LIG    1        2.451  -4.979  -1.615  0.00  0.00    +0.200 C 
ENDBRANCH   4  11
BRANCH   3  13
ATOM     13  O   LIG    1        4.225  -1.542  -1.773  0.00  0.00    -0.550 OA
ATOM     14  H   LIG    1        4.690  -0.722  -1.558  0.00  0.00    +0.380 HD
ENDBRANCH   3  13
BRANCH   2  15
ATOM     15  O   LIG    1        2.728   0.507  -0.531  0.00  0.00    -0.560 OA
ATOM     16  H   LIG    1        3.673   0.463  -0.329  0.00  0.00    +0.380 HD
ENDBRANCH   2  15
BRANCH   6  17
ATOM     17  O   LIG    1        0.172  -2.802  -0.345  0.00  0.00    -0.520 OA
ATOM     18  H   LIG    1       -0.205  -3.682  -0.480  0.00  0.00    +0.380 HD
ENDBRANCH   6  17
TORSDOF 6
ENDMDL
MODEL      108
REMARK  Name = ZINC000521824926
REMARK                            x       y       z     vdW  Elec       q    Type
REMARK                         _______ _______ _______ _____ _____    ______ ____
ROOT
ATOM      1  N   LIG    1       -1.409   3.481   2.428  0.00  0.00    -0.750 N 
ATOM      2  H   LIG    1       -1.765   2.842   3.065  0.00  0.00    +0.400 HD
ATOM      3  C   LIG    1       -1.545   4.803   2.652  0.00  0.00    +0.700 C 
ATOM      4  N   LIG    1       -2.262   5.238   3.707  0.00  0.00    -0.510 N 
ATOM      5  C   LIG    1       -2.759   4.330   4.615  0.00  0.00    +0.180 A 
ATOM      6  C   LIG    1       -3.476   4.768   5.670  0.00  0.00    -0.020 A 
ATOM      7  C   LIG    1       -3.703   6.161   5.820  0.00  0.00    +0.500 A 
ATOM      8  N   LIG    1       -3.200   7.016   4.908  0.00  0.00    -0.660 NA
ATOM      9  O   LIG    1       -4.348   6.580   6.764  0.00  0.00    -0.550 OA
ATOM     10  F   LIG    1       -3.971   3.892   6.572  0.00  0.00    -0.130 F 
ATOM     11  C   LIG    1       -2.482   6.555   3.866  0.00  0.00    +0.640 A 
ATOM     12  O   LIG    1       -2.034   7.340   3.053  0.00  0.00    -0.540 OA
ATOM     13  O   LIG    1       -1.020   5.603   1.902  0.00  0.00    -0.510 OA
ENDROOT
BRANCH   1  14
ATOM     14  C   LIG    1       -0.723   3.009   1.222  0.00  0.00    +0.290 C 
BRANCH  14  15
ATOM     15  C   LIG    1       -0.707   1.479   1.211  0.00  0.00    +0.260 C 
BRANCH  15  16
ATOM     16  N   LIG    1       -0.019   1.006   0.002  0.00  0.00    -0.630 N 
ATOM     17  H   LIG    1       -0.506   1.342  -0.815  0.00  0.00    +0.440 HD
ATOM     18  H   LIG    1        0.928   1.352  -0.004  0.00  0.00    +0.440 HD
ATOM     19  H   LIG    1       -0.008  -0.003  -0.005  0.00  0.00    +0.440 HD
ENDBRANCH  15  16
ENDBRANCH  14  15
ENDBRANCH   1  14
TORSDOF 3
ENDMDL
MODEL      109
REMARK  Name = ZINC000005500084
REMARK                            x       y       z     vdW  Elec       q    Type
REMARK                         _______ _______ _______ _____ _____    ______ ____
ROOT
ATOM      1  C   LIG    1       -0.019   1.526   0.010  0.00  0.00    +0.060 C 
ATOM      2  C   LIG    1        0.002  -0.004   0.002  0.00  0.00    +0.250 C 
ATOM      3  O   LIG    1        0.689  -0.472  -1.175  0.00  0.00    -0.380 OA
ATOM      4  C   LIG    1        1.401  -1.640  -0.728  0.00  0.00    +0.370 C 
ATOM      5  O   LIG    1        2.462  -2.000  -1.551  0.00  0.00    -0.340 OA
ATOM      6  C   LIG    1        3.799  -1.690  -1.324  0.00  0.00    +0.180 C 
ATOM      7  C   LIG    1        4.160  -0.858  -0.128  0.00  0.00    +0.130 C 
ATOM      8  C   LIG    1        2.985  -0.262   0.615  0.00  0.00    +0.180 C 
ATOM      9  C   LIG    1        1.839  -1.239   0.693  0.00  0.00    +0.170 C 
ATOM     10  C   LIG    1       -1.432  -0.537   0.003  0.00  0.00    +0.060 C 
ATOM     11  O   LIG    1        0.695  -0.483   1.163  0.00  0.00    -0.360 OA
ENDROOT
BRANCH   8  12
ATOM     12  O   LIG    1        3.397   0.089   1.938  0.00  0.00    -0.530 OA
ATOM     13  H   LIG    1        4.116   0.736   1.967  0.00  0.00    +0.380 HD
ENDBRANCH   8  12
BRANCH   7  14
ATOM     14  O   LIG    1        4.897  -1.675   0.784  0.00  0.00    -0.540 OA
ATOM     15  H   LIG    1        5.716  -2.034   0.416  0.00  0.00    +0.380 HD
ENDBRANCH   7  14
BRANCH   6  16
ATOM     16  C   LIG    1        4.321  -0.963  -2.565  0.00  0.00    +0.180 C 
BRANCH  16  17
ATOM     17  O   LIG    1        4.301  -1.853  -3.683  0.00  0.00    -0.560 OA
ATOM     18  H   LIG    1        4.619  -1.459  -4.506  0.00  0.00    +0.380 HD
ENDBRANCH  16  17
ENDBRANCH   6  16
TORSDOF 4
ENDMDL
MODEL      110
REMARK  Name = ZINC000257277301
REMARK                            x       y       z     vdW  Elec       q    Type
REMARK                         _______ _______ _______ _____ _____    ______ ____
ROOT
ATOM      1  C   LIG    1        0.633  -2.085   1.012  0.00  0.00    +0.520 C 
ATOM      2  N   LIG    1        1.208  -2.846   1.964  0.00  0.00    -0.610 N 
ATOM      3  C   LIG    1        1.874  -2.232   3.123  0.00  0.00    +0.290 C 
ATOM      4  C   LIG    1        1.324  -2.876   4.399  0.00  0.00    +0.180 C 
ATOM      5  N   LIG    1        1.462  -4.336   4.306  0.00  0.00    -0.520 NA
ATOM      6  C   LIG    1        0.662  -4.877   3.199  0.00  0.00    +0.120 C 
ATOM      7  C   LIG    1        1.106  -4.981   5.577  0.00  0.00    +0.200 C 
ATOM      8  C   LIG    1        1.180  -4.314   1.876  0.00  0.00    +0.320 C 
ATOM      9  O   LIG    1        0.084  -2.609   0.067  0.00  0.00    -0.510 OA
ENDROOT
BRANCH   6  10
ATOM     10  C   LIG    1        0.773  -6.380   3.186  0.00  0.00    +0.520 C 
ATOM     11  O   LIG    1        1.698  -6.925   3.750  0.00  0.00    -0.520 OA
ATOM     12  N   LIG    1       -0.156  -7.118   2.548  0.00  0.00    -0.850 N 
ATOM     13  H   LIG    1       -0.085  -8.086   2.540  0.00  0.00    +0.410 HD
ATOM     14  H   LIG    1       -0.896  -6.683   2.097  0.00  0.00    +0.400 HD
ENDBRANCH   6  10
BRANCH   1  15
ATOM     15  C   LIG    1        0.673  -0.582   1.123  0.00  0.00    +0.200 C 
BRANCH  15  17
ATOM     16  C   LIG    1       -0.017   1.425   0.010  0.00  0.00    +0.210 C 
ATOM     17  O   LIG    1        0.002  -0.004   0.002  0.00  0.00    -0.370 OA
ENDBRANCH  15  17
ENDBRANCH   1  15
TORSDOF 3
ENDMDL
MODEL      111
REMARK  Name = ZINC000253495597
REMARK                            x       y       z     vdW  Elec       q    Type
REMARK                         _______ _______ _______ _____ _____    ______ ____
ROOT
ATOM      1  C   LIG    1        0.633  -2.085   1.012  0.00  0.00    +0.520 C 
ATOM      2  N   LIG    1        1.208  -2.846   1.964  0.00  0.00    -0.610 N 
ATOM      3  C   LIG    1        1.976  -2.257   3.081  0.00  0.00    +0.250 C 
ATOM      4  C   LIG    1        1.492  -2.834   4.411  0.00  0.00    +0.230 C 
ATOM      5  N   LIG    1        1.441  -4.308   4.364  0.00  0.00    -0.650 NA
ATOM      6  H   LIG    1        2.360  -4.697   4.215  0.00  0.00    +0.350 HD
ATOM      7  C   LIG    1        0.518  -4.729   3.316  0.00  0.00    +0.180 C 
ATOM      8  C   LIG    1        0.326  -6.253   3.220  0.00  0.00    -0.290 C 
ATOM      9  S   LIG    1       -0.433  -6.429   1.555  0.00  0.00    +2.380 S 
ATOM     10  C   LIG    1        0.208  -4.859   0.853  0.00  0.00    -0.260 C 
ATOM     11  O   LIG    1       -1.848  -6.353   1.671  0.00  0.00    -0.920 OA
ATOM     12  O   LIG    1        0.164  -7.526   0.878  0.00  0.00    -0.930 OA
ATOM     13  C   LIG    1        1.104  -4.304   1.959  0.00  0.00    +0.210 C 
ATOM     14  O   LIG    1        0.097  -2.608   0.059  0.00  0.00    -0.500 OA
ENDROOT
BRANCH   1  15
ATOM     15  C   LIG    1        0.657  -0.583   1.133  0.00  0.00    +0.200 C 
BRANCH  15  17
ATOM     16  C   LIG    1       -0.045   1.424   0.026  0.00  0.00    +0.230 C 
ATOM     17  O   LIG    1       -0.011  -0.004   0.010  0.00  0.00    -0.370 OA
ENDBRANCH  15  17
ENDBRANCH   1  15
TORSDOF 2
ENDMDL
MODEL      112
REMARK  Name = ZINC000253495599
REMARK                            x       y       z     vdW  Elec       q    Type
REMARK                         _______ _______ _______ _____ _____    ______ ____
ROOT
ATOM      1  C   LIG    1        0.633  -2.085   1.012  0.00  0.00    +0.520 C 
ATOM      2  N   LIG    1        1.208  -2.846   1.964  0.00  0.00    -0.600 N 
ATOM      3  C   LIG    1        1.871  -2.222   3.118  0.00  0.00    +0.240 C 
ATOM      4  C   LIG    1        1.325  -2.879   4.392  0.00  0.00    +0.230 C 
ATOM      5  N   LIG    1        1.522  -4.330   4.301  0.00  0.00    -0.680 NA
ATOM      6  H   LIG    1        2.501  -4.557   4.215  0.00  0.00    +0.340 HD
ATOM      7  C   LIG    1        0.746  -4.922   3.203  0.00  0.00    +0.210 C 
ATOM      8  C   LIG    1        1.048  -6.436   3.161  0.00  0.00    -0.280 C 
ATOM      9  S   LIG    1        2.466  -6.606   2.019  0.00  0.00    +2.390 S 
ATOM     10  C   LIG    1        2.603  -4.835   1.565  0.00  0.00    -0.320 C 
ATOM     11  O   LIG    1        2.067  -7.358   0.881  0.00  0.00    -0.920 OA
ATOM     12  O   LIG    1        3.619  -6.994   2.754  0.00  0.00    -0.930 OA
ATOM     13  C   LIG    1        1.175  -4.306   1.867  0.00  0.00    +0.240 C 
ATOM     14  O   LIG    1        0.084  -2.609   0.067  0.00  0.00    -0.510 OA
ENDROOT
BRANCH   1  15
ATOM     15  C   LIG    1        0.673  -0.582   1.123  0.00  0.00    +0.210 C 
BRANCH  15  17
ATOM     16  C   LIG    1       -0.017   1.425   0.010  0.00  0.00    +0.230 C 
ATOM     17  O   LIG    1        0.002  -0.004   0.002  0.00  0.00    -0.370 OA
ENDBRANCH  15  17
ENDBRANCH   1  15
TORSDOF 2
ENDMDL
MODEL      113
REMARK  Name = ZINC000253495600
REMARK                            x       y       z     vdW  Elec       q    Type
REMARK                         _______ _______ _______ _____ _____    ______ ____
ROOT
ATOM      1  C   LIG    1        0.633  -2.085   1.012  0.00  0.00    +0.520 C 
ATOM      2  N   LIG    1        1.208  -2.846   1.964  0.00  0.00    -0.610 N 
ATOM      3  C   LIG    1        1.883  -2.255   3.138  0.00  0.00    +0.290 C 
ATOM      4  C   LIG    1        3.276  -2.863   3.303  0.00  0.00    +0.180 C 
ATOM      5  N   LIG    1        3.220  -4.337   3.261  0.00  0.00    -0.670 NA
ATOM      6  H   LIG    1        4.132  -4.738   3.416  0.00  0.00    +0.360 HD
ATOM      7  C   LIG    1        2.670  -4.767   1.982  0.00  0.00    +0.140 C 
ATOM      8  C   LIG    1        2.699  -6.275   1.736  0.00  0.00    -0.300 C 
ATOM      9  S   LIG    1        1.301  -6.571   0.585  0.00  0.00    +2.380 S 
ATOM     10  C   LIG    1        0.670  -4.844   0.556  0.00  0.00    -0.250 C 
ATOM     11  O   LIG    1        0.345  -7.415   1.212  0.00  0.00    -0.930 OA
ATOM     12  O   LIG    1        1.810  -6.908  -0.698  0.00  0.00    -0.930 OA
ATOM     13  C   LIG    1        1.195  -4.308   1.901  0.00  0.00    +0.260 C 
ATOM     14  O   LIG    1        0.084  -2.609   0.067  0.00  0.00    -0.500 OA
ENDROOT
BRANCH   1  15
ATOM     15  C   LIG    1        0.673  -0.582   1.123  0.00  0.00    +0.200 C 
BRANCH  15  17
ATOM     16  C   LIG    1       -0.017   1.425   0.010  0.00  0.00    +0.220 C 
ATOM     17  O   LIG    1        0.002  -0.004   0.002  0.00  0.00    -0.370 OA
ENDBRANCH  15  17
ENDBRANCH   1  15
TORSDOF 2
ENDMDL
MODEL      114
REMARK  Name = ZINC000257277300
REMARK                            x       y       z     vdW  Elec       q    Type
REMARK                         _______ _______ _______ _____ _____    ______ ____
ROOT
ATOM      1  C   LIG    1        0.633  -2.085   1.012  0.00  0.00    +0.520 C 
ATOM      2  N   LIG    1        1.208  -2.846   1.964  0.00  0.00    -0.610 N 
ATOM      3  C   LIG    1        1.874  -2.232   3.123  0.00  0.00    +0.290 C 
ATOM      4  C   LIG    1        3.277  -2.834   3.254  0.00  0.00    +0.180 C 
ATOM      5  N   LIG    1        3.174  -4.299   3.302  0.00  0.00    -0.520 NA
ATOM      6  C   LIG    1        2.615  -4.835   2.053  0.00  0.00    +0.120 C 
ATOM      7  C   LIG    1        4.477  -4.908   3.599  0.00  0.00    +0.200 C 
ATOM      8  C   LIG    1        1.180  -4.314   1.876  0.00  0.00    +0.320 C 
ATOM      9  O   LIG    1        0.084  -2.609   0.067  0.00  0.00    -0.510 OA
ENDROOT
BRANCH   6  10
ATOM     10  C   LIG    1        2.599  -6.340   2.115  0.00  0.00    +0.520 C 
ATOM     11  O   LIG    1        2.657  -6.904   3.188  0.00  0.00    -0.520 OA
ATOM     12  N   LIG    1        2.519  -7.061   0.979  0.00  0.00    -0.850 N 
ATOM     13  H   LIG    1        2.508  -8.030   1.019  0.00  0.00    +0.410 HD
ATOM     14  H   LIG    1        2.472  -6.610   0.121  0.00  0.00    +0.400 HD
ENDBRANCH   6  10
BRANCH   1  15
ATOM     15  C   LIG    1        0.673  -0.582   1.123  0.00  0.00    +0.200 C 
BRANCH  15  17
ATOM     16  C   LIG    1       -0.017   1.425   0.010  0.00  0.00    +0.220 C 
ATOM     17  O   LIG    1        0.002  -0.004   0.002  0.00  0.00    -0.370 OA
ENDBRANCH  15  17
ENDBRANCH   1  15
TORSDOF 3
ENDMDL
MODEL      115
REMARK  Name = ZINC000090397553
REMARK                            x       y       z     vdW  Elec       q    Type
REMARK                         _______ _______ _______ _____ _____    ______ ____
ROOT
ATOM      1  C   LIG    1        1.505  -3.301  -0.023  0.00  0.00    +0.500 C 
ENDROOT
BRANCH   1   2
ATOM      2  N   LIG    1        1.775  -3.696  -1.407  0.00  0.00    -0.540 N 
ATOM      3  C   LIG    1        0.918  -4.547  -2.049  0.00  0.00    +0.360 A 
ATOM      4  C   LIG    1        1.167  -4.911  -3.325  0.00  0.00    -0.110 A 
ATOM      5  C   LIG    1        2.316  -4.400  -3.975  0.00  0.00    +0.550 A 
ATOM      6  N   LIG    1        3.137  -3.563  -3.308  0.00  0.00    -0.660 N 
ATOM      7  H   LIG    1        3.926  -3.209  -3.747  0.00  0.00    +0.430 HD
ATOM      8  O   LIG    1        2.562  -4.713  -5.126  0.00  0.00    -0.510 OA
ATOM      9  C   LIG    1        2.862  -3.213  -2.038  0.00  0.00    +0.700 A 
ATOM     10  O   LIG    1        3.610  -2.458  -1.449  0.00  0.00    -0.530 OA
ENDBRANCH   1   2
BRANCH   1  14
ATOM     11  C   LIG    1        0.002  -0.004   0.002  0.00  0.00    +0.440 A 
ATOM     12  N   LIG    1       -1.043  -0.796   0.002  0.00  0.00    -0.340 NA
ATOM     13  N   LIG    1       -0.649  -2.020  -0.006  0.00  0.00    -0.230 NA
ATOM     14  C   LIG    1        0.651  -2.059  -0.012  0.00  0.00    +0.100 A 
ATOM     15  O   LIG    1        1.096  -0.787  -0.013  0.00  0.00    -0.230 OA
BRANCH  11  16
ATOM     16  N   LIG    1       -0.017   1.378   0.010  0.00  0.00    -0.790 N 
ATOM     17  H   LIG    1       -0.863   1.852   0.016  0.00  0.00    +0.440 HD
ATOM     18  H   LIG    1        0.817   1.875   0.004  0.00  0.00    +0.420 HD
ENDBRANCH  11  16
ENDBRANCH   1  14
TORSDOF 3
ENDMDL
MODEL      116
REMARK  Name = ZINC000090397558
REMARK                            x       y       z     vdW  Elec       q    Type
REMARK                         _______ _______ _______ _____ _____    ______ ____
ROOT
ATOM      1  C   LIG    1       -0.018   1.503   0.010  0.00  0.00    +0.170 C 
ATOM      2  C   LIG    1        0.002  -0.004   0.002  0.00  0.00    +0.220 A 
ATOM      3  C   LIG    1       -1.156  -0.698   0.004  0.00  0.00    -0.280 A 
ATOM      4  C   LIG    1       -1.111  -2.113  -0.005  0.00  0.00    +0.550 A 
ATOM      5  N   LIG    1        0.084  -2.737  -0.014  0.00  0.00    -0.660 N 
ATOM      6  H   LIG    1        0.123  -3.706  -0.020  0.00  0.00    +0.430 HD
ATOM      7  C   LIG    1        1.224  -2.020  -0.016  0.00  0.00    +0.700 A 
ATOM      8  O   LIG    1        2.294  -2.597  -0.024  0.00  0.00    -0.540 OA
ATOM      9  O   LIG    1       -2.142  -2.761  -0.004  0.00  0.00    -0.490 OA
ATOM     10  N   LIG    1        1.194  -0.675  -0.013  0.00  0.00    -0.630 N 
ATOM     11  H   LIG    1        2.026  -0.177  -0.014  0.00  0.00    +0.440 HD
ENDROOT
BRANCH   3  12
ATOM     12  C   LIG    1       -2.479   0.024   0.014  0.00  0.00    +0.300 C 
BRANCH  12  13
ATOM     13  C   LIG    1       -2.986   0.163  -1.398  0.00  0.00    +0.140 A 
ATOM     14  N   LIG    1       -3.749  -0.681  -2.028  0.00  0.00    -0.240 NA
ATOM     15  N   LIG    1       -3.986  -0.245  -3.215  0.00  0.00    -0.350 NA
ATOM     16  C   LIG    1       -3.377   0.903  -3.385  0.00  0.00    +0.420 A 
ATOM     17  O   LIG    1       -2.735   1.188  -2.236  0.00  0.00    -0.250 OA
BRANCH  16  18
ATOM     18  N   LIG    1       -3.395   1.679  -4.529  0.00  0.00    -0.790 N 
ATOM     19  H   LIG    1       -2.908   2.518  -4.553  0.00  0.00    +0.420 HD
ATOM     20  H   LIG    1       -3.894   1.385  -5.306  0.00  0.00    +0.440 HD
ENDBRANCH  16  18
ENDBRANCH  12  13
ENDBRANCH   3  12
TORSDOF 3
ENDMDL
MODEL      117
REMARK  Name = ZINC000090397875
REMARK                            x       y       z     vdW  Elec       q    Type
REMARK                         _______ _______ _______ _____ _____    ______ ____
ROOT
ATOM      1  C   LIG    1       -0.018   1.461   0.010  0.00  0.00    +0.350 C 
ATOM      2  N   LIG    1        0.002  -0.004   0.002  0.00  0.00    -0.560 N 
ATOM      3  C   LIG    1       -1.167  -0.684   0.004  0.00  0.00    +0.590 A 
ATOM      4  C   LIG    1       -1.112  -2.150  -0.004  0.00  0.00    -0.380 A 
ATOM      5  C   LIG    1       -2.263  -2.951  -0.004  0.00  0.00    +0.540 A 
ATOM      6  N   LIG    1       -2.105  -4.275  -0.012  0.00  0.00    -0.580 NA
ATOM      7  C   LIG    1       -0.904  -4.817  -0.021  0.00  0.00    +0.630 A 
ATOM      8  N   LIG    1        0.204  -4.101  -0.021  0.00  0.00    -0.580 NA
ATOM      9  C   LIG    1        0.149  -2.776  -0.014  0.00  0.00    +0.480 A 
ATOM     10  N   LIG    1        1.280  -1.989  -0.015  0.00  0.00    -0.520 N 
ATOM     11  C   LIG    1        2.603  -2.618  -0.024  0.00  0.00    +0.370 C 
ATOM     12  O   LIG    1       -2.232  -0.098   0.012  0.00  0.00    -0.510 OA
ATOM     13  C   LIG    1        1.180  -0.648  -0.013  0.00  0.00    +0.710 A 
ATOM     14  O   LIG    1        2.202   0.011  -0.013  0.00  0.00    -0.520 OA
ENDROOT
BRANCH   5  15
ATOM     15  N   LIG    1       -3.520  -2.386   0.005  0.00  0.00    -0.540 N 
ATOM     16  H   LIG    1       -3.619  -1.421   0.011  0.00  0.00    +0.440 HD
BRANCH  15  17
ATOM     17  O   LIG    1       -4.669  -3.215   0.006  0.00  0.00    -0.300 OA
ATOM     18  H   LIG    1       -5.505  -2.728   0.012  0.00  0.00    +0.400 HD
ENDBRANCH  15  17
ENDBRANCH   5  15
TORSDOF 2
ENDMDL
MODEL      118
REMARK  Name = ZINC000644149416
REMARK                            x       y       z     vdW  Elec       q    Type
REMARK                         _______ _______ _______ _____ _____    ______ ____
ROOT
ATOM      1  O   UNK A  1        0.002  -0.004   0.002  0.00  0.00    -0.510 OA
ATOM      2  C   UNK A  1       -0.014   1.209   0.009  0.00  0.00    +0.520 C 
ATOM      3  N   UNK A  1        1.143   1.898   0.001  0.00  0.00    -0.700 N 
ATOM      4  H   UNK A  1        1.130   2.868   0.007  0.00  0.00    +0.410 HD
ENDROOT
BRANCH   2   5
ATOM      5  C   UNK A  1       -1.330   1.944   0.019  0.00  0.00    +0.240 C 
ATOM      6  N   UNK A  1       -2.371   1.052   0.509  0.00  0.00    -0.700 N 
ATOM      7  H   UNK A  1       -2.165   0.460   1.250  0.00  0.00    +0.420 HD
ATOM      8  C   GLY A  2       -3.600   1.014  -0.016  0.00  0.00    +0.520 C 
ATOM      9  CA  GLY A  2       -4.018   1.885  -1.162  0.00  0.00    +0.330 C 
ATOM     10  N   GLY A  2       -2.863   2.392  -1.891  0.00  0.00    -0.710 N 
ATOM     11  H   GLY A  2       -2.992   2.718  -2.795  0.00  0.00    +0.420 HD
ATOM     12  O   GLY A  2       -4.409   0.242   0.453  0.00  0.00    -0.520 OA
ATOM     13  C   UNK A  1       -1.634   2.425  -1.368  0.00  0.00    +0.530 C 
ATOM     14  O   UNK A  1       -0.727   2.863  -2.043  0.00  0.00    -0.520 OA
ENDBRANCH   2   5
BRANCH   3  15
ATOM     15  C   UNK A  1        2.422   1.183  -0.015  0.00  0.00    +0.210 C 
ATOM     16  C   UNK A  1        3.514   2.073   0.587  0.00  0.00    +0.020 C 
ATOM     17  C   UNK A  1        4.859   1.346   0.494  0.00  0.00    +0.010 C 
ATOM     18  C   UNK A  1        5.138   0.992  -0.969  0.00  0.00    +0.200 C 
ATOM     19  O   UNK A  1        4.070   0.190  -1.476  0.00  0.00    -0.380 OA
ATOM     20  C   UNK A  1        2.795   0.834  -1.458  0.00  0.00    +0.210 C 
ENDBRANCH   3  15
TORSDOF 2
ENDMDL
MODEL      119
REMARK  Name = ZINC000090397548
REMARK                            x       y       z     vdW  Elec       q    Type
REMARK                         _______ _______ _______ _____ _____    ______ ____
ROOT
ATOM      1  C   LIG    1        1.787  -3.713  -1.469  0.00  0.00    +0.340 C 
ENDROOT
BRANCH   1   2
ATOM      2  N   LIG    1        2.617  -4.921  -1.479  0.00  0.00    -0.530 N 
ATOM      3  C   LIG    1        3.981  -4.806  -1.479  0.00  0.00    +0.350 A 
ATOM      4  C   LIG    1        4.745  -5.919  -1.488  0.00  0.00    -0.120 A 
ATOM      5  C   LIG    1        4.116  -7.187  -1.498  0.00  0.00    +0.550 A 
ATOM      6  N   LIG    1        2.769  -7.257  -1.498  0.00  0.00    -0.660 N 
ATOM      7  H   LIG    1        2.331  -8.123  -1.504  0.00  0.00    +0.430 HD
ATOM      8  O   LIG    1        4.785  -8.205  -1.506  0.00  0.00    -0.510 OA
ATOM      9  C   LIG    1        2.031  -6.132  -1.483  0.00  0.00    +0.690 A 
ATOM     10  O   LIG    1        0.818  -6.211  -1.483  0.00  0.00    -0.530 OA
ENDBRANCH   1   2
BRANCH   1  11
ATOM     11  C   LIG    1        1.505  -3.301  -0.023  0.00  0.00    +0.190 C 
BRANCH  11  15
ATOM     12  C   LIG    1        0.002  -0.004   0.002  0.00  0.00    +0.430 A 
ATOM     13  N   LIG    1       -1.043  -0.796   0.002  0.00  0.00    -0.340 NA
ATOM     14  N   LIG    1       -0.649  -2.020  -0.006  0.00  0.00    -0.240 NA
ATOM     15  C   LIG    1        0.651  -2.059  -0.012  0.00  0.00    +0.130 A 
ATOM     16  O   LIG    1        1.096  -0.787  -0.013  0.00  0.00    -0.250 OA
BRANCH  12  17
ATOM     17  N   LIG    1       -0.017   1.378   0.010  0.00  0.00    -0.790 N 
ATOM     18  H   LIG    1       -0.863   1.852   0.016  0.00  0.00    +0.440 HD
ATOM     19  H   LIG    1        0.817   1.875   0.004  0.00  0.00    +0.420 HD
ENDBRANCH  12  17
ENDBRANCH  11  15
ENDBRANCH   1  11
TORSDOF 4
ENDMDL
MODEL      120
REMARK  Name = ZINC000257206387
REMARK                            x       y       z     vdW  Elec       q    Type
REMARK                         _______ _______ _______ _____ _____    ______ ____
ROOT
ATOM      1  C   LIG    1        0.633  -2.085   1.012  0.00  0.00    +0.530 C 
ATOM      2  N   LIG    1        1.208  -2.846   1.964  0.00  0.00    -0.620 N 
ATOM      3  C   LIG    1        1.899  -2.345   3.162  0.00  0.00    +0.240 C 
ATOM      4  C   LIG    1        2.366  -3.574   3.969  0.00  0.00    +0.170 C 
ATOM      5  C   LIG    1        1.420  -4.698   3.471  0.00  0.00    +0.260 C 
ATOM      6  C   LIG    1        1.243  -4.320   1.981  0.00  0.00    +0.270 C 
ATOM      7  O   LIG    1        0.084  -2.609   0.067  0.00  0.00    -0.510 OA
ENDROOT
BRANCH   5   8
ATOM      8  N   LIG    1        2.048  -6.014   3.611  0.00  0.00    -0.720 N 
ATOM      9  H   LIG    1        3.015  -6.091   3.620  0.00  0.00    +0.400 HD
ATOM     10  C   LIG    1        1.283  -7.117   3.726  0.00  0.00    +0.510 C 
ATOM     11  O   LIG    1        0.074  -7.021   3.713  0.00  0.00    -0.540 OA
ATOM     12  C   LIG    1        1.930  -8.471   3.869  0.00  0.00    +0.110 C 
ENDBRANCH   5   8
BRANCH   4  13
ATOM     13  O   LIG    1        2.198  -3.352   5.371  0.00  0.00    -0.550 OA
ATOM     14  H   LIG    1        2.712  -2.608   5.716  0.00  0.00    +0.390 HD
ENDBRANCH   4  13
BRANCH   1  15
ATOM     15  C   LIG    1        0.673  -0.582   1.123  0.00  0.00    +0.210 C 
BRANCH  15  17
ATOM     16  C   LIG    1       -0.017   1.425   0.010  0.00  0.00    +0.220 C 
ATOM     17  O   LIG    1        0.002  -0.004   0.002  0.00  0.00    -0.370 OA
ENDBRANCH  15  17
ENDBRANCH   1  15
TORSDOF 4
ENDMDL
MODEL      121
REMARK  Name = ZINC000090397835
REMARK                            x       y       z     vdW  Elec       q    Type
REMARK                         _______ _______ _______ _____ _____    ______ ____
ROOT
ATOM      1  C   LIG    1       -0.018   1.461   0.010  0.00  0.00    +0.350 C 
ATOM      2  N   LIG    1        0.002  -0.004   0.002  0.00  0.00    -0.530 N 
ATOM      3  C   LIG    1        0.005  -0.662  -1.169  0.00  0.00    +0.710 A 
ATOM      4  N   LIG    1        0.024  -2.002  -1.253  0.00  0.00    -0.660 N 
ATOM      5  H   LIG    1        0.025  -2.425  -2.126  0.00  0.00    +0.440 HD
ATOM      6  C   LIG    1        0.040  -2.770  -0.142  0.00  0.00    +0.580 A 
ATOM      7  C   LIG    1        0.036  -2.101   1.165  0.00  0.00    -0.330 A 
ATOM      8  C   LIG    1        0.052  -2.821   2.369  0.00  0.00    +0.350 A 
ATOM      9  C   LIG    1        0.047  -2.093   3.560  0.00  0.00    -0.130 A 
ATOM     10  C   LIG    1        0.028  -0.715   3.510  0.00  0.00    +0.380 A 
ATOM     11  N   LIG    1        0.014  -0.062   2.362  0.00  0.00    -0.550 NA
ATOM     12  O   LIG    1        0.056  -3.984  -0.222  0.00  0.00    -0.520 OA
ATOM     13  O   LIG    1       -0.008  -0.015  -2.199  0.00  0.00    -0.530 OA
ATOM     14  C   LIG    1        0.023  -0.695   1.201  0.00  0.00    +0.450 A 
ENDROOT
BRANCH   8  15
ATOM     15  N   LIG    1        0.071  -4.205   2.375  0.00  0.00    -0.550 N 
ATOM     16  H   LIG    1        0.074  -4.694   1.537  0.00  0.00    +0.420 HD
BRANCH  15  17
ATOM     17  N   LIG    1        0.085  -4.883   3.561  0.00  0.00    -0.610 NA
ATOM     18  H   LIG    1        0.099  -5.880   3.408  0.00  0.00    +0.370 HD
ATOM     19  H   LIG    1       -0.698  -4.616   4.139  0.00  0.00    +0.340 HD
ENDBRANCH  15  17
ENDBRANCH   8  15
TORSDOF 2
ENDMDL
MODEL      122
REMARK  Name = ZINC000105507117
REMARK                            x       y       z     vdW  Elec       q    Type
REMARK                         _______ _______ _______ _____ _____    ______ ____
ROOT
ATOM      1  O   LIG    1        0.002  -0.004   0.002  0.00  0.00    -0.490 OA
ATOM      2  C   LIG    1       -0.014   1.211   0.009  0.00  0.00    +0.660 C 
ATOM      3  N   LIG    1       -1.153   1.956   0.029  0.00  0.00    -0.720 N 
ATOM      4  H   LIG    1       -2.063   1.619   0.061  0.00  0.00    +0.440 HD
ATOM      5  C   LIG    1       -0.749   3.342  -0.006  0.00  0.00    +0.370 C 
ATOM      6  O   LIG    1       -1.425   4.308  -0.770  0.00  0.00    -0.350 OA
ATOM      7  C   LIG    1       -0.861   5.615  -0.536  0.00  0.00    +0.150 C 
ATOM      8  C   LIG    1        0.629   5.661  -0.860  0.00  0.00    +0.140 C 
ATOM      9  C   LIG    1        1.397   4.513  -0.177  0.00  0.00    +0.220 C 
ATOM     10  C   LIG    1        0.686   3.235  -0.594  0.00  0.00    +0.160 C 
ATOM     11  O   LIG    1        1.106   1.988   0.002  0.00  0.00    -0.310 OA
ENDROOT
BRANCH   9  12
ATOM     12  O   LIG    1        1.360   4.675   1.243  0.00  0.00    -0.540 OA
ATOM     13  H   LIG    1        1.754   5.501   1.555  0.00  0.00    +0.390 HD
ENDBRANCH   9  12
BRANCH   8  14
ATOM     14  O   LIG    1        0.802   5.558  -2.275  0.00  0.00    -0.550 OA
ATOM     15  H   LIG    1        0.375   6.267  -2.776  0.00  0.00    +0.390 HD
ENDBRANCH   8  14
BRANCH   7  16
ATOM     16  C   LIG    1       -1.591   6.636  -1.412  0.00  0.00    +0.210 C 
BRANCH  16  17
ATOM     17  O   LIG    1       -2.956   6.727  -1.001  0.00  0.00    -0.560 OA
ATOM     18  H   LIG    1       -3.480   7.358  -1.514  0.00  0.00    +0.390 HD
ENDBRANCH  16  17
ENDBRANCH   7  16
TORSDOF 4
ENDMDL
MODEL      123
REMARK  Name = ZINC000644149417
REMARK                            x       y       z     vdW  Elec       q    Type
REMARK                         _______ _______ _______ _____ _____    ______ ____
ROOT
ATOM      1  O   UNK A  1        0.002  -0.004   0.002  0.00  0.00    -0.510 OA
ATOM      2  C   UNK A  1       -0.014   1.209   0.009  0.00  0.00    +0.520 C 
ATOM      3  N   UNK A  1        1.143   1.898   0.001  0.00  0.00    -0.700 N 
ATOM      4  H   UNK A  1        1.130   2.868   0.007  0.00  0.00    +0.410 HD
ENDROOT
BRANCH   2   5
ATOM      5  C   UNK A  1       -1.330   1.944   0.019  0.00  0.00    +0.240 C 
ATOM      6  N   UNK A  1       -2.371   1.052   0.509  0.00  0.00    -0.700 N 
ATOM      7  H   UNK A  1       -2.165   0.460   1.250  0.00  0.00    +0.420 HD
ATOM      8  C   GLY A  2       -3.600   1.014  -0.016  0.00  0.00    +0.520 C 
ATOM      9  CA  GLY A  2       -4.018   1.885  -1.162  0.00  0.00    +0.330 C 
ATOM     10  N   GLY A  2       -2.863   2.392  -1.891  0.00  0.00    -0.710 N 
ATOM     11  H   GLY A  2       -2.992   2.718  -2.795  0.00  0.00    +0.420 HD
ATOM     12  O   GLY A  2       -4.409   0.242   0.453  0.00  0.00    -0.520 OA
ATOM     13  C   UNK A  1       -1.634   2.425  -1.368  0.00  0.00    +0.530 C 
ATOM     14  O   UNK A  1       -0.727   2.863  -2.043  0.00  0.00    -0.520 OA
ENDBRANCH   2   5
BRANCH   3  15
ATOM     15  C   UNK A  1        2.422   1.183  -0.015  0.00  0.00    +0.210 C 
ATOM     16  C   UNK A  1        3.502   2.080  -0.627  0.00  0.00    +0.020 C 
ATOM     17  C   UNK A  1        4.849   1.352  -0.568  0.00  0.00    +0.010 C 
ATOM     18  C   UNK A  1        5.156   0.982   0.886  0.00  0.00    +0.200 C 
ATOM     19  O   UNK A  1        4.098   0.174   1.404  0.00  0.00    -0.370 OA
ATOM     20  C   UNK A  1        2.822   0.819   1.417  0.00  0.00    +0.200 C 
ENDBRANCH   3  15
TORSDOF 2
ENDMDL
MODEL      124
REMARK  Name = ZINC000644149506
REMARK                            x       y       z     vdW  Elec       q    Type
REMARK                         _______ _______ _______ _____ _____    ______ ____
ROOT
ATOM      1  O   UNK A  1        0.002  -0.004   0.002  0.00  0.00    -0.510 OA
ATOM      2  C   UNK A  1       -0.014   1.209   0.009  0.00  0.00    +0.530 C 
ATOM      3  N   UNK A  1        1.143   1.898   0.001  0.00  0.00    -0.700 N 
ATOM      4  H   UNK A  1        1.130   2.868   0.007  0.00  0.00    +0.410 HD
ENDROOT
BRANCH   2   5
ATOM      5  C   UNK A  1       -1.330   1.944   0.019  0.00  0.00    +0.250 C 
ATOM      6  N   UNK A  1       -2.371   1.052   0.509  0.00  0.00    -0.700 N 
ATOM      7  H   UNK A  1       -2.165   0.460   1.250  0.00  0.00    +0.420 HD
ATOM      8  C   GLY A  2       -3.600   1.014  -0.016  0.00  0.00    +0.520 C 
ATOM      9  CA  GLY A  2       -4.018   1.885  -1.162  0.00  0.00    +0.330 C 
ATOM     10  N   GLY A  2       -2.863   2.392  -1.891  0.00  0.00    -0.710 N 
ATOM     11  H   GLY A  2       -2.992   2.718  -2.795  0.00  0.00    +0.420 HD
ATOM     12  O   GLY A  2       -4.409   0.242   0.453  0.00  0.00    -0.520 OA
ATOM     13  C   UNK A  1       -1.634   2.425  -1.368  0.00  0.00    +0.520 C 
ATOM     14  O   UNK A  1       -0.727   2.863  -2.043  0.00  0.00    -0.510 OA
ENDBRANCH   2   5
BRANCH   3  15
ATOM     15  C   UNK A  1        2.422   1.183  -0.015  0.00  0.00    +0.420 C 
BRANCH  15  16
ATOM     16  C   UNK A  1        3.554   2.178  -0.020  0.00  0.00    +0.210 A 
ATOM     17  N   UNK A  1        4.111   2.689  -1.087  0.00  0.00    -0.290 NA
ATOM     18  N   UNK A  1        5.115   3.563  -0.640  0.00  0.00    -0.480 N 
ATOM     19  H   UNK A  1        5.709   4.096  -1.192  0.00  0.00    +0.450 HD
ATOM     20  C   UNK A  1        5.091   3.514   0.703  0.00  0.00    +0.500 A 
ATOM     21  N   UNK A  1        4.146   2.683   1.061  0.00  0.00    -0.530 NA
ENDBRANCH  15  16
ENDBRANCH   3  15
TORSDOF 3
ENDMDL
MODEL      125
REMARK  Name = ZINC000644149419
REMARK                            x       y       z     vdW  Elec       q    Type
REMARK                         _______ _______ _______ _____ _____    ______ ____
ROOT
ATOM      1  O   UNK A  1        0.002  -0.004   0.002  0.00  0.00    -0.510 OA
ATOM      2  C   UNK A  1       -0.014   1.209   0.009  0.00  0.00    +0.500 C 
ATOM      3  N   UNK A  1        1.143   1.898   0.001  0.00  0.00    -0.710 N 
ATOM      4  H   UNK A  1        1.130   2.868   0.007  0.00  0.00    +0.410 HD
ENDROOT
BRANCH   2   5
ATOM      5  C   UNK A  1       -1.330   1.944   0.019  0.00  0.00    +0.260 C 
ATOM      6  N   UNK A  1       -2.376   1.058  -0.471  0.00  0.00    -0.700 N 
ATOM      7  H   UNK A  1       -2.458   0.921  -1.428  0.00  0.00    +0.420 HD
ATOM      8  C   GLY A  2       -3.228   0.424   0.340  0.00  0.00    +0.520 C 
ATOM      9  CA  GLY A  2       -3.186   0.569   1.832  0.00  0.00    +0.330 C 
ATOM     10  N   GLY A  2       -2.469   1.773   2.226  0.00  0.00    -0.710 N 
ATOM     11  H   GLY A  2       -2.613   2.129   3.117  0.00  0.00    +0.420 HD
ATOM     12  O   GLY A  2       -4.070  -0.298  -0.150  0.00  0.00    -0.520 OA
ATOM     13  C   UNK A  1       -1.621   2.409   1.414  0.00  0.00    +0.530 C 
ATOM     14  O   UNK A  1       -1.063   3.406   1.821  0.00  0.00    -0.520 OA
ENDBRANCH   2   5
BRANCH   3  15
ATOM     15  C   UNK A  1        2.422   1.183  -0.015  0.00  0.00    +0.210 C 
ATOM     16  C   UNK A  1        3.502   2.080  -0.627  0.00  0.00    +0.020 C 
ATOM     17  C   UNK A  1        4.849   1.352  -0.568  0.00  0.00    +0.010 C 
ATOM     18  C   UNK A  1        5.156   0.982   0.886  0.00  0.00    +0.200 C 
ATOM     19  O   UNK A  1        4.098   0.174   1.404  0.00  0.00    -0.370 OA
ATOM     20  C   UNK A  1        2.822   0.819   1.417  0.00  0.00    +0.210 C 
ENDBRANCH   3  15
TORSDOF 2
ENDMDL
MODEL      126
REMARK  Name = ZINC000644149418
REMARK                            x       y       z     vdW  Elec       q    Type
REMARK                         _______ _______ _______ _____ _____    ______ ____
ROOT
ATOM      1  O   UNK A  1        0.002  -0.004   0.002  0.00  0.00    -0.510 OA
ATOM      2  C   UNK A  1       -0.014   1.209   0.009  0.00  0.00    +0.500 C 
ATOM      3  N   UNK A  1        1.143   1.898   0.001  0.00  0.00    -0.710 N 
ATOM      4  H   UNK A  1        1.130   2.868   0.007  0.00  0.00    +0.410 HD
ENDROOT
BRANCH   2   5
ATOM      5  C   UNK A  1       -1.330   1.944   0.019  0.00  0.00    +0.260 C 
ATOM      6  N   UNK A  1       -2.376   1.058  -0.471  0.00  0.00    -0.700 N 
ATOM      7  H   UNK A  1       -2.458   0.921  -1.428  0.00  0.00    +0.420 HD
ATOM      8  C   GLY A  2       -3.228   0.424   0.340  0.00  0.00    +0.520 C 
ATOM      9  CA  GLY A  2       -3.186   0.569   1.832  0.00  0.00    +0.330 C 
ATOM     10  N   GLY A  2       -2.469   1.773   2.226  0.00  0.00    -0.710 N 
ATOM     11  H   GLY A  2       -2.613   2.129   3.117  0.00  0.00    +0.420 HD
ATOM     12  O   GLY A  2       -4.070  -0.298  -0.150  0.00  0.00    -0.520 OA
ATOM     13  C   UNK A  1       -1.621   2.409   1.414  0.00  0.00    +0.530 C 
ATOM     14  O   UNK A  1       -1.063   3.406   1.821  0.00  0.00    -0.520 OA
ENDBRANCH   2   5
BRANCH   3  15
ATOM     15  C   UNK A  1        2.422   1.183  -0.015  0.00  0.00    +0.210 C 
ATOM     16  C   UNK A  1        3.514   2.073   0.587  0.00  0.00    +0.020 C 
ATOM     17  C   UNK A  1        4.859   1.346   0.494  0.00  0.00    +0.010 C 
ATOM     18  C   UNK A  1        5.138   0.992  -0.969  0.00  0.00    +0.200 C 
ATOM     19  O   UNK A  1        4.070   0.190  -1.476  0.00  0.00    -0.370 OA
ATOM     20  C   UNK A  1        2.795   0.834  -1.458  0.00  0.00    +0.200 C 
ENDBRANCH   3  15
TORSDOF 2
ENDMDL
MODEL      127
REMARK  Name = ZINC000004195039
REMARK                            x       y       z     vdW  Elec       q    Type
REMARK                         _______ _______ _______ _____ _____    ______ ____
ROOT
ATOM      1  C   LIG    1        0.666  -0.604   1.230  0.00  0.00    +0.330 C 
ATOM      2  O   LIG    1       -0.074  -0.483   2.446  0.00  0.00    -0.380 OA
ATOM      3  C   LIG    1        0.565  -1.075   3.579  0.00  0.00    +0.150 C 
ATOM      4  C   LIG    1        0.747  -2.575   3.336  0.00  0.00    +0.120 C 
ATOM      5  C   LIG    1        1.564  -2.781   2.056  0.00  0.00    +0.190 C 
ATOM      6  C   LIG    1        0.852  -2.085   0.891  0.00  0.00    +0.250 C 
ENDROOT
BRANCH   6   7
ATOM      7  N   LIG    1       -0.456  -2.707   0.675  0.00  0.00    -0.690 N 
ATOM      8  H   LIG    1       -1.247  -2.331   1.091  0.00  0.00    +0.410 HD
ATOM      9  C   LIG    1       -0.561  -3.803  -0.103  0.00  0.00    +0.520 C 
ATOM     10  O   LIG    1        0.428  -4.274  -0.623  0.00  0.00    -0.560 OA
ATOM     11  C   LIG    1       -1.907  -4.443  -0.326  0.00  0.00    +0.090 C 
ENDBRANCH   6   7
BRANCH   1  13
ATOM     12  C   LIG    1       -0.081   1.465   0.277  0.00  0.00    +0.210 C 
ATOM     13  O   LIG    1       -0.047   0.041   0.172  0.00  0.00    -0.360 OA
ENDBRANCH   1  13
BRANCH   5  14
ATOM     14  O   LIG    1        2.867  -2.221   2.225  0.00  0.00    -0.550 OA
ATOM     15  H   LIG    1        3.372  -2.612   2.951  0.00  0.00    +0.390 HD
ENDBRANCH   5  14
BRANCH   4  16
ATOM     16  O   LIG    1       -0.533  -3.194   3.192  0.00  0.00    -0.540 OA
ATOM     17  H   LIG    1       -1.105  -3.099   3.965  0.00  0.00    +0.380 HD
ENDBRANCH   4  16
BRANCH   3  18
ATOM     18  C   LIG    1       -0.301  -0.861   4.823  0.00  0.00    +0.200 C 
BRANCH  18  19
ATOM     19  O   LIG    1       -0.375   0.536   5.117  0.00  0.00    -0.560 OA
ATOM     20  H   LIG    1       -0.910   0.746   5.895  0.00  0.00    +0.380 HD
ENDBRANCH  18  19
ENDBRANCH   3  18
TORSDOF 6
ENDMDL
MODEL      128
REMARK  Name = ZINC000006468131
REMARK                            x       y       z     vdW  Elec       q    Type
REMARK                         _______ _______ _______ _____ _____    ______ ____
ROOT
ATOM      1  C   LIG    1        1.244  -4.295   2.408  0.00  0.00    +0.010 C 
ENDROOT
BRANCH   1   2
ATOM      2  C   LIG    1        2.135  -5.141   3.281  0.00  0.00    +0.540 C 
ATOM      3  O   LIG    1        3.261  -4.771   3.536  0.00  0.00    -0.520 OA
ATOM      4  N   LIG    1        1.679  -6.308   3.778  0.00  0.00    -0.830 N 
ATOM      5  H   LIG    1        2.253  -6.852   4.340  0.00  0.00    +0.410 HD
ATOM      6  H   LIG    1        0.778  -6.603   3.575  0.00  0.00    +0.410 HD
ENDBRANCH   1   2
BRANCH   1   7
ATOM      7  C   LIG    1        1.242  -4.849   1.006  0.00  0.00    +0.530 C 
ATOM      8  O   LIG    1        0.191  -5.050   0.435  0.00  0.00    -0.470 OA
ATOM      9  N   LIG    1        2.408  -5.119   0.387  0.00  0.00    -0.850 N 
ATOM     10  H   LIG    1        2.407  -5.476  -0.515  0.00  0.00    +0.410 HD
ATOM     11  H   LIG    1        3.249  -4.958   0.844  0.00  0.00    +0.400 HD
ENDBRANCH   1   7
BRANCH   1  12
ATOM     12  S   LIG    1        1.862  -2.594   2.384  0.00  0.00    +0.130 S 
BRANCH  12  18
ATOM     13  C   LIG    1       -0.019   1.526   0.010  0.00  0.00    +0.060 C 
ATOM     14  C   LIG    1        0.002  -0.004   0.002  0.00  0.00    +0.230 C 
ATOM     15  C   LIG    1       -1.434  -0.545   0.036  0.00  0.00    +0.010 C 
ATOM     16  C   LIG    1       -1.392  -2.021   0.335  0.00  0.00    +0.510 C 
ATOM     17  N   LIG    1       -0.398  -2.556   1.028  0.00  0.00    -0.620 NA
ATOM     18  C   LIG    1        0.624  -1.841   1.472  0.00  0.00    +0.400 C 
ATOM     19  O   LIG    1       -2.289  -2.736  -0.067  0.00  0.00    -0.470 OA
ATOM     20  N   LIG    1        0.694  -0.501   1.203  0.00  0.00    -0.720 N 
ATOM     21  H   LIG    1        1.182   0.102   1.786  0.00  0.00    +0.420 HD
ENDBRANCH  12  18
ENDBRANCH   1  12
TORSDOF 4
ENDMDL
MODEL      129
REMARK  Name = ZINC000004195040
REMARK                            x       y       z     vdW  Elec       q    Type
REMARK                         _______ _______ _______ _____ _____    ______ ____
ROOT
ATOM      1  C   LIG    1        0.673  -0.582   1.123  0.00  0.00    +0.310 C 
ATOM      2  O   LIG    1       -0.104  -0.373   2.304  0.00  0.00    -0.380 OA
ATOM      3  C   LIG    1        0.492  -0.892   3.494  0.00  0.00    +0.150 C 
ATOM      4  C   LIG    1        0.664  -2.408   3.358  0.00  0.00    +0.130 C 
ATOM      5  C   LIG    1        1.518  -2.708   2.123  0.00  0.00    +0.200 C 
ATOM      6  C   LIG    1        0.852  -2.085   0.891  0.00  0.00    +0.260 C 
ENDROOT
BRANCH   6   7
ATOM      7  N   LIG    1        1.698  -2.304  -0.285  0.00  0.00    -0.720 N 
ATOM      8  H   LIG    1        2.652  -2.438  -0.178  0.00  0.00    +0.410 HD
ATOM      9  C   LIG    1        1.149  -2.317  -1.516  0.00  0.00    +0.510 C 
ATOM     10  O   LIG    1       -0.045  -2.148  -1.649  0.00  0.00    -0.520 OA
ATOM     11  C   LIG    1        2.018  -2.542  -2.726  0.00  0.00    +0.080 C 
ENDBRANCH   6   7
BRANCH   1  13
ATOM     12  C   LIG    1       -0.017   1.425   0.010  0.00  0.00    +0.210 C 
ATOM     13  O   LIG    1        0.002  -0.004   0.002  0.00  0.00    -0.340 OA
ENDBRANCH   1  13
BRANCH   5  14
ATOM     14  O   LIG    1        2.822  -2.150   2.296  0.00  0.00    -0.550 OA
ATOM     15  H   LIG    1        3.299  -2.497   3.063  0.00  0.00    +0.390 HD
ENDBRANCH   5  14
BRANCH   4  16
ATOM     16  O   LIG    1       -0.618  -3.022   3.215  0.00  0.00    -0.550 OA
ATOM     17  H   LIG    1       -1.214  -2.869   3.961  0.00  0.00    +0.380 HD
ENDBRANCH   4  16
BRANCH   3  18
ATOM     18  C   LIG    1       -0.409  -0.586   4.692  0.00  0.00    +0.200 C 
BRANCH  18  19
ATOM     19  O   LIG    1       -0.476   0.828   4.889  0.00  0.00    -0.560 OA
ATOM     20  H   LIG    1       -1.032   1.095   5.633  0.00  0.00    +0.380 HD
ENDBRANCH  18  19
ENDBRANCH   3  18
TORSDOF 6
ENDMDL
MODEL      130
REMARK  Name = ZINC000644149507
REMARK                            x       y       z     vdW  Elec       q    Type
REMARK                         _______ _______ _______ _____ _____    ______ ____
ROOT
ATOM      1  O   UNK A  1        0.002  -0.004   0.002  0.00  0.00    -0.510 OA
ATOM      2  C   UNK A  1       -0.014   1.209   0.009  0.00  0.00    +0.510 C 
ATOM      3  N   UNK A  1        1.143   1.898   0.001  0.00  0.00    -0.710 N 
ATOM      4  H   UNK A  1        1.130   2.868   0.007  0.00  0.00    +0.410 HD
ENDROOT
BRANCH   2   5
ATOM      5  C   UNK A  1       -1.330   1.944   0.019  0.00  0.00    +0.260 C 
ATOM      6  N   UNK A  1       -2.376   1.058  -0.471  0.00  0.00    -0.700 N 
ATOM      7  H   UNK A  1       -2.458   0.921  -1.428  0.00  0.00    +0.420 HD
ATOM      8  C   GLY A  2       -3.228   0.424   0.340  0.00  0.00    +0.520 C 
ATOM      9  CA  GLY A  2       -3.186   0.569   1.832  0.00  0.00    +0.330 C 
ATOM     10  N   GLY A  2       -2.469   1.773   2.226  0.00  0.00    -0.710 N 
ATOM     11  H   GLY A  2       -2.613   2.129   3.117  0.00  0.00    +0.420 HD
ATOM     12  O   GLY A  2       -4.070  -0.298  -0.150  0.00  0.00    -0.520 OA
ATOM     13  C   UNK A  1       -1.621   2.409   1.414  0.00  0.00    +0.530 C 
ATOM     14  O   UNK A  1       -1.063   3.406   1.821  0.00  0.00    -0.520 OA
ENDBRANCH   2   5
BRANCH   3  15
ATOM     15  C   UNK A  1        2.422   1.183  -0.015  0.00  0.00    +0.420 C 
BRANCH  15  16
ATOM     16  C   UNK A  1        3.554   2.178  -0.020  0.00  0.00    +0.210 A 
ATOM     17  N   UNK A  1        4.111   2.689  -1.087  0.00  0.00    -0.290 NA
ATOM     18  N   UNK A  1        5.115   3.563  -0.640  0.00  0.00    -0.480 N 
ATOM     19  H   UNK A  1        5.709   4.096  -1.192  0.00  0.00    +0.450 HD
ATOM     20  C   UNK A  1        5.091   3.514   0.703  0.00  0.00    +0.500 A 
ATOM     21  N   UNK A  1        4.146   2.683   1.061  0.00  0.00    -0.530 NA
ENDBRANCH  15  16
ENDBRANCH   3  15
TORSDOF 3
ENDMDL
MODEL      131
REMARK  Name = ZINC000004195038
REMARK                            x       y       z     vdW  Elec       q    Type
REMARK                         _______ _______ _______ _____ _____    ______ ____
ROOT
ATOM      1  C   LIG    1        0.671  -0.588   1.155  0.00  0.00    +0.320 C 
ATOM      2  O   LIG    1       -0.096  -0.405   2.348  0.00  0.00    -0.380 OA
ATOM      3  C   LIG    1        0.513  -0.946   3.521  0.00  0.00    +0.150 C 
ATOM      4  C   LIG    1        0.689  -2.458   3.353  0.00  0.00    +0.120 C 
ATOM      5  C   LIG    1        1.532  -2.730   2.103  0.00  0.00    +0.180 C 
ATOM      6  C   LIG    1        0.852  -2.085   0.891  0.00  0.00    +0.250 C 
ENDROOT
BRANCH   6   7
ATOM      7  N   LIG    1       -0.456  -2.707   0.675  0.00  0.00    -0.690 N 
ATOM      8  H   LIG    1       -1.247  -2.331   1.091  0.00  0.00    +0.410 HD
ATOM      9  C   LIG    1       -0.561  -3.803  -0.103  0.00  0.00    +0.520 C 
ATOM     10  O   LIG    1        0.428  -4.274  -0.623  0.00  0.00    -0.540 OA
ATOM     11  C   LIG    1       -1.907  -4.443  -0.326  0.00  0.00    +0.080 C 
ENDBRANCH   6   7
BRANCH   1  13
ATOM     12  C   LIG    1       -0.037   1.439   0.089  0.00  0.00    +0.220 C 
ATOM     13  O   LIG    1       -0.013   0.011   0.052  0.00  0.00    -0.350 OA
ENDBRANCH   1  13
BRANCH   5  14
ATOM     14  O   LIG    1        1.641  -4.140   1.898  0.00  0.00    -0.530 OA
ATOM     15  H   LIG    1        2.057  -4.614   2.631  0.00  0.00    +0.380 HD
ENDBRANCH   5  14
BRANCH   4  16
ATOM     16  O   LIG    1       -0.593  -3.074   3.209  0.00  0.00    -0.530 OA
ATOM     17  H   LIG    1       -1.181  -2.938   3.964  0.00  0.00    +0.370 HD
ENDBRANCH   4  16
BRANCH   3  18
ATOM     18  C   LIG    1       -0.378  -0.668   4.733  0.00  0.00    +0.210 C 
BRANCH  18  19
ATOM     19  O   LIG    1       -0.447   0.742   4.959  0.00  0.00    -0.560 OA
ATOM     20  H   LIG    1       -0.997   0.992   5.715  0.00  0.00    +0.390 HD
ENDBRANCH  18  19
ENDBRANCH   3  18
TORSDOF 6
ENDMDL
MODEL      132
REMARK  Name = ZINC000107430733
REMARK                            x       y       z     vdW  Elec       q    Type
REMARK                         _______ _______ _______ _____ _____    ______ ____
ROOT
ATOM      1  C   LIG    1        1.900  -4.789  -3.145  0.00  0.00    -0.070 C 
ATOM      2  C   LIG    1        1.188  -4.221  -4.385  0.00  0.00    +0.080 C 
ATOM      3  C   LIG    1        0.753  -5.432  -5.237  0.00  0.00    +0.140 C 
ATOM      4  C   LIG    1        0.670  -6.599  -4.223  0.00  0.00    +0.140 C 
ATOM      5  C   LIG    1        1.873  -6.325  -3.287  0.00  0.00    +0.070 C 
ENDROOT
BRANCH   4   6
ATOM      6  O   LIG    1        0.815  -7.857  -4.885  0.00  0.00    -0.560 OA
ATOM      7  H   LIG    1        0.127  -8.038  -5.540  0.00  0.00    +0.380 HD
ENDBRANCH   4   6
BRANCH   3   8
ATOM      8  O   LIG    1        1.726  -5.710  -6.245  0.00  0.00    -0.550 OA
ATOM      9  H   LIG    1        1.503  -6.462  -6.810  0.00  0.00    +0.380 HD
ENDBRANCH   3   8
BRANCH   1  10
ATOM     10  C   LIG    1        1.159  -4.367  -1.875  0.00  0.00    +0.300 C 
BRANCH  10  12
ATOM     11  C   LIG    1        1.439  -4.574   0.536  0.00  0.00    +0.510 C 
ATOM     12  N   LIG    1        1.850  -4.909  -0.703  0.00  0.00    -0.730 N 
ATOM     13  H   LIG    1        2.603  -5.509  -0.819  0.00  0.00    +0.400 HD
ATOM     14  O   LIG    1        0.498  -3.824   0.681  0.00  0.00    -0.510 OA
BRANCH  11  15
ATOM     15  C   LIG    1        2.150  -5.132   1.742  0.00  0.00    +0.200 C 
BRANCH  15  17
ATOM     16  C   LIG    1        2.135  -5.105   4.139  0.00  0.00    +0.200 C 
ATOM     17  O   LIG    1        1.534  -4.634   2.931  0.00  0.00    -0.370 OA
ENDBRANCH  15  17
ENDBRANCH  11  15
ENDBRANCH  10  12
ENDBRANCH   1  10
BRANCH   1  18
ATOM     18  C   LIG    1        3.347  -4.293  -3.097  0.00  0.00    +0.180 C 
BRANCH  18  19
ATOM     19  O   LIG    1        3.358  -2.871  -2.955  0.00  0.00    -0.380 OA
ATOM     20  C   LIG    1        4.668  -2.303  -2.899  0.00  0.00    +0.200 C 
ENDBRANCH  18  19
ENDBRANCH   1  18
TORSDOF 8
ENDMDL
MODEL      133
REMARK  Name = ZINC000069593250
REMARK                            x       y       z     vdW  Elec       q    Type
REMARK                         _______ _______ _______ _____ _____    ______ ____
ROOT
ATOM      1  C   LIG    1        0.673  -0.582   1.123  0.00  0.00    +0.180 C 
ATOM      2  C   LIG    1        2.156  -0.773   0.790  0.00  0.00    +0.130 C 
ATOM      3  C   LIG    1        2.287  -1.758  -0.374  0.00  0.00    +0.160 C 
ATOM      4  O   LIG    1        1.664  -2.995  -0.022  0.00  0.00    -0.380 OA
ATOM      5  C   LIG    1        0.266  -2.886   0.254  0.00  0.00    +0.360 C 
ATOM      6  C   LIG    1        0.053  -1.945   1.445  0.00  0.00    +0.250 C 
ENDROOT
BRANCH   6   7
ATOM      7  N   LIG    1        0.695  -2.508   2.635  0.00  0.00    -0.720 N 
ATOM      8  H   LIG    1        1.593  -2.234   2.877  0.00  0.00    +0.400 HD
ATOM      9  C   LIG    1        0.037  -3.407   3.394  0.00  0.00    +0.520 C 
ATOM     10  O   LIG    1       -1.087  -3.750   3.092  0.00  0.00    -0.540 OA
ATOM     11  C   LIG    1        0.697  -3.986   4.619  0.00  0.00    +0.110 C 
ENDBRANCH   6   7
BRANCH   1  13
ATOM     12  C   LIG    1       -0.017   1.425   0.010  0.00  0.00    +0.220 C 
ATOM     13  O   LIG    1        0.002  -0.004   0.002  0.00  0.00    -0.340 OA
ENDBRANCH   1  13
BRANCH   5  14
ATOM     14  O   LIG    1       -0.407  -2.364  -0.893  0.00  0.00    -0.550 OA
ATOM     15  H   LIG    1       -0.314  -2.909  -1.686  0.00  0.00    +0.380 HD
ENDBRANCH   5  14
BRANCH   2  16
ATOM     16  O   LIG    1        2.728   0.483   0.420  0.00  0.00    -0.550 OA
ATOM     17  H   LIG    1        3.667   0.437   0.196  0.00  0.00    +0.380 HD
ENDBRANCH   2  16
BRANCH   3  18
ATOM     18  C   LIG    1        3.768  -2.000  -0.674  0.00  0.00    +0.190 C 
BRANCH  18  19
ATOM     19  O   LIG    1        3.890  -2.827  -1.833  0.00  0.00    -0.560 OA
ATOM     20  H   LIG    1        4.804  -3.022  -2.082  0.00  0.00    +0.380 HD
ENDBRANCH  18  19
ENDBRANCH   3  18
TORSDOF 6
ENDMDL
MODEL      134
REMARK  Name = ZINC000005908920
REMARK                            x       y       z     vdW  Elec       q    Type
REMARK                         _______ _______ _______ _____ _____    ______ ____
ROOT
ATOM      1  O   LIG    1        0.628  -0.037   0.084  0.00  0.00    -0.490 OA
ATOM      2  C   LIG    1        0.479   1.169   0.076  0.00  0.00    +0.650 C 
ATOM      3  N   LIG    1       -0.733   1.784   0.110  0.00  0.00    -0.710 N 
ATOM      4  H   LIG    1       -1.599   1.351   0.160  0.00  0.00    +0.440 HD
ATOM      5  C   LIG    1       -0.483   3.212   0.058  0.00  0.00    +0.170 C 
ATOM      6  C   LIG    1        0.944   3.245  -0.556  0.00  0.00    +0.340 C 
ATOM      7  O   LIG    1        1.472   4.521  -0.288  0.00  0.00    -0.320 OA
ATOM      8  C   LIG    1        0.752   5.526  -1.032  0.00  0.00    +0.200 C 
ATOM      9  C   LIG    1       -0.739   5.520  -0.706  0.00  0.00    +0.140 C 
ATOM     10  C   LIG    1       -1.342   4.091  -0.825  0.00  0.00    +0.200 C 
ATOM     11  O   LIG    1        1.509   2.062   0.038  0.00  0.00    -0.310 OA
ENDROOT
BRANCH   9  12
ATOM     12  O   LIG    1       -1.419   6.384  -1.619  0.00  0.00    -0.550 OA
ATOM     13  H   LIG    1       -1.119   7.303  -1.588  0.00  0.00    +0.390 HD
ENDBRANCH   9  12
BRANCH  10  14
ATOM     14  O   LIG    1       -2.691   4.087  -0.352  0.00  0.00    -0.550 OA
ATOM     15  H   LIG    1       -3.279   4.681  -0.838  0.00  0.00    +0.390 HD
ENDBRANCH  10  14
BRANCH   8  16
ATOM     16  C   LIG    1        0.933   5.263  -2.528  0.00  0.00    +0.170 C 
BRANCH  16  17
ATOM     17  O   LIG    1        2.312   5.406  -2.873  0.00  0.00    -0.560 OA
ATOM     18  H   LIG    1        2.501   5.253  -3.809  0.00  0.00    +0.390 HD
ENDBRANCH  16  17
ENDBRANCH   8  16
TORSDOF 4
ENDMDL
MODEL      135
REMARK  Name = ZINC000103401950
REMARK                            x       y       z     vdW  Elec       q    Type
REMARK                         _______ _______ _______ _____ _____    ______ ____
ROOT
ATOM      1  C   LIG    1       -1.433  -0.534   0.013  0.00  0.00    -0.030 C 
ATOM      2  C   LIG    1       -2.108  -0.138   1.323  0.00  0.00    +0.220 C 
ATOM      3  O   LIG    1       -3.301  -0.903   1.503  0.00  0.00    -0.320 OA
ATOM      4  C   LIG    1       -4.405  -0.454   0.716  0.00  0.00    +0.180 C 
ATOM      5  C   LIG    1       -4.235  -0.919  -0.727  0.00  0.00    +0.090 C 
ATOM      6  C   LIG    1       -3.798  -2.381  -0.763  0.00  0.00    +0.150 C 
ATOM      7  C   LIG    1       -2.354  -2.477  -1.262  0.00  0.00    +0.150 C 
ATOM      8  C   LIG    1       -1.413  -2.053  -0.129  0.00  0.00    +0.190 C 
ENDROOT
BRANCH   7   9
ATOM      9  O   LIG    1       -2.070  -3.824  -1.646  0.00  0.00    -0.560 OA
ATOM     10  H   LIG    1       -2.638  -4.160  -2.352  0.00  0.00    +0.380 HD
ENDBRANCH   7   9
BRANCH   6  11
ATOM     11  O   LIG    1       -3.883  -2.935   0.552  0.00  0.00    -0.500 OA
ATOM     12  H   LIG    1       -4.772  -2.911   0.932  0.00  0.00    +0.360 HD
ENDBRANCH   6  11
BRANCH   5  13
ATOM     13  O   LIG    1       -5.478  -0.783  -1.418  0.00  0.00    -0.560 OA
ATOM     14  H   LIG    1       -5.815   0.123  -1.447  0.00  0.00    +0.380 HD
ENDBRANCH   5  13
BRANCH   8  15
ATOM     15  O   LIG    1       -1.840  -2.654   1.095  0.00  0.00    -0.510 OA
ATOM     16  H   LIG    1       -1.848  -3.621   1.077  0.00  0.00    +0.380 HD
ENDBRANCH   8  15
BRANCH   1  17
ATOM     17  C   LIG    1        0.002  -0.004   0.002  0.00  0.00    +0.190 C 
BRANCH  17  18
ATOM     18  O   LIG    1       -0.017   1.425   0.010  0.00  0.00    -0.570 OA
ATOM     19  H   LIG    1        0.861   1.830   0.004  0.00  0.00    +0.380 HD
ENDBRANCH  17  18
ENDBRANCH   1  17
TORSDOF 6
ENDMDL
MODEL      136
REMARK  Name = ZINC000004303637
REMARK                            x       y       z     vdW  Elec       q    Type
REMARK                         _______ _______ _______ _____ _____    ______ ____
ROOT
ATOM      1  C   LIG    1       -1.432  -1.925   0.005  0.00  0.00    +0.350 C 
ATOM      2  O   LIG    1       -0.907  -2.431  -1.224  0.00  0.00    -0.360 OA
ATOM      3  C   LIG    1       -1.572  -1.939  -2.389  0.00  0.00    +0.140 C 
ATOM      4  C   LIG    1       -3.045  -2.355  -2.348  0.00  0.00    +0.130 C 
ATOM      5  C   LIG    1       -3.684  -1.818  -1.064  0.00  0.00    +0.200 C 
ATOM      6  C   LIG    1       -2.899  -2.341   0.142  0.00  0.00    +0.270 C 
ENDROOT
BRANCH   6   7
ATOM      7  N   LIG    1       -3.457  -1.774   1.373  0.00  0.00    -0.710 N 
ATOM      8  H   LIG    1       -3.936  -0.931   1.345  0.00  0.00    +0.410 HD
ATOM      9  C   LIG    1       -3.305  -2.425   2.543  0.00  0.00    +0.510 C 
ATOM     10  O   LIG    1       -2.706  -3.478   2.578  0.00  0.00    -0.550 OA
ATOM     11  C   LIG    1       -3.879  -1.842   3.809  0.00  0.00    +0.110 C 
ENDBRANCH   6   7
BRANCH   5  12
ATOM     12  O   LIG    1       -5.040  -2.262  -0.983  0.00  0.00    -0.540 OA
ATOM     13  H   LIG    1       -5.594  -1.971  -1.721  0.00  0.00    +0.380 HD
ENDBRANCH   5  12
BRANCH   4  14
ATOM     14  O   LIG    1       -3.139  -3.781  -2.369  0.00  0.00    -0.540 OA
ATOM     15  H   LIG    1       -2.748  -4.189  -3.154  0.00  0.00    +0.380 HD
ENDBRANCH   4  14
BRANCH   1  16
ATOM     16  O   LIG    1       -1.339  -0.499   0.012  0.00  0.00    -0.400 OA
BRANCH  16  18
ATOM     17  C   LIG    1       -0.019   1.526   0.010  0.00  0.00    +0.040 C 
ATOM     18  C   LIG    1        0.002  -0.004   0.002  0.00  0.00    +0.170 C 
ENDBRANCH  16  18
ENDBRANCH   1  16
BRANCH   3  19
ATOM     19  C   LIG    1       -0.911  -2.522  -3.639  0.00  0.00    +0.200 C 
BRANCH  19  20
ATOM     20  O   LIG    1        0.430  -2.040  -3.737  0.00  0.00    -0.560 OA
ATOM     21  H   LIG    1        0.912  -2.370  -4.508  0.00  0.00    +0.380 HD
ENDBRANCH  19  20
ENDBRANCH   3  19
TORSDOF 7
ENDMDL
MODEL      137
REMARK  Name = ZINC000257318801
REMARK                            x       y       z     vdW  Elec       q    Type
REMARK                         _______ _______ _______ _____ _____    ______ ____
ROOT
ATOM      1  C   LIG    1        1.169  -4.307   1.857  0.00  0.00    +0.260 C 
ATOM      2  C   LIG    1       -0.097  -4.880   2.542  0.00  0.00    +0.270 C 
ATOM      3  N   LIG    1        0.265  -6.263   2.905  0.00  0.00    -0.620 N 
ATOM      4  C   LIG    1        1.727  -6.351   3.027  0.00  0.00    +0.240 C 
ATOM      5  C   LIG    1       -0.602  -7.278   3.093  0.00  0.00    +0.530 C 
ATOM      6  O   LIG    1       -1.793  -7.090   2.964  0.00  0.00    -0.540 OA
ATOM      7  C   LIG    1       -0.091  -8.646   3.463  0.00  0.00    +0.110 C 
ATOM      8  C   LIG    1        2.300  -4.957   2.696  0.00  0.00    +0.170 C 
ENDROOT
BRANCH   1  10
ATOM      9  C   LIG    1        0.633  -2.085   1.012  0.00  0.00    +0.520 C 
ATOM     10  N   LIG    1        1.208  -2.846   1.964  0.00  0.00    -0.720 N 
ATOM     11  H   LIG    1        1.647  -2.427   2.721  0.00  0.00    +0.400 HD
ATOM     12  O   LIG    1        0.084  -2.609   0.067  0.00  0.00    -0.510 OA
BRANCH   9  13
ATOM     13  C   LIG    1        0.673  -0.582   1.123  0.00  0.00    +0.200 C 
BRANCH  13  15
ATOM     14  C   LIG    1       -0.017   1.425   0.010  0.00  0.00    +0.220 C 
ATOM     15  O   LIG    1        0.002  -0.004   0.002  0.00  0.00    -0.370 OA
ENDBRANCH  13  15
ENDBRANCH   9  13
ENDBRANCH   1  10
BRANCH   8  16
ATOM     16  O   LIG    1        3.502  -5.072   1.931  0.00  0.00    -0.550 OA
ATOM     17  H   LIG    1        4.215  -5.540   2.387  0.00  0.00    +0.390 HD
ENDBRANCH   8  16
TORSDOF 4
ENDMDL
MODEL      138
REMARK  Name = ZINC000225961529
REMARK                            x       y       z     vdW  Elec       q    Type
REMARK                         _______ _______ _______ _____ _____    ______ ____
ROOT
ATOM      1  N   LIG    1        1.552  -3.749  -2.673  0.00  0.00    -0.990 NA
ATOM      2  C   LIG    1        0.407  -4.495  -3.202  0.00  0.00    +0.300 C 
ENDROOT
BRANCH   1   3
ATOM      3  S   LIG    1        2.869  -4.563  -2.084  0.00  0.00    +2.790 S 
ATOM      4  O   LIG    1        3.967  -3.666  -2.172  0.00  0.00    -0.980 OA
ATOM      5  O   LIG    1        2.859  -5.843  -2.701  0.00  0.00    -0.970 OA
BRANCH   3   6
ATOM      6  N   LIG    1        2.604  -4.821  -0.469  0.00  0.00    -1.000 NA
ATOM      7  C   LIG    1        3.049  -3.829   0.513  0.00  0.00    +0.300 C 
ATOM      8  C   LIG    1        1.924  -6.040  -0.024  0.00  0.00    +0.300 C 
ENDBRANCH   3   6
ENDBRANCH   1   3
BRANCH   1   9
ATOM      9  C   LIG    1        1.532  -2.285  -2.665  0.00  0.00    +0.340 C 
BRANCH   9  12
ATOM     10  N   LIG    1        0.688  -0.476  -1.203  0.00  0.00    -0.730 N 
ATOM     11  H   LIG    1        1.042   0.162  -1.842  0.00  0.00    +0.400 HD
ATOM     12  C   LIG    1        0.827  -1.799  -1.425  0.00  0.00    +0.490 C 
ATOM     13  O   LIG    1        0.384  -2.597  -0.627  0.00  0.00    -0.520 OA
BRANCH  10  15
ATOM     14  C   LIG    1       -0.019   1.526   0.010  0.00  0.00    +0.030 C 
ATOM     15  C   LIG    1        0.002  -0.004   0.002  0.00  0.00    +0.250 C 
ENDBRANCH  10  15
ENDBRANCH   9  12
ENDBRANCH   1   9
TORSDOF 5
ENDMDL
MODEL      139
REMARK  Name = ZINC000085468599
REMARK                            x       y       z     vdW  Elec       q    Type
REMARK                         _______ _______ _______ _____ _____    ______ ____
ROOT
ATOM      1  C   LIG    1        1.169  -4.307   1.857  0.00  0.00    +0.240 C 
ATOM      2  C   LIG    1        2.381  -4.823   1.042  0.00  0.00    -0.010 C 
ATOM      3  C   LIG    1        2.523  -6.286   1.531  0.00  0.00    +0.170 C 
ATOM      4  C   LIG    1        2.204  -6.213   3.038  0.00  0.00    +0.010 C 
ATOM      5  C   LIG    1        1.340  -4.955   3.246  0.00  0.00    +0.040 C 
ENDROOT
BRANCH   1   7
ATOM      6  C   LIG    1        0.633  -2.085   1.012  0.00  0.00    +0.510 C 
ATOM      7  N   LIG    1        1.208  -2.846   1.964  0.00  0.00    -0.720 N 
ATOM      8  H   LIG    1        1.647  -2.427   2.721  0.00  0.00    +0.400 HD
ATOM      9  O   LIG    1        0.084  -2.609   0.067  0.00  0.00    -0.510 OA
BRANCH   6  10
ATOM     10  C   LIG    1        0.673  -0.582   1.123  0.00  0.00    +0.200 C 
BRANCH  10  12
ATOM     11  C   LIG    1       -0.017   1.425   0.010  0.00  0.00    +0.220 C 
ATOM     12  O   LIG    1        0.002  -0.004   0.002  0.00  0.00    -0.370 OA
ENDBRANCH  10  12
ENDBRANCH   6  10
ENDBRANCH   1   7
BRANCH   3  13
ATOM     13  O   LIG    1        3.857  -6.755   1.321  0.00  0.00    -0.550 OA
ATOM     14  H   LIG    1        4.128  -6.766   0.393  0.00  0.00    +0.380 HD
ENDBRANCH   3  13
BRANCH   4  15
ATOM     15  C   LIG    1        1.427  -7.459   3.470  0.00  0.00    +0.180 C 
BRANCH  15  16
ATOM     16  O   LIG    1        2.267  -8.609   3.352  0.00  0.00    -0.560 OA
ATOM     17  H   LIG    1        1.839  -9.437   3.609  0.00  0.00    +0.380 HD
ENDBRANCH  15  16
ENDBRANCH   4  15
TORSDOF 6
ENDMDL
MODEL      140
REMARK  Name = ZINC000004236100
REMARK                            x       y       z     vdW  Elec       q    Type
REMARK                         _______ _______ _______ _____ _____    ______ ____
ROOT
ATOM      1  C   LIG    1       -2.120  -4.341  -0.001  0.00  0.00    +0.240 C 
ATOM      2  C   LIG    1       -2.014  -4.881   1.435  0.00  0.00    +0.210 C 
ATOM      3  O   LIG    1       -3.277  -5.440   1.795  0.00  0.00    -0.340 OA
ATOM      4  C   LIG    1       -4.218  -5.319   0.725  0.00  0.00    +0.170 C 
ATOM      5  C   LIG    1       -4.828  -6.712   0.443  0.00  0.00    +0.140 C 
ATOM      6  C   LIG    1       -4.289  -7.087  -0.955  0.00  0.00    +0.190 C 
ATOM      7  O   LIG    1       -3.082  -6.308  -1.107  0.00  0.00    -0.350 OA
ATOM      8  C   LIG    1       -3.398  -4.998  -0.559  0.00  0.00    +0.150 C 
ENDROOT
BRANCH   1  10
ATOM      9  C   LIG    1       -1.156  -2.103   0.002  0.00  0.00    +0.520 C 
ATOM     10  N   LIG    1       -2.256  -2.882   0.008  0.00  0.00    -0.720 N 
ATOM     11  H   LIG    1       -3.137  -2.477   0.019  0.00  0.00    +0.400 HD
ATOM     12  O   LIG    1       -0.054  -2.610  -0.011  0.00  0.00    -0.510 OA
BRANCH   9  13
ATOM     13  C   LIG    1       -1.295  -0.603   0.011  0.00  0.00    +0.200 C 
BRANCH  13  15
ATOM     14  C   LIG    1       -0.017   1.425   0.010  0.00  0.00    +0.220 C 
ATOM     15  O   LIG    1        0.002  -0.004   0.002  0.00  0.00    -0.370 OA
ENDBRANCH  13  15
ENDBRANCH   9  13
ENDBRANCH   1  10
BRANCH   5  16
ATOM     16  O   LIG    1       -4.389  -7.657   1.421  0.00  0.00    -0.530 OA
ATOM     17  H   LIG    1       -4.742  -8.548   1.293  0.00  0.00    +0.380 HD
ENDBRANCH   5  16
TORSDOF 4
ENDMDL
MODEL      141
REMARK  Name = ZINC000085468593
REMARK                            x       y       z     vdW  Elec       q    Type
REMARK                         _______ _______ _______ _____ _____    ______ ____
ROOT
ATOM      1  C   LIG    1        1.169  -4.307   1.857  0.00  0.00    +0.250 C 
ATOM      2  C   LIG    1        2.376  -4.821   1.045  0.00  0.00    -0.010 C 
ATOM      3  C   LIG    1        2.827  -6.132   1.711  0.00  0.00    +0.170 C 
ATOM      4  C   LIG    1        1.879  -6.370   2.905  0.00  0.00    +0.010 C 
ATOM      5  C   LIG    1        1.340  -4.958   3.252  0.00  0.00    +0.040 C 
ENDROOT
BRANCH   1   7
ATOM      6  C   LIG    1        0.633  -2.085   1.012  0.00  0.00    +0.510 C 
ATOM      7  N   LIG    1        1.208  -2.846   1.964  0.00  0.00    -0.720 N 
ATOM      8  H   LIG    1        1.647  -2.427   2.721  0.00  0.00    +0.400 HD
ATOM      9  O   LIG    1        0.084  -2.609   0.067  0.00  0.00    -0.510 OA
BRANCH   6  10
ATOM     10  C   LIG    1        0.673  -0.582   1.123  0.00  0.00    +0.200 C 
BRANCH  10  12
ATOM     11  C   LIG    1       -0.017   1.425   0.010  0.00  0.00    +0.210 C 
ATOM     12  O   LIG    1        0.002  -0.004   0.002  0.00  0.00    -0.370 OA
ENDBRANCH  10  12
ENDBRANCH   6  10
ENDBRANCH   1   7
BRANCH   3  13
ATOM     13  O   LIG    1        4.174  -6.009   2.172  0.00  0.00    -0.560 OA
ATOM     14  H   LIG    1        4.816  -5.838   1.470  0.00  0.00    +0.380 HD
ENDBRANCH   3  13
BRANCH   4  15
ATOM     15  C   LIG    1        2.646  -6.961   4.089  0.00  0.00    +0.190 C 
BRANCH  15  16
ATOM     16  O   LIG    1        3.102  -8.273   3.754  0.00  0.00    -0.570 OA
ATOM     17  H   LIG    1        3.598  -8.709   4.461  0.00  0.00    +0.380 HD
ENDBRANCH  15  16
ENDBRANCH   4  15
TORSDOF 6
ENDMDL
MODEL      142
REMARK  Name = ZINC000222651189
REMARK                            x       y       z     vdW  Elec       q    Type
REMARK                         _______ _______ _______ _____ _____    ______ ____
ROOT
ATOM      1  C   LIG    1       -0.318   1.440   0.076  0.00  0.00    +0.360 C 
ATOM      2  N   LIG    1       -0.146  -0.014   0.035  0.00  0.00    -0.550 N 
ATOM      3  C   LIG    1        0.031  -0.632  -1.146  0.00  0.00    +0.690 A 
ATOM      4  N   LIG    1        0.193  -1.963  -1.230  0.00  0.00    -0.610 N 
ATOM      5  H   LIG    1        0.318  -2.373  -2.100  0.00  0.00    +0.450 HD
ATOM      6  CA  LIG    1        0.183  -2.757  -0.103  0.00  0.00    +0.210 A 
ATOM      7  C   LIG    1        0.008  -2.183   1.115  0.00  0.00    -0.330 A 
ATOM      8  O   LIG    1        0.047   0.031  -2.165  0.00  0.00    -0.530 OA
ATOM      9  C   LIG    1       -0.162  -0.724   1.182  0.00  0.00    +0.560 A 
ATOM     10  O   LIG    1       -0.322  -0.167   2.252  0.00  0.00    -0.520 OA
ENDROOT
BRANCH   6  11
ATOM     11  C   LIG    1        0.364  -4.224  -0.219  0.00  0.00    +0.520 C 
ATOM     12  OXT LIG    1        0.403  -4.749  -1.322  0.00  0.00    -0.620 OA
ATOM     13  O   LIG    1        0.474  -4.907   0.788  0.00  0.00    -0.650 OA
ENDBRANCH   6  11
BRANCH   7  14
ATOM     14  C   LIG    1       -0.008  -3.020   2.368  0.00  0.00    +0.370 C 
BRANCH  14  15
ATOM     15  N   LIG    1        1.345  -3.070   2.940  0.00  0.00    -0.380 N 
ATOM     16  C   LIG    1        1.355  -3.982   4.092  0.00  0.00    +0.310 C 
ATOM     17  C   LIG    1        1.742  -1.725   3.376  0.00  0.00    +0.300 C 
ATOM     18  H   LIG    1        1.993  -3.403   2.242  0.00  0.00    +0.430 HD
ENDBRANCH  14  15
ENDBRANCH   7  14
TORSDOF 3
ENDMDL
MODEL      143
REMARK  Name = ZINC000004429954
REMARK                            x       y       z     vdW  Elec       q    Type
REMARK                         _______ _______ _______ _____ _____    ______ ____
ROOT
ATOM      1  C   LIG    1        0.657  -2.104  -1.120  0.00  0.00    +0.270 C 
ATOM      2  O   LIG    1       -0.666  -2.627  -1.248  0.00  0.00    -0.370 OA
ATOM      3  C   LIG    1       -0.723  -4.051  -1.356  0.00  0.00    +0.230 C 
ATOM      4  C   LIG    1       -0.135  -4.680  -0.090  0.00  0.00    +0.120 C 
ATOM      5  C   LIG    1        1.303  -4.186   0.096  0.00  0.00    +0.210 C 
ATOM      6  C   LIG    1        1.301  -2.655   0.155  0.00  0.00    +0.200 C 
ENDROOT
BRANCH   1   7
ATOM      7  C   LIG    1        0.598  -0.600  -1.043  0.00  0.00    +0.450 C 
ATOM      8  O   LIG    1        1.088   0.070  -1.921  0.00  0.00    -0.470 OA
BRANCH   7  10
ATOM      9  C   LIG    1       -0.018   1.448   0.010  0.00  0.00    +0.280 C 
ATOM     10  O   LIG    1        0.002  -0.004   0.002  0.00  0.00    -0.350 OA
ENDBRANCH   7  10
ENDBRANCH   1   7
BRANCH   5  11
ATOM     11  O   LIG    1        2.105  -4.622  -1.003  0.00  0.00    -0.540 OA
ATOM     12  H   LIG    1        2.145  -5.583  -1.104  0.00  0.00    +0.390 HD
ENDBRANCH   5  11
BRANCH   4  13
ATOM     13  O   LIG    1       -0.139  -6.103  -0.219  0.00  0.00    -0.560 OA
ATOM     14  H   LIG    1       -1.018  -6.485  -0.344  0.00  0.00    +0.390 HD
ENDBRANCH   4  13
BRANCH   1  15
ATOM     15  O   LIG    1        1.436  -2.493  -2.253  0.00  0.00    -0.510 OA
ATOM     16  H   LIG    1        1.086  -2.177  -3.098  0.00  0.00    +0.390 HD
ENDBRANCH   1  15
BRANCH   6  17
ATOM     17  O   LIG    1        0.555  -2.222   1.294  0.00  0.00    -0.540 OA
ATOM     18  H   LIG    1        0.512  -1.261   1.394  0.00  0.00    +0.390 HD
ENDBRANCH   6  17
TORSDOF 6
ENDMDL
MODEL      144
REMARK  Name = ZINC000004416205
REMARK                            x       y       z     vdW  Elec       q    Type
REMARK                         _______ _______ _______ _____ _____    ______ ____
ROOT
ATOM      1  O   LIG    1       -0.219  -0.163  -0.100  0.00  0.00    -0.400 OA
ATOM      2  C   LIG    1       -0.186   1.043  -0.045  0.00  0.00    +0.370 C 
ATOM      3  C   LIG    1       -1.384   1.974   0.010  0.00  0.00    -0.030 C 
ATOM      4  C   LIG    1       -0.840   3.265   0.671  0.00  0.00    +0.030 C 
ATOM      5  C   LIG    1        0.583   3.372   0.066  0.00  0.00    +0.030 C 
ATOM      6  C   LIG    1        1.058   1.906  -0.010  0.00  0.00    -0.040 C 
ENDROOT
BRANCH   5   7
ATOM      7  C   LIG    1        1.498   4.186   0.983  0.00  0.00    +0.190 C 
BRANCH   7   8
ATOM      8  O   LIG    1        2.766   4.369   0.351  0.00  0.00    -0.580 OA
ATOM      9  H   LIG    1        3.398   4.877   0.877  0.00  0.00    +0.380 HD
ENDBRANCH   7   8
ENDBRANCH   5   7
BRANCH   4  10
ATOM     10  C   LIG    1       -0.779   3.114   2.192  0.00  0.00    +0.180 C 
BRANCH  10  11
ATOM     11  O   LIG    1       -0.408   4.362   2.780  0.00  0.00    -0.570 OA
ATOM     12  H   LIG    1       -0.349   4.340   3.745  0.00  0.00    +0.380 HD
ENDBRANCH  10  11
ENDBRANCH   4  10
BRANCH   3  13
ATOM     13  C   LIG    1       -2.498   1.363   0.862  0.00  0.00    +0.200 C 
BRANCH  13  14
ATOM     14  O   LIG    1       -3.007   0.195   0.215  0.00  0.00    -0.560 OA
ATOM     15  H   LIG    1       -3.718  -0.245   0.701  0.00  0.00    +0.380 HD
ENDBRANCH  13  14
ENDBRANCH   3  13
BRANCH   6  16
ATOM     16  C   LIG    1        1.906   1.567   1.217  0.00  0.00    +0.190 C 
BRANCH  16  17
ATOM     17  O   LIG    1        2.443   0.250   1.076  0.00  0.00    -0.560 OA
ATOM     18  H   LIG    1        2.993  -0.032   1.820  0.00  0.00    +0.380 HD
ENDBRANCH  16  17
ENDBRANCH   6  16
TORSDOF 8
ENDMDL
MODEL      145
REMARK  Name = ZINC000004429952
REMARK                            x       y       z     vdW  Elec       q    Type
REMARK                         _______ _______ _______ _____ _____    ______ ____
ROOT
ATOM      1  C   LIG    1        0.657  -2.104  -1.120  0.00  0.00    +0.270 C 
ATOM      2  O   LIG    1       -0.666  -2.627  -1.248  0.00  0.00    -0.370 OA
ATOM      3  C   LIG    1       -0.723  -4.051  -1.356  0.00  0.00    +0.220 C 
ATOM      4  C   LIG    1       -0.135  -4.680  -0.090  0.00  0.00    +0.120 C 
ATOM      5  C   LIG    1        1.303  -4.186   0.096  0.00  0.00    +0.200 C 
ATOM      6  C   LIG    1        1.301  -2.655   0.155  0.00  0.00    +0.220 C 
ENDROOT
BRANCH   1   7
ATOM      7  C   LIG    1        0.598  -0.600  -1.043  0.00  0.00    +0.450 C 
ATOM      8  O   LIG    1        1.088   0.070  -1.921  0.00  0.00    -0.470 OA
BRANCH   7  10
ATOM      9  C   LIG    1       -0.018   1.448   0.010  0.00  0.00    +0.280 C 
ATOM     10  O   LIG    1        0.002  -0.004   0.002  0.00  0.00    -0.350 OA
ENDBRANCH   7  10
ENDBRANCH   1   7
BRANCH   5  11
ATOM     11  O   LIG    1        2.105  -4.622  -1.003  0.00  0.00    -0.530 OA
ATOM     12  H   LIG    1        2.145  -5.583  -1.104  0.00  0.00    +0.380 HD
ENDBRANCH   5  11
BRANCH   4  13
ATOM     13  O   LIG    1       -0.139  -6.103  -0.219  0.00  0.00    -0.550 OA
ATOM     14  H   LIG    1       -1.018  -6.485  -0.344  0.00  0.00    +0.390 HD
ENDBRANCH   4  13
BRANCH   1  15
ATOM     15  O   LIG    1        1.436  -2.493  -2.253  0.00  0.00    -0.500 OA
ATOM     16  H   LIG    1        1.086  -2.177  -3.098  0.00  0.00    +0.390 HD
ENDBRANCH   1  15
BRANCH   6  17
ATOM     17  O   LIG    1        2.645  -2.179   0.258  0.00  0.00    -0.530 OA
ATOM     18  H   LIG    1        2.719  -1.216   0.300  0.00  0.00    +0.380 HD
ENDBRANCH   6  17
TORSDOF 6
ENDMDL
MODEL      146
REMARK  Name = ZINC000004403642
REMARK                            x       y       z     vdW  Elec       q    Type
REMARK                         _______ _______ _______ _____ _____    ______ ____
ROOT
ATOM      1  O   LIG    1        0.002  -0.004   0.002  0.00  0.00    -0.440 OA
ATOM      2  C   LIG    1       -0.014   1.204   0.009  0.00  0.00    +0.460 C 
ATOM      3  O   LIG    1       -1.121   1.960   0.029  0.00  0.00    -0.320 OA
ATOM      4  C   LIG    1       -0.802   3.296   0.519  0.00  0.00    +0.180 C 
ATOM      5  C   LIG    1        0.659   3.531   0.071  0.00  0.00    +0.190 C 
ATOM      6  C   LIG    1        1.212   2.091   0.002  0.00  0.00    +0.120 C 
ENDROOT
BRANCH   5   7
ATOM      7  O   LIG    1        0.703   4.166  -1.208  0.00  0.00    -0.530 OA
ATOM      8  H   LIG    1        1.598   4.336  -1.533  0.00  0.00    +0.390 HD
ENDBRANCH   5   7
BRANCH   6   9
ATOM      9  O   LIG    1        1.951   1.900  -1.206  0.00  0.00    -0.530 OA
ATOM     10  H   LIG    1        2.322   1.012  -1.304  0.00  0.00    +0.400 HD
ENDBRANCH   6   9
BRANCH   4  11
ATOM     11  C   LIG    1       -1.732   4.333  -0.113  0.00  0.00    +0.220 C 
BRANCH  11  12
ATOM     12  O   LIG    1       -1.379   5.637   0.355  0.00  0.00    -0.530 OA
ATOM     13  H   LIG    1       -1.445   5.742   1.314  0.00  0.00    +0.370 HD
ENDBRANCH  11  12
BRANCH  11  14
ATOM     14  C   LIG    1       -3.179   4.026   0.276  0.00  0.00    +0.190 C 
BRANCH  14  15
ATOM     15  O   LIG    1       -3.285   3.958   1.700  0.00  0.00    -0.540 OA
ATOM     16  H   LIG    1       -3.035   4.776   2.152  0.00  0.00    +0.370 HD
ENDBRANCH  14  15
BRANCH  14  17
ATOM     17  C   LIG    1       -4.095   5.132  -0.251  0.00  0.00    +0.170 C 
BRANCH  17  18
ATOM     18  O   LIG    1       -5.457   4.788   0.010  0.00  0.00    -0.570 OA
ATOM     19  H   LIG    1       -6.095   5.446  -0.298  0.00  0.00    +0.380 HD
ENDBRANCH  17  18
ENDBRANCH  14  17
ENDBRANCH  11  14
ENDBRANCH   4  11
TORSDOF 8
ENDMDL
MODEL      147
REMARK  Name = ZINC000004416208
REMARK                            x       y       z     vdW  Elec       q    Type
REMARK                         _______ _______ _______ _____ _____    ______ ____
ROOT
ATOM      1  O   LIG    1        0.002  -0.004   0.002  0.00  0.00    -0.400 OA
ATOM      2  C   LIG    1       -0.014   1.203   0.009  0.00  0.00    +0.370 C 
ATOM      3  C   LIG    1       -1.249   2.086   0.032  0.00  0.00    -0.020 C 
ATOM      4  C   LIG    1       -0.756   3.424   0.637  0.00  0.00    +0.010 C 
ATOM      5  C   LIG    1        0.659   3.564   0.021  0.00  0.00    +0.030 C 
ATOM      6  C   LIG    1        1.193   2.117   0.002  0.00  0.00    -0.030 C 
ENDROOT
BRANCH   5   7
ATOM      7  C   LIG    1        1.542   4.452   0.900  0.00  0.00    +0.170 C 
BRANCH   7   8
ATOM      8  O   LIG    1        2.800   4.660   0.255  0.00  0.00    -0.570 OA
ATOM      9  H   LIG    1        3.413   5.216   0.757  0.00  0.00    +0.380 HD
ENDBRANCH   7   8
ENDBRANCH   5   7
BRANCH   4  10
ATOM     10  C   LIG    1       -1.659   4.582   0.207  0.00  0.00    +0.180 C 
BRANCH  10  11
ATOM     11  O   LIG    1       -2.956   4.413   0.782  0.00  0.00    -0.570 OA
ATOM     12  H   LIG    1       -3.583   5.113   0.551  0.00  0.00    +0.380 HD
ENDBRANCH  10  11
ENDBRANCH   4  10
BRANCH   3  13
ATOM     13  C   LIG    1       -2.334   1.465   0.914  0.00  0.00    +0.200 C 
BRANCH  13  14
ATOM     14  O   LIG    1       -2.797   0.252   0.317  0.00  0.00    -0.570 OA
ATOM     15  H   LIG    1       -3.487  -0.197   0.824  0.00  0.00    +0.380 HD
ENDBRANCH  13  14
ENDBRANCH   3  13
BRANCH   6  16
ATOM     16  C   LIG    1        2.059   1.863   1.238  0.00  0.00    +0.200 C 
BRANCH  16  17
ATOM     17  O   LIG    1        2.642   0.561   1.152  0.00  0.00    -0.560 OA
ATOM     18  H   LIG    1        3.205   0.332   1.903  0.00  0.00    +0.380 HD
ENDBRANCH  16  17
ENDBRANCH   6  16
TORSDOF 8
ENDMDL
MODEL      148
REMARK  Name = ZINC000006469019
REMARK                            x       y       z     vdW  Elec       q    Type
REMARK                         _______ _______ _______ _____ _____    ______ ____
ROOT
ATOM      1  C   LIG    1        4.583   0.066   2.182  0.00  0.00    +0.010 C 
ENDROOT
BRANCH   1   2
ATOM      2  C   LIG    1        5.510   0.050   3.370  0.00  0.00    +0.540 C 
ATOM      3  O   LIG    1        5.070   0.234   4.485  0.00  0.00    -0.520 OA
ATOM      4  N   LIG    1        6.828  -0.168   3.194  0.00  0.00    -0.830 N 
ATOM      5  H   LIG    1        7.425  -0.177   3.958  0.00  0.00    +0.410 HD
ATOM      6  H   LIG    1        7.180  -0.314   2.302  0.00  0.00    +0.410 HD
ENDBRANCH   1   2
BRANCH   1   7
ATOM      7  C   LIG    1        4.673   1.402   1.492  0.00  0.00    +0.530 C 
ATOM      8  O   LIG    1        4.847   1.455   0.293  0.00  0.00    -0.470 OA
ATOM      9  N   LIG    1        4.560   2.539   2.207  0.00  0.00    -0.850 N 
ATOM     10  H   LIG    1        4.618   3.399   1.763  0.00  0.00    +0.410 HD
ATOM     11  H   LIG    1        4.421   2.497   3.166  0.00  0.00    +0.400 HD
ENDBRANCH   1   7
BRANCH   1  12
ATOM     12  S   LIG    1        2.884  -0.212   2.740  0.00  0.00    +0.130 S 
BRANCH  12  18
ATOM     13  C   LIG    1       -0.019   1.526   0.010  0.00  0.00    +0.040 C 
ATOM     14  C   LIG    1        0.002  -0.004   0.002  0.00  0.00    +0.250 C 
ATOM     15  C   LIG    1        0.739  -0.508  -1.247  0.00  0.00    +0.010 C 
ATOM     16  C   LIG    1        2.212  -0.229  -1.090  0.00  0.00    +0.510 C 
ATOM     17  N   LIG    1        2.776  -0.156   0.107  0.00  0.00    -0.620 NA
ATOM     18  C   LIG    1        2.084  -0.294   1.228  0.00  0.00    +0.400 C 
ATOM     19  O   LIG    1        2.896  -0.068  -2.081  0.00  0.00    -0.470 OA
ATOM     20  N   LIG    1        0.732  -0.500   1.181  0.00  0.00    -0.720 N 
ATOM     21  H   LIG    1        0.270  -0.959   1.901  0.00  0.00    +0.420 HD
ENDBRANCH  12  18
ENDBRANCH   1  12
TORSDOF 4
ENDMDL
MODEL      149
REMARK  Name = ZINC000005675135
REMARK                            x       y       z     vdW  Elec       q    Type
REMARK                         _______ _______ _______ _____ _____    ______ ____
ROOT
ATOM      1  C   LIG    1       -2.538  -2.661   0.012  0.00  0.00    +0.300 C 
ATOM      2  C   LIG    1       -3.061  -2.760  -1.435  0.00  0.00    -0.280 C 
ATOM      3  S   LIG    1       -2.520  -4.439  -1.952  0.00  0.00    +2.380 S 
ATOM      4  C   LIG    1       -2.766  -5.179  -0.288  0.00  0.00    -0.320 C 
ATOM      5  O   LIG    1       -1.135  -4.422  -2.273  0.00  0.00    -0.920 OA
ATOM      6  O   LIG    1       -3.459  -4.987  -2.867  0.00  0.00    -0.920 OA
ATOM      7  C   LIG    1       -2.370  -4.031   0.658  0.00  0.00    +0.200 C 
ENDROOT
BRANCH   1   9
ATOM      8  C   LIG    1       -1.189  -0.632   0.010  0.00  0.00    +0.650 C 
ATOM      9  N   LIG    1       -1.241  -1.978   0.003  0.00  0.00    -0.710 N 
ATOM     10  H   LIG    1       -0.421  -2.495  -0.007  0.00  0.00    +0.410 HD
ATOM     11  O   LIG    1       -2.217   0.016   0.023  0.00  0.00    -0.560 OA
BRANCH   8  13
ATOM     12  C   LIG    1       -0.018   1.448   0.010  0.00  0.00    +0.310 C 
ATOM     13  O   LIG    1        0.002  -0.004   0.002  0.00  0.00    -0.370 OA
ENDBRANCH   8  13
ENDBRANCH   1   9
BRANCH   7  14
ATOM     14  O   LIG    1       -3.191  -4.089   1.826  0.00  0.00    -0.550 OA
ATOM     15  H   LIG    1       -3.095  -4.906   2.335  0.00  0.00    +0.390 HD
ENDBRANCH   7  14
TORSDOF 3
ENDMDL
MODEL      150
REMARK  Name = ZINC000004546072
REMARK                            x       y       z     vdW  Elec       q    Type
REMARK                         _______ _______ _______ _____ _____    ______ ____
ROOT
ATOM      1  N   LIG    1        2.407   1.043  -0.015  0.00  0.00    -0.510 N 
ATOM      2  C   LIG    1        2.936   0.598   1.168  0.00  0.00    +0.340 A 
ATOM      3  C   LIG    1        3.974  -0.266   1.152  0.00  0.00    -0.070 A 
ATOM      4  C   LIG    1        4.495  -0.695  -0.094  0.00  0.00    +0.540 A 
ATOM      5  N   LIG    1        3.945  -0.233  -1.235  0.00  0.00    -0.650 N 
ATOM      6  H   LIG    1        4.296  -0.522  -2.092  0.00  0.00    +0.440 HD
ATOM      7  O   LIG    1        5.431  -1.474  -0.134  0.00  0.00    -0.490 OA
ATOM      8  F   LIG    1        4.509  -0.715   2.309  0.00  0.00    -0.100 F 
ATOM      9  C   LIG    1        2.908   0.623  -1.191  0.00  0.00    +0.700 A 
ATOM     10  O   LIG    1        2.422   1.030  -2.229  0.00  0.00    -0.530 OA
ENDROOT
BRANCH   1  11
ATOM     11  C   LIG    1        1.280   1.980   0.001  0.00  0.00    +0.360 C 
BRANCH  11  13
ATOM     12  O   LIG    1        0.002  -0.004   0.002  0.00  0.00    -0.530 OA
ATOM     13  C   LIG    1       -0.014   1.209   0.009  0.00  0.00    +0.500 C 
ATOM     14  N   LIG    1       -1.191   1.867   0.018  0.00  0.00    -0.720 N 
ATOM     15  H   LIG    1       -1.204   2.837   0.023  0.00  0.00    +0.410 HD
BRANCH  14  16
ATOM     16  C   LIG    1       -2.449   1.117   0.020  0.00  0.00    +0.290 C 
BRANCH  16  17
ATOM     17  C   LIG    1       -3.626   2.095   0.031  0.00  0.00    +0.190 C 
BRANCH  17  18
ATOM     18  O   LIG    1       -3.633   2.844  -1.186  0.00  0.00    -0.570 OA
ATOM     19  H   LIG    1       -4.354   3.486  -1.249  0.00  0.00    +0.390 HD
ENDBRANCH  17  18
ENDBRANCH  16  17
ENDBRANCH  14  16
ENDBRANCH  11  13
ENDBRANCH   1  11
TORSDOF 5
ENDMDL
MODEL      151
REMARK  Name = ZINC000004529967
REMARK                            x       y       z     vdW  Elec       q    Type
REMARK                         _______ _______ _______ _____ _____    ______ ____
ROOT
ATOM      1  C   LIG    1       -3.477  -0.967   0.030  0.00  0.00    +0.300 C 
ATOM      2  O   LIG    1       -3.856  -1.264  -1.315  0.00  0.00    -0.350 OA
ATOM      3  C   LIG    1       -4.935  -2.195  -1.425  0.00  0.00    +0.220 C 
ATOM      4  C   LIG    1       -6.179  -1.614  -0.748  0.00  0.00    +0.130 C 
ATOM      5  C   LIG    1       -5.854  -1.298   0.715  0.00  0.00    +0.200 C 
ATOM      6  C   LIG    1       -4.662  -0.337   0.766  0.00  0.00    +0.180 C 
ENDROOT
BRANCH   1   7
ATOM      7  N   LIG    1       -2.348  -0.027   0.024  0.00  0.00    -0.460 NA
ATOM      8  H   LIG    1       -2.399   0.605   0.810  0.00  0.00    +0.350 HD
BRANCH   7   9
ATOM      9  N   LIG    1       -1.156  -0.694   0.009  0.00  0.00    -0.520 N 
ATOM     10  H   LIG    1       -1.143  -1.664   0.004  0.00  0.00    +0.430 HD
BRANCH   9  11
ATOM     11  C   LIG    1        0.002  -0.004   0.002  0.00  0.00    +0.590 C 
ATOM     12  S   LIG    1        1.496  -0.840  -0.017  0.00  0.00    -0.620 S 
BRANCH  11  13
ATOM     13  N   LIG    1       -0.016   1.344   0.009  0.00  0.00    -0.790 N 
ATOM     14  H   LIG    1       -0.863   1.817   0.016  0.00  0.00    +0.400 HD
ATOM     15  H   LIG    1        0.817   1.840   0.004  0.00  0.00    +0.430 HD
ENDBRANCH  11  13
ENDBRANCH   9  11
ENDBRANCH   7   9
ENDBRANCH   1   7
BRANCH   5  16
ATOM     16  O   LIG    1       -5.525  -2.506   1.404  0.00  0.00    -0.560 OA
ATOM     17  H   LIG    1       -6.235  -3.163   1.405  0.00  0.00    +0.400 HD
ENDBRANCH   5  16
BRANCH   4  18
ATOM     18  O   LIG    1       -7.244  -2.565  -0.807  0.00  0.00    -0.560 OA
ATOM     19  H   LIG    1       -7.499  -2.815  -1.706  0.00  0.00    +0.390 HD
ENDBRANCH   4  18
BRANCH   6  20
ATOM     20  O   LIG    1       -5.016   0.896   0.136  0.00  0.00    -0.540 OA
ATOM     21  H   LIG    1       -4.306   1.553   0.132  0.00  0.00    +0.390 HD
ENDBRANCH   6  20
TORSDOF 7
ENDMDL
MODEL      152
REMARK  Name = ZINC000257342460
REMARK                            x       y       z     vdW  Elec       q    Type
REMARK                         _______ _______ _______ _____ _____    ______ ____
ROOT
ATOM      1  C   LIG    1       -0.018   1.465   0.010  0.00  0.00    +0.200 C 
ATOM      2  N   LIG    1        0.002  -0.004   0.002  0.00  0.00    -0.520 NA
ATOM      3  C   LIG    1        0.592  -0.516  -1.242  0.00  0.00    +0.180 C 
ATOM      4  C   LIG    1        0.430  -2.039  -1.292  0.00  0.00    +0.290 C 
ATOM      5  N   LIG    1        0.991  -2.608  -0.057  0.00  0.00    -0.620 N 
ATOM      6  C   LIG    1        0.549  -2.051   1.230  0.00  0.00    +0.320 C 
ATOM      7  C   LIG    1        1.886  -3.615  -0.104  0.00  0.00    +0.510 C 
ATOM      8  O   LIG    1        2.338  -4.073   0.924  0.00  0.00    -0.520 OA
ATOM      9  C   LIG    1        0.706  -0.527   1.180  0.00  0.00    +0.120 C 
ENDROOT
BRANCH   9  10
ATOM     10  C   LIG    1        0.119   0.080   2.428  0.00  0.00    +0.520 C 
ATOM     11  O   LIG    1       -0.990   0.570   2.401  0.00  0.00    -0.520 OA
ATOM     12  N   LIG    1        0.827   0.078   3.575  0.00  0.00    -0.850 N 
ATOM     13  H   LIG    1        0.449   0.469   4.379  0.00  0.00    +0.410 HD
ATOM     14  H   LIG    1        1.714  -0.314   3.598  0.00  0.00    +0.400 HD
ENDBRANCH   9  10
BRANCH   7  15
ATOM     15  C   LIG    1        2.325  -4.172  -1.434  0.00  0.00    +0.220 C 
BRANCH  15  16
ATOM     16  O   LIG    1        3.270  -5.222  -1.222  0.00  0.00    -0.550 OA
ATOM     17  H   LIG    1        3.596  -5.628  -2.037  0.00  0.00    +0.390 HD
ENDBRANCH  15  16
ENDBRANCH   7  15
TORSDOF 3
ENDMDL
MODEL      153
REMARK  Name = ZINC000004531039
REMARK                            x       y       z     vdW  Elec       q    Type
REMARK                         _______ _______ _______ _____ _____    ______ ____
ROOT
ATOM      1  C   LIG    1        2.422   1.183  -0.015  0.00  0.00    +0.250 C 
ATOM      2  C   LIG    1        2.822   0.819   1.417  0.00  0.00    +0.350 C 
ATOM      3  O   LIG    1        4.097   0.173   1.404  0.00  0.00    -0.380 OA
ATOM      4  C   LIG    1        5.156   0.981   0.887  0.00  0.00    +0.150 C 
ATOM      5  C   LIG    1        4.849   1.352  -0.566  0.00  0.00    +0.130 C 
ATOM      6  C   LIG    1        3.502   2.080  -0.627  0.00  0.00    +0.180 C 
ENDROOT
BRANCH   1   9
ATOM      7  O   LIG    1        0.002  -0.004   0.002  0.00  0.00    -0.560 OA
ATOM      8  C   LIG    1       -0.014   1.209   0.009  0.00  0.00    +0.630 C 
ATOM      9  N   LIG    1        1.143   1.898   0.001  0.00  0.00    -0.710 N 
ATOM     10  H   LIG    1        1.130   2.868   0.007  0.00  0.00    +0.410 HD
ENDBRANCH   1   9
BRANCH   5  11
ATOM     11  O   LIG    1        5.878   2.207  -1.068  0.00  0.00    -0.560 OA
ATOM     12  H   LIG    1        6.760   1.810  -1.056  0.00  0.00    +0.390 HD
ENDBRANCH   5  11
BRANCH   2  13
ATOM     13  O   LIG    1        2.898   2.007   2.208  0.00  0.00    -0.550 OA
ATOM     14  H   LIG    1        3.147   1.851   3.129  0.00  0.00    +0.380 HD
ENDBRANCH   2  13
BRANCH   6  15
ATOM     15  O   LIG    1        3.585   3.301   0.110  0.00  0.00    -0.540 OA
ATOM     16  H   LIG    1        4.255   3.915  -0.220  0.00  0.00    +0.380 HD
ENDBRANCH   6  15
BRANCH   4  17
ATOM     17  C   LIG    1        6.470   0.201   0.948  0.00  0.00    +0.200 C 
BRANCH  17  18
ATOM     18  O   LIG    1        6.815  -0.045   2.313  0.00  0.00    -0.560 OA
ATOM     19  H   LIG    1        7.640  -0.537   2.428  0.00  0.00    +0.380 HD
ENDBRANCH  17  18
ENDBRANCH   4  17
TORSDOF 6
ENDMDL
MODEL      154
REMARK  Name = ZINC000004545918
REMARK                            x       y       z     vdW  Elec       q    Type
REMARK                         _______ _______ _______ _____ _____    ______ ____
ROOT
ATOM      1  CA  PRO A  2        0.780  -1.133   3.576  0.00  0.00    +0.230 C 
ATOM      2  CB  PRO A  2        1.910  -0.150   3.951  0.00  0.00    +0.070 C 
ATOM      3  CG  PRO A  2        1.261   0.719   5.061  0.00  0.00    +0.050 C 
ATOM      4  CD  PRO A  2        0.372  -0.320   5.790  0.00  0.00    +0.260 C 
ATOM      5  N   PRO A  2       -0.143  -1.197   4.718  0.00  0.00    -0.580 N 
ATOM      6  C   GLY A  1       -1.273  -1.930   4.779  0.00  0.00    +0.510 C 
ATOM      7  O   GLY A  1       -1.601  -2.617   3.835  0.00  0.00    -0.510 OA
ENDROOT
BRANCH   1  10
ATOM      8  N   ALA A  3        0.711  -0.489   1.189  0.00  0.00    -0.690 N 
ATOM      9  H   ALA A  3        1.654  -0.707   1.135  0.00  0.00    +0.410 HD
ATOM     10  C   PRO A  2        0.051  -0.633   2.355  0.00  0.00    +0.500 C 
ATOM     11  O   PRO A  2       -1.129  -0.361   2.423  0.00  0.00    -0.550 OA
BRANCH   8  13
ATOM     12  CB  ALA A  3       -0.019   1.526   0.010  0.00  0.00    +0.020 C 
ATOM     13  CA  ALA A  3        0.002  -0.004   0.002  0.00  0.00    +0.150 C 
BRANCH  13  14
ATOM     14  C   ALA A  3        0.707  -0.490  -1.238  0.00  0.00    +0.490 C 
ATOM     15  OXT ALA A  3        0.073  -0.696  -2.259  0.00  0.00    -0.680 OA
ATOM     16  O   ALA A  3        1.912  -0.677  -1.220  0.00  0.00    -0.690 OA
ENDBRANCH  13  14
ENDBRANCH   8  13
ENDBRANCH   1  10
BRANCH   6  17
ATOM     17  CA  GLY A  1       -2.128  -1.896   6.019  0.00  0.00    +0.300 C 
BRANCH  17  18
ATOM     18  N   GLY A  1       -3.292  -2.772   5.836  0.00  0.00    -0.620 N 
ATOM     19  H1  GLY A  1       -2.979  -3.717   5.669  0.00  0.00    +0.440 HD
ATOM     20  H2  GLY A  1       -3.833  -2.453   5.046  0.00  0.00    +0.440 HD
ATOM     21  H3  GLY A  1       -3.865  -2.749   6.666  0.00  0.00    +0.440 HD
ENDBRANCH  17  18
ENDBRANCH   6  17
TORSDOF 5
ENDMDL
MODEL      155
REMARK  Name = ZINC000257342459
REMARK                            x       y       z     vdW  Elec       q    Type
REMARK                         _______ _______ _______ _____ _____    ______ ____
ROOT
ATOM      1  C   LIG    1       -0.018   1.465   0.010  0.00  0.00    +0.200 C 
ATOM      2  N   LIG    1        0.002  -0.004   0.002  0.00  0.00    -0.520 NA
ATOM      3  C   LIG    1       -1.359  -0.548  -0.091  0.00  0.00    +0.180 C 
ATOM      4  C   LIG    1       -1.286  -2.068  -0.279  0.00  0.00    +0.290 C 
ATOM      5  N   LIG    1       -0.463  -2.633   0.801  0.00  0.00    -0.620 N 
ATOM      6  C   LIG    1        0.864  -2.046   1.044  0.00  0.00    +0.320 C 
ATOM      7  C   LIG    1       -0.911  -3.662   1.546  0.00  0.00    +0.510 C 
ATOM      8  O   LIG    1       -0.219  -4.116   2.433  0.00  0.00    -0.520 OA
ATOM      9  C   LIG    1        0.706  -0.527   1.180  0.00  0.00    +0.120 C 
ENDROOT
BRANCH   9  10
ATOM     10  C   LIG    1        2.067   0.112   1.279  0.00  0.00    +0.520 C 
ATOM     11  O   LIG    1        2.566   0.629   0.302  0.00  0.00    -0.520 OA
ATOM     12  N   LIG    1        2.729   0.110   2.453  0.00  0.00    -0.850 N 
ATOM     13  H   LIG    1        3.605   0.522   2.516  0.00  0.00    +0.410 HD
ATOM     14  H   LIG    1        2.330  -0.303   3.234  0.00  0.00    +0.400 HD
ENDBRANCH   9  10
BRANCH   7  15
ATOM     15  C   LIG    1       -2.273  -4.249   1.279  0.00  0.00    +0.220 C 
BRANCH  15  16
ATOM     16  O   LIG    1       -2.518  -5.320   2.193  0.00  0.00    -0.550 OA
ATOM     17  H   LIG    1       -3.379  -5.745   2.079  0.00  0.00    +0.390 HD
ENDBRANCH  15  16
ENDBRANCH   7  15
TORSDOF 3
ENDMDL
MODEL      156
REMARK  Name = ZINC000004533878
REMARK                            x       y       z     vdW  Elec       q    Type
REMARK                         _______ _______ _______ _____ _____    ______ ____
ROOT
ATOM      1  C   LIG    1       -2.474  -2.700   0.487  0.00  0.00    +0.210 C 
ENDROOT
BRANCH   1   2
ATOM      2  O   LIG    1       -3.508  -2.400  -0.453  0.00  0.00    -0.540 OA
ATOM      3  H   LIG    1       -3.413  -2.857  -1.301  0.00  0.00    +0.370 HD
ENDBRANCH   1   2
BRANCH   1   4
ATOM      4  CA  LIG    1       -1.123  -2.263  -0.083  0.00  0.00    +0.230 C 
BRANCH   4   7
ATOM      5  C   LIG    1        2.285  -2.985   1.502  0.00  0.00    +0.090 C 
ATOM      6  C   LIG    1        1.201  -2.712   0.492  0.00  0.00    +0.510 C 
ATOM      7  N   LIG    1       -0.070  -2.529   0.900  0.00  0.00    -0.720 N 
ATOM      8  H   LIG    1       -0.287  -2.572   1.844  0.00  0.00    +0.400 HD
ATOM      9  O   LIG    1        1.473  -2.657  -0.689  0.00  0.00    -0.540 OA
ENDBRANCH   4   7
BRANCH   4  10
ATOM     10  C   LIG    1       -1.163  -0.766  -0.396  0.00  0.00    +0.180 C 
BRANCH  10  11
ATOM     11  O   LIG    1       -1.532  -0.043   0.780  0.00  0.00    -0.570 OA
ATOM     12  H   LIG    1       -1.577   0.915   0.655  0.00  0.00    +0.380 HD
ENDBRANCH  10  11
ENDBRANCH   4  10
ENDBRANCH   1   4
BRANCH   1  13
ATOM     13  C   LIG    1       -2.451  -4.206   0.756  0.00  0.00    +0.160 C 
BRANCH  13  14
ATOM     14  O   LIG    1       -2.149  -4.902  -0.456  0.00  0.00    -0.550 OA
ATOM     15  H   LIG    1       -2.786  -4.749  -1.167  0.00  0.00    +0.380 HD
ENDBRANCH  13  14
BRANCH  13  16
ATOM     16  C   LIG    1       -3.820  -4.654   1.273  0.00  0.00    +0.190 C 
BRANCH  16  17
ATOM     17  O   LIG    1       -4.122  -3.958   2.484  0.00  0.00    -0.540 OA
ATOM     18  H   LIG    1       -3.484  -4.111   3.195  0.00  0.00    +0.370 HD
ENDBRANCH  16  17
BRANCH  16  19
ATOM     19  C   LIG    1       -3.796  -6.160   1.541  0.00  0.00    +0.160 C 
BRANCH  19  20
ATOM     20  O   LIG    1       -5.105  -6.598   1.913  0.00  0.00    -0.560 OA
ATOM     21  H   LIG    1       -5.164  -7.545   2.098  0.00  0.00    +0.380 HD
ENDBRANCH  19  20
ENDBRANCH  16  19
ENDBRANCH  13  16
ENDBRANCH   1  13
TORSDOF 11
ENDMDL
MODEL      157
REMARK  Name = ZINC000004545919
REMARK                            x       y       z     vdW  Elec       q    Type
REMARK                         _______ _______ _______ _____ _____    ______ ____
ROOT
ATOM      1  CA  PRO A  2        0.712  -1.094  -3.598  0.00  0.00    +0.230 C 
ATOM      2  CB  PRO A  2        1.255  -2.520  -3.368  0.00  0.00    +0.060 C 
ATOM      3  CG  PRO A  2        0.159  -3.417  -4.002  0.00  0.00    +0.050 C 
ATOM      4  CD  PRO A  2       -0.289  -2.554  -5.208  0.00  0.00    +0.260 C 
ATOM      5  N   PRO A  2       -0.237  -1.161  -4.720  0.00  0.00    -0.580 N 
ATOM      6  C   GLY A  1       -0.944  -0.127  -5.218  0.00  0.00    +0.510 C 
ATOM      7  O   GLY A  1       -0.822   0.979  -4.736  0.00  0.00    -0.510 OA
ENDROOT
BRANCH   1  10
ATOM      8  N   ALA A  3        0.688  -0.476  -1.203  0.00  0.00    -0.680 N 
ATOM      9  H   ALA A  3        1.632  -0.695  -1.170  0.00  0.00    +0.410 HD
ATOM     10  C   PRO A  2        0.006  -0.608  -2.358  0.00  0.00    +0.500 C 
ATOM     11  O   PRO A  2       -1.175  -0.336  -2.400  0.00  0.00    -0.550 OA
BRANCH   8  13
ATOM     12  CB  ALA A  3       -0.019   1.526   0.010  0.00  0.00    +0.020 C 
ATOM     13  CA  ALA A  3        0.002  -0.004   0.002  0.00  0.00    +0.150 C 
BRANCH  13  14
ATOM     14  C   ALA A  3        0.731  -0.503   1.223  0.00  0.00    +0.490 C 
ATOM     15  OXT ALA A  3        1.824  -1.032   1.107  0.00  0.00    -0.690 OA
ATOM     16  O   ALA A  3        0.228  -0.379   2.326  0.00  0.00    -0.680 OA
ENDBRANCH  13  14
ENDBRANCH   8  13
ENDBRANCH   1  10
BRANCH   6  17
ATOM     17  CA  GLY A  1       -1.886  -0.346  -6.373  0.00  0.00    +0.300 C 
BRANCH  17  18
ATOM     18  N   GLY A  1       -2.531   0.926  -6.726  0.00  0.00    -0.620 N 
ATOM     19  H1  GLY A  1       -1.827   1.599  -6.989  0.00  0.00    +0.440 HD
ATOM     20  H2  GLY A  1       -3.048   1.273  -5.932  0.00  0.00    +0.440 HD
ATOM     21  H3  GLY A  1       -3.162   0.780  -7.500  0.00  0.00    +0.440 HD
ENDBRANCH  17  18
ENDBRANCH   6  17
TORSDOF 5
ENDMDL
MODEL      158
REMARK  Name = ZINC000019167208
REMARK                            x       y       z     vdW  Elec       q    Type
REMARK                         _______ _______ _______ _____ _____    ______ ____
ROOT
ATOM      1  N   LIG    1       -1.155   0.869  -2.747  0.00  0.00    -0.330 NA
ENDROOT
BRANCH   1   2
ATOM      2  C   LIG    1       -0.616  -0.463  -3.053  0.00  0.00    +0.180 C 
BRANCH   2   3
ATOM      3  C   LIG    1       -0.351  -1.218  -1.748  0.00  0.00    +0.180 C 
BRANCH   3   4
ATOM      4  O   LIG    1       -1.593  -1.502  -1.102  0.00  0.00    -0.540 OA
ATOM      5  H   LIG    1       -1.507  -2.045  -0.306  0.00  0.00    +0.360 HD
ENDBRANCH   3   4
ENDBRANCH   2   3
ENDBRANCH   1   2
BRANCH   1   6
ATOM      6  N   LIG    1       -2.336   0.773  -1.905  0.00  0.00    -0.320 NA
BRANCH   6   7
ATOM      7  C   LIG    1       -3.530   0.472  -2.706  0.00  0.00    +0.140 C 
BRANCH   7   8
ATOM      8  C   LIG    1       -4.516  -0.343  -1.867  0.00  0.00    +0.190 C 
BRANCH   8   9
ATOM      9  O   LIG    1       -4.856   0.388  -0.687  0.00  0.00    -0.570 OA
ATOM     10  H   LIG    1       -5.536  -0.035  -0.145  0.00  0.00    +0.370 HD
ENDBRANCH   8   9
ENDBRANCH   7   8
ENDBRANCH   6   7
BRANCH   6  11
ATOM     11  C   LIG    1       -2.525   2.000  -1.119  0.00  0.00    +0.210 C 
BRANCH  11  12
ATOM     12  C   LIG    1       -1.345   2.177  -0.161  0.00  0.00    +0.160 C 
BRANCH  12  13
ATOM     13  O   LIG    1       -0.148   2.388  -0.913  0.00  0.00    -0.530 OA
ATOM     14  H   LIG    1        0.653   2.432  -0.372  0.00  0.00    +0.360 HD
ENDBRANCH  12  13
ENDBRANCH  11  12
ENDBRANCH   6  11
ENDBRANCH   1   6
BRANCH   1  15
ATOM     15  C   LIG    1       -1.445   1.615  -3.978  0.00  0.00    +0.140 C 
BRANCH  15  16
ATOM     16  C   LIG    1       -1.153   3.100  -3.756  0.00  0.00    +0.170 C 
BRANCH  16  17
ATOM     17  O   LIG    1        0.213   3.264  -3.369  0.00  0.00    -0.540 OA
ATOM     18  H   LIG    1        0.469   4.183  -3.211  0.00  0.00    +0.370 HD
ENDBRANCH  16  17
ENDBRANCH  15  16
ENDBRANCH   1  15
TORSDOF 13
ENDMDL
MODEL      159
REMARK  Name = ZINC000090697793
REMARK                            x       y       z     vdW  Elec       q    Type
REMARK                         _______ _______ _______ _____ _____    ______ ____
ROOT
ATOM      1  C   LIG    1        0.002  -0.004   0.002  0.00  0.00    +0.130 C 
ATOM      2  C   LIG    1        0.672  -0.543   1.286  0.00  0.00    +0.180 C 
ATOM      3  C   LIG    1       -0.441  -1.367   1.972  0.00  0.00    +0.140 C 
ATOM      4  O   LIG    1       -1.675  -0.812   1.467  0.00  0.00    -0.350 OA
ATOM      5  C   LIG    1       -1.436  -0.565   0.061  0.00  0.00    +0.430 C 
ENDROOT
BRANCH   5   6
ATOM      6  N   LIG    1       -2.393   0.418  -0.454  0.00  0.00    -0.520 N 
ATOM      7  C   LIG    1       -2.523   1.628   0.170  0.00  0.00    +0.400 A 
ATOM      8  C   LIG    1       -3.404   2.534  -0.305  0.00  0.00    -0.140 A 
ATOM      9  C   LIG    1       -4.178   2.210  -1.445  0.00  0.00    +0.550 A 
ATOM     10  N   LIG    1       -4.020   1.006  -2.032  0.00  0.00    -0.660 N 
ATOM     11  H   LIG    1       -4.547   0.776  -2.813  0.00  0.00    +0.430 HD
ATOM     12  O   LIG    1       -4.979   3.011  -1.892  0.00  0.00    -0.510 OA
ATOM     13  C   LIG    1       -3.130   0.124  -1.540  0.00  0.00    +0.700 A 
ATOM     14  O   LIG    1       -2.998  -0.958  -2.080  0.00  0.00    -0.540 OA
ENDBRANCH   5   6
BRANCH   1  15
ATOM     15  N   LIG    1       -0.018   1.465   0.010  0.00  0.00    -0.820 NA
ATOM     16  H   LIG    1       -0.556   1.823  -0.764  0.00  0.00    +0.340 HD
ATOM     17  H   LIG    1        0.919   1.839   0.003  0.00  0.00    +0.360 HD
ENDBRANCH   1  15
BRANCH   2  18
ATOM     18  O   LIG    1        1.089   0.536   2.124  0.00  0.00    -0.530 OA
ATOM     19  H   LIG    1        1.516   0.254   2.945  0.00  0.00    +0.380 HD
ENDBRANCH   2  18
BRANCH   3  20
ATOM     20  C   LIG    1       -0.363  -1.205   3.491  0.00  0.00    +0.210 C 
BRANCH  20  21
ATOM     21  O   LIG    1       -1.323  -2.062   4.112  0.00  0.00    -0.570 OA
ATOM     22  H   LIG    1       -1.330  -2.012   5.077  0.00  0.00    +0.390 HD
ENDBRANCH  20  21
ENDBRANCH   3  20
TORSDOF 5
ENDMDL
MODEL      160
REMARK  Name = ZINC000083871895
REMARK                            x       y       z     vdW  Elec       q    Type
REMARK                         _______ _______ _______ _____ _____    ______ ____
ROOT
ATOM      1  C   LIG    1       -0.018   1.465   0.010  0.00  0.00    +0.190 C 
ATOM      2  N   LIG    1        0.002  -0.004   0.002  0.00  0.00    -0.540 NA
ATOM      3  C   LIG    1       -1.359  -0.548  -0.091  0.00  0.00    +0.170 C 
ATOM      4  C   LIG    1       -1.286  -2.068  -0.279  0.00  0.00    +0.300 C 
ATOM      5  N   LIG    1       -0.463  -2.633   0.801  0.00  0.00    -0.620 N 
ATOM      6  C   LIG    1        0.864  -2.046   1.044  0.00  0.00    +0.280 C 
ATOM      7  C   LIG    1       -0.911  -3.662   1.546  0.00  0.00    +0.520 C 
ATOM      8  O   LIG    1       -2.007  -4.135   1.331  0.00  0.00    -0.510 OA
ATOM      9  C   LIG    1        0.706  -0.527   1.180  0.00  0.00    +0.170 C 
ENDROOT
BRANCH   7  10
ATOM     10  C   LIG    1       -0.051  -4.226   2.647  0.00  0.00    +0.110 C 
ATOM     11  C   LIG    1        0.995  -5.170   2.047  0.00  0.00    +0.250 C 
ATOM     12  O   LIG    1        1.760  -5.759   3.102  0.00  0.00    -0.380 OA
ATOM     13  C   LIG    1        0.972  -6.495   4.042  0.00  0.00    +0.220 C 
ATOM     14  C   LIG    1       -0.073  -5.565   4.663  0.00  0.00    +0.150 C 
ATOM     15  N   LIG    1       -0.892  -4.973   3.595  0.00  0.00    -0.670 NA
ATOM     16  H   LIG    1       -1.616  -4.384   3.978  0.00  0.00    +0.350 HD
ENDBRANCH   7  10
TORSDOF 1
ENDMDL
MODEL      161
REMARK  Name = ZINC000002555136
REMARK                            x       y       z     vdW  Elec       q    Type
REMARK                         _______ _______ _______ _____ _____    ______ ____
ROOT
ATOM      1  C   LIG    1        0.673  -0.582   1.123  0.00  0.00    +0.300 C 
ATOM      2  O   LIG    1       -0.104  -0.373   2.304  0.00  0.00    -0.380 OA
ATOM      3  C   LIG    1        0.492  -0.892   3.494  0.00  0.00    +0.150 C 
ATOM      4  C   LIG    1        0.664  -2.408   3.358  0.00  0.00    +0.130 C 
ATOM      5  C   LIG    1        1.518  -2.708   2.123  0.00  0.00    +0.190 C 
ATOM      6  C   LIG    1        0.852  -2.085   0.891  0.00  0.00    +0.260 C 
ENDROOT
BRANCH   6   7
ATOM      7  N   LIG    1        1.698  -2.304  -0.285  0.00  0.00    -0.720 N 
ATOM      8  H   LIG    1        2.652  -2.438  -0.178  0.00  0.00    +0.400 HD
ATOM      9  C   LIG    1        1.149  -2.317  -1.516  0.00  0.00    +0.510 C 
ATOM     10  O   LIG    1       -0.045  -2.148  -1.649  0.00  0.00    -0.520 OA
ATOM     11  C   LIG    1        2.018  -2.542  -2.726  0.00  0.00    +0.080 C 
ENDBRANCH   6   7
BRANCH   1  13
ATOM     12  C   LIG    1       -0.017   1.425   0.010  0.00  0.00    +0.210 C 
ATOM     13  O   LIG    1        0.002  -0.004   0.002  0.00  0.00    -0.340 OA
ENDBRANCH   1  13
BRANCH   5  14
ATOM     14  O   LIG    1        1.624  -4.122   1.947  0.00  0.00    -0.540 OA
ATOM     15  H   LIG    1        2.032  -4.582   2.694  0.00  0.00    +0.380 HD
ENDBRANCH   5  14
BRANCH   4  16
ATOM     16  O   LIG    1       -0.618  -3.022   3.215  0.00  0.00    -0.540 OA
ATOM     17  H   LIG    1       -1.214  -2.869   3.961  0.00  0.00    +0.380 HD
ENDBRANCH   4  16
BRANCH   3  18
ATOM     18  C   LIG    1       -0.409  -0.586   4.692  0.00  0.00    +0.210 C 
BRANCH  18  19
ATOM     19  O   LIG    1       -0.476   0.828   4.889  0.00  0.00    -0.560 OA
ATOM     20  H   LIG    1       -1.032   1.095   5.633  0.00  0.00    +0.390 HD
ENDBRANCH  18  19
ENDBRANCH   3  18
TORSDOF 6
ENDMDL
MODEL      162
REMARK  Name = ZINC000039957201
REMARK                            x       y       z     vdW  Elec       q    Type
REMARK                         _______ _______ _______ _____ _____    ______ ____
ROOT
ATOM      1  C   LIG    1       -0.022   1.415  -0.109  0.00  0.00    +0.030 C 
ATOM      2  C   LIG    1        0.186  -0.100  -0.179  0.00  0.00    +0.240 C 
ATOM      3  O   LIG    1        1.142  -0.430  -1.209  0.00  0.00    -0.350 OA
ATOM      4  C   LIG    1        2.428  -0.168  -0.609  0.00  0.00    +0.150 C 
ATOM      5  C   LIG    1        2.187  -0.271   0.910  0.00  0.00    +0.130 C 
ATOM      6  C   LIG    1       -1.146  -0.808  -0.437  0.00  0.00    +0.090 C 
ATOM      7  O   LIG    1        0.784  -0.583   1.044  0.00  0.00    -0.360 OA
ENDROOT
BRANCH   5   8
ATOM      8  C   LIG    1        3.042  -1.388   1.510  0.00  0.00    +0.200 C 
BRANCH   8   9
ATOM      9  O   LIG    1        2.646  -2.643   0.952  0.00  0.00    -0.540 OA
ATOM     10  H   LIG    1        1.721  -2.872   1.116  0.00  0.00    +0.390 HD
ENDBRANCH   8   9
BRANCH   8  11
ATOM     11  C   LIG    1        2.847  -1.421   3.027  0.00  0.00    +0.190 C 
BRANCH  11  12
ATOM     12  O   LIG    1        3.243  -0.166   3.585  0.00  0.00    -0.540 OA
ATOM     13  H   LIG    1        4.168   0.063   3.421  0.00  0.00    +0.370 HD
ENDBRANCH  11  12
BRANCH  11  14
ATOM     14  C   LIG    1        3.703  -2.539   3.627  0.00  0.00    +0.160 C 
BRANCH  14  15
ATOM     15  O   LIG    1        3.433  -2.645   5.027  0.00  0.00    -0.560 OA
ATOM     16  H   LIG    1        3.942  -3.336   5.473  0.00  0.00    +0.380 HD
ENDBRANCH  14  15
ENDBRANCH  11  14
ENDBRANCH   8  11
ENDBRANCH   5   8
BRANCH   4  17
ATOM     17  C   LIG    1        3.449  -1.215  -1.060  0.00  0.00    +0.210 C 
BRANCH  17  18
ATOM     18  O   LIG    1        3.692  -1.071  -2.461  0.00  0.00    -0.570 OA
ATOM     19  H   LIG    1        4.331  -1.704  -2.816  0.00  0.00    +0.380 HD
ENDBRANCH  17  18
ENDBRANCH   4  17
TORSDOF 8
ENDMDL
MODEL      163
REMARK  Name = ZINC000083871896
REMARK                            x       y       z     vdW  Elec       q    Type
REMARK                         _______ _______ _______ _____ _____    ______ ____
ROOT
ATOM      1  C   LIG    1       -0.018   1.465   0.010  0.00  0.00    +0.190 C 
ATOM      2  N   LIG    1        0.002  -0.004   0.002  0.00  0.00    -0.540 NA
ATOM      3  C   LIG    1       -1.359  -0.548  -0.091  0.00  0.00    +0.170 C 
ATOM      4  C   LIG    1       -1.286  -2.068  -0.279  0.00  0.00    +0.300 C 
ATOM      5  N   LIG    1       -0.463  -2.633   0.801  0.00  0.00    -0.610 N 
ATOM      6  C   LIG    1        0.864  -2.046   1.044  0.00  0.00    +0.280 C 
ATOM      7  C   LIG    1       -0.911  -3.662   1.546  0.00  0.00    +0.530 C 
ATOM      8  O   LIG    1       -2.007  -4.135   1.331  0.00  0.00    -0.530 OA
ATOM      9  C   LIG    1        0.706  -0.527   1.180  0.00  0.00    +0.170 C 
ENDROOT
BRANCH   7  10
ATOM     10  C   LIG    1       -0.051  -4.226   2.647  0.00  0.00    +0.140 C 
ATOM     11  C   LIG    1       -0.157  -3.334   3.887  0.00  0.00    +0.190 C 
ATOM     12  O   LIG    1        0.601  -3.914   4.952  0.00  0.00    -0.370 OA
ATOM     13  C   LIG    1        0.180  -5.234   5.306  0.00  0.00    +0.180 C 
ATOM     14  C   LIG    1        0.290  -6.145   4.081  0.00  0.00    +0.210 C 
ATOM     15  N   LIG    1       -0.509  -5.582   2.983  0.00  0.00    -0.660 NA
ATOM     16  H   LIG    1       -1.492  -5.584   3.214  0.00  0.00    +0.350 HD
ENDBRANCH   7  10
TORSDOF 1
ENDMDL
MODEL      164
REMARK  Name = ZINC000005392897
REMARK                            x       y       z     vdW  Elec       q    Type
REMARK                         _______ _______ _______ _____ _____    ______ ____
ROOT
ATOM      1  C   LIG    1        0.002  -0.004   0.002  0.00  0.00    +0.510 A 
ATOM      2  C   LIG    1       -1.195  -0.739   0.004  0.00  0.00    -0.110 A 
ATOM      3  N   LIG    1       -2.511  -0.417   0.012  0.00  0.00    -0.460 NA
ATOM      4  C   LIG    1       -3.224  -1.506   0.010  0.00  0.00    +0.480 A 
ATOM      5  N   LIG    1       -2.407  -2.597  -0.001  0.00  0.00    -0.470 N 
ATOM      6  C   LIG    1       -1.113  -2.142  -0.005  0.00  0.00    +0.310 A 
ATOM      7  N   LIG    1        0.085  -2.718  -0.015  0.00  0.00    -0.550 NA
ATOM      8  C   LIG    1        1.181  -1.989  -0.016  0.00  0.00    +0.580 A 
ATOM      9  N   LIG    1        1.153  -0.668  -0.013  0.00  0.00    -0.590 NA
ENDROOT
BRANCH   5  10
ATOM     10  C   LIG    1       -2.833  -3.999  -0.007  0.00  0.00    +0.440 C 
ATOM     11  O   LIG    1       -4.166  -4.102  -0.535  0.00  0.00    -0.360 OA
ATOM     12  C   LIG    1       -4.816  -5.182   0.169  0.00  0.00    +0.220 C 
ATOM     13  C   LIG    1       -4.333  -5.003   1.631  0.00  0.00    +0.130 C 
ATOM     14  C   LIG    1       -2.864  -4.544   1.434  0.00  0.00    +0.160 C 
BRANCH  13  15
ATOM     15  O   LIG    1       -4.388  -6.241   2.342  0.00  0.00    -0.550 OA
ATOM     16  H   LIG    1       -5.277  -6.615   2.412  0.00  0.00    +0.390 HD
ENDBRANCH  13  15
BRANCH  14  17
ATOM     17  O   LIG    1       -1.971  -5.650   1.577  0.00  0.00    -0.530 OA
ATOM     18  H   LIG    1       -1.996  -6.065   2.450  0.00  0.00    +0.400 HD
ENDBRANCH  14  17
ENDBRANCH   5  10
BRANCH   1  19
ATOM     19  N   LIG    1       -0.017   1.380   0.010  0.00  0.00    -0.820 N 
ATOM     20  H   LIG    1       -0.863   1.853   0.016  0.00  0.00    +0.420 HD
ATOM     21  H   LIG    1        0.817   1.876   0.004  0.00  0.00    +0.410 HD
ENDBRANCH   1  19
TORSDOF 4
ENDMDL
MODEL      165
REMARK  Name = ZINC000000056702
REMARK                            x       y       z     vdW  Elec       q    Type
REMARK                         _______ _______ _______ _____ _____    ______ ____
ROOT
ATOM      1  C   LIG    1       -0.018   1.503   0.010  0.00  0.00    +0.110 C 
ATOM      2  C   LIG    1        0.002  -0.004   0.002  0.00  0.00    -0.280 A 
ATOM      3  C   LIG    1       -1.155  -0.707   0.004  0.00  0.00    +0.380 A 
ATOM      4  N   LIG    1       -1.107  -2.069  -0.004  0.00  0.00    -0.530 N 
ATOM      5  C   LIG    1        0.077  -2.708  -0.014  0.00  0.00    +0.660 A 
ATOM      6  N   LIG    1        1.224  -2.030  -0.016  0.00  0.00    -0.610 NA
ATOM      7  O   LIG    1        0.101  -3.927  -0.021  0.00  0.00    -0.540 OA
ATOM      8  C   LIG    1        1.226  -0.703  -0.013  0.00  0.00    +0.510 A 
ENDROOT
BRANCH   4   9
ATOM      9  C1* LIG    1       -2.352  -2.842  -0.003  0.00  0.00    +0.410 C 
ATOM     10  C2* LIG    1       -2.464  -3.698  -1.291  0.00  0.00    +0.010 C 
ATOM     11  C3* LIG    1       -3.994  -3.894  -1.417  0.00  0.00    +0.160 C 
ATOM     12  C4* LIG    1       -4.593  -2.748  -0.579  0.00  0.00    +0.190 C 
ATOM     13  O4* LIG    1       -3.495  -1.964  -0.077  0.00  0.00    -0.360 OA
BRANCH  11  14
ATOM     14  O3* LIG    1       -4.381  -5.162  -0.884  0.00  0.00    -0.550 OA
ATOM     15  H3* LIG    1       -3.986  -5.918  -1.340  0.00  0.00    +0.390 HD
ENDBRANCH  11  14
BRANCH  12  16
ATOM     16  C5* LIG    1       -5.500  -1.882  -1.455  0.00  0.00    +0.210 C 
BRANCH  16  17
ATOM     17  O5* LIG    1       -6.141  -0.893  -0.645  0.00  0.00    -0.560 OA
ATOM     18  H5* LIG    1       -6.733  -0.307  -1.136  0.00  0.00    +0.390 HD
ENDBRANCH  16  17
ENDBRANCH  12  16
ENDBRANCH   4   9
BRANCH   8  19
ATOM     19  N   LIG    1        2.417  -0.014  -0.015  0.00  0.00    -0.810 N 
ATOM     20  H   LIG    1        2.416   0.956  -0.013  0.00  0.00    +0.410 HD
ATOM     21  H   LIG    1        3.257  -0.498  -0.018  0.00  0.00    +0.410 HD
ENDBRANCH   8  19
TORSDOF 5
ENDMDL
MODEL      166
REMARK  Name = ZINC000035187036
REMARK                            x       y       z     vdW  Elec       q    Type
REMARK                         _______ _______ _______ _____ _____    ______ ____
ROOT
ATOM      1  O   LIG    1        0.002  -0.004   0.002  0.00  0.00    -0.500 OA
ATOM      2  C   LIG    1       -0.014   1.209   0.009  0.00  0.00    +0.500 C 
ATOM      3  N   LIG    1       -1.191   1.867   0.018  0.00  0.00    -0.600 N 
ATOM      4  C   LIG    1       -1.227   3.335   0.020  0.00  0.00    +0.270 C 
ATOM      5  C   LIG    1       -2.107   3.808  -1.141  0.00  0.00    +0.030 C 
ATOM      6  C   LIG    1       -3.483   3.146  -1.035  0.00  0.00    +0.040 C 
ATOM      7  C   LIG    1       -3.328   1.627  -1.135  0.00  0.00    +0.150 C 
ATOM      8  C   LIG    1       -2.461   1.129   0.020  0.00  0.00    +0.260 C 
ENDROOT
BRANCH   7   9
ATOM      9  O   LIG    1       -4.615   1.010  -1.068  0.00  0.00    -0.560 OA
ATOM     10  H   LIG    1       -4.593   0.045  -1.125  0.00  0.00    +0.380 HD
ENDBRANCH   7   9
BRANCH   2  11
ATOM     11  C   LIG    1        1.280   1.980   0.001  0.00  0.00    +0.380 C 
BRANCH  11  12
ATOM     12  N   LIG    1        2.407   1.043  -0.015  0.00  0.00    -0.310 N 
ATOM     13  C   LIG    1        3.413   1.018  -0.909  0.00  0.00    +0.400 A 
ATOM     14  N   LIG    1        4.201   0.030  -0.560  0.00  0.00    -0.300 NA
ATOM     15  N   LIG    1        3.705  -0.522   0.493  0.00  0.00    -0.070 NA
ATOM     16  N   LIG    1        2.623   0.091   0.828  0.00  0.00    -0.060 NA
ENDBRANCH  11  12
ENDBRANCH   2  11
TORSDOF 3
ENDMDL
MODEL      167
REMARK  Name = ZINC000035187037
REMARK                            x       y       z     vdW  Elec       q    Type
REMARK                         _______ _______ _______ _____ _____    ______ ____
ROOT
ATOM      1  O   LIG    1        0.002  -0.004   0.002  0.00  0.00    -0.500 OA
ATOM      2  C   LIG    1       -0.014   1.209   0.009  0.00  0.00    +0.500 C 
ATOM      3  N   LIG    1       -1.191   1.867   0.018  0.00  0.00    -0.600 N 
ATOM      4  C   LIG    1       -1.227   3.335   0.020  0.00  0.00    +0.270 C 
ATOM      5  C   LIG    1       -2.091   3.806   1.194  0.00  0.00    +0.030 C 
ATOM      6  C   LIG    1       -3.468   3.143   1.106  0.00  0.00    +0.040 C 
ATOM      7  C   LIG    1       -3.312   1.624   1.199  0.00  0.00    +0.150 C 
ATOM      8  C   LIG    1       -2.461   1.129   0.020  0.00  0.00    +0.260 C 
ENDROOT
BRANCH   7   9
ATOM      9  O   LIG    1       -4.600   1.008   1.149  0.00  0.00    -0.560 OA
ATOM     10  H   LIG    1       -4.577   0.043   1.203  0.00  0.00    +0.380 HD
ENDBRANCH   7   9
BRANCH   2  11
ATOM     11  C   LIG    1        1.280   1.980   0.001  0.00  0.00    +0.390 C 
BRANCH  11  12
ATOM     12  N   LIG    1        2.407   1.043  -0.015  0.00  0.00    -0.310 N 
ATOM     13  C   LIG    1        3.413   1.018  -0.909  0.00  0.00    +0.400 A 
ATOM     14  N   LIG    1        4.201   0.030  -0.560  0.00  0.00    -0.300 NA
ATOM     15  N   LIG    1        3.705  -0.522   0.493  0.00  0.00    -0.070 NA
ATOM     16  N   LIG    1        2.623   0.091   0.828  0.00  0.00    -0.070 NA
ENDBRANCH  11  12
ENDBRANCH   2  11
TORSDOF 3
ENDMDL
MODEL      168
REMARK  Name = ZINC000077265491
REMARK                            x       y       z     vdW  Elec       q    Type
REMARK                         _______ _______ _______ _____ _____    ______ ____
ROOT
ATOM      1  C   LIG    1       -0.014  -1.237   4.715  0.00  0.00    +0.260 C 
ATOM      2  C   LIG    1        0.036   0.072   5.544  0.00  0.00    +0.220 C 
ATOM      3  O   LIG    1        1.333   0.021   6.177  0.00  0.00    -0.350 OA
ATOM      4  C   LIG    1        1.547  -1.341   6.584  0.00  0.00    +0.130 C 
ATOM      5  C   LIG    1        0.717  -2.237   5.643  0.00  0.00    +0.150 C 
ENDROOT
BRANCH   1   9
ATOM      6  N   LIG    1        0.711  -0.489   1.189  0.00  0.00    -0.740 N 
ATOM      7  H   LIG    1        1.654  -0.707   1.135  0.00  0.00    +0.400 HD
ATOM      8  C   LIG    1        0.051  -0.633   2.355  0.00  0.00    +0.710 C 
ATOM      9  N   LIG    1        0.703  -1.080   3.447  0.00  0.00    -0.730 N 
ATOM     10  H   LIG    1        1.647  -1.298   3.394  0.00  0.00    +0.400 HD
ATOM     11  O   LIG    1       -1.132  -0.361   2.423  0.00  0.00    -0.580 OA
BRANCH   6  13
ATOM     12  C   LIG    1       -0.019   1.526   0.010  0.00  0.00    +0.020 C 
ATOM     13  C   LIG    1        0.002  -0.004   0.002  0.00  0.00    +0.240 C 
ATOM     14  C   LIG    1        0.718  -0.497  -1.257  0.00  0.00    +0.040 C 
ENDBRANCH   6  13
ENDBRANCH   1   9
BRANCH   5  15
ATOM     15  O   LIG    1       -0.224  -3.011   6.391  0.00  0.00    -0.550 OA
ATOM     16  H   LIG    1        0.182  -3.613   7.029  0.00  0.00    +0.390 HD
ENDBRANCH   5  15
BRANCH   4  17
ATOM     17  C   LIG    1        3.032  -1.691   6.466  0.00  0.00    +0.190 C 
BRANCH  17  18
ATOM     18  O   LIG    1        3.779  -0.926   7.415  0.00  0.00    -0.560 OA
ATOM     19  H   LIG    1        4.730  -1.097   7.396  0.00  0.00    +0.380 HD
ENDBRANCH  17  18
ENDBRANCH   4  17
TORSDOF 5
ENDMDL
MODEL      169
REMARK  Name = ZINC000004721253
REMARK                            x       y       z     vdW  Elec       q    Type
REMARK                         _______ _______ _______ _____ _____    ______ ____
ROOT
ATOM      1  C   LIG    1       -1.056  -2.140   0.001  0.00  0.00    +0.310 C 
ATOM      2  O   LIG    1       -0.468  -2.571  -1.229  0.00  0.00    -0.370 OA
ATOM      3  C   LIG    1       -0.303  -3.987  -1.331  0.00  0.00    +0.140 C 
ATOM      4  C   LIG    1       -1.673  -4.666  -1.250  0.00  0.00    +0.170 C 
ATOM      5  C   LIG    1       -2.352  -4.271   0.065  0.00  0.00    +0.200 C 
ATOM      6  C   LIG    1        0.357  -4.328  -2.669  0.00  0.00    +0.080 C 
ATOM      7  C   LIG    1       -2.455  -2.745   0.136  0.00  0.00    +0.150 C 
ENDROOT
BRANCH   5   8
ATOM      8  O   LIG    1       -3.661  -4.843   0.118  0.00  0.00    -0.530 OA
ATOM      9  H   LIG    1       -4.150  -4.634   0.925  0.00  0.00    +0.380 HD
ENDBRANCH   5   8
BRANCH   4  10
ATOM     10  O   LIG    1       -1.506  -6.085  -1.295  0.00  0.00    -0.550 OA
ATOM     11  H   LIG    1       -1.077  -6.404  -2.101  0.00  0.00    +0.380 HD
ENDBRANCH   4  10
BRANCH   7  12
ATOM     12  O   LIG    1       -3.285  -2.272  -0.927  0.00  0.00    -0.540 OA
ATOM     13  H   LIG    1       -3.395  -1.312  -0.943  0.00  0.00    +0.390 HD
ENDBRANCH   7  12
BRANCH   1  14
ATOM     14  O   LIG    1       -1.151  -0.691   0.009  0.00  0.00    -0.350 OA
BRANCH  14  16
ATOM     15  C   LIG    1       -0.018   1.503   0.010  0.00  0.00    +0.150 C 
ATOM     16  C   LIG    1        0.002  -0.004   0.002  0.00  0.00    +0.460 C 
ATOM     17  O   LIG    1        1.056  -0.594  -0.011  0.00  0.00    -0.490 OA
ENDBRANCH  14  16
ENDBRANCH   1  14
TORSDOF 5
ENDMDL
MODEL      170
REMARK  Name = ZINC000004721250
REMARK                            x       y       z     vdW  Elec       q    Type
REMARK                         _______ _______ _______ _____ _____    ______ ____
ROOT
ATOM      1  C   LIG    1       -1.056  -2.140   0.001  0.00  0.00    +0.320 C 
ATOM      2  O   LIG    1       -0.468  -2.571  -1.229  0.00  0.00    -0.370 OA
ATOM      3  C   LIG    1       -0.303  -3.987  -1.331  0.00  0.00    +0.140 C 
ATOM      4  C   LIG    1       -1.673  -4.666  -1.250  0.00  0.00    +0.150 C 
ATOM      5  C   LIG    1       -2.352  -4.271   0.065  0.00  0.00    +0.210 C 
ATOM      6  C   LIG    1        0.357  -4.328  -2.669  0.00  0.00    +0.070 C 
ATOM      7  C   LIG    1       -2.455  -2.745   0.136  0.00  0.00    +0.130 C 
ENDROOT
BRANCH   5   8
ATOM      8  O   LIG    1       -3.661  -4.843   0.118  0.00  0.00    -0.530 OA
ATOM      9  H   LIG    1       -4.150  -4.634   0.925  0.00  0.00    +0.380 HD
ENDBRANCH   5   8
BRANCH   4  10
ATOM     10  O   LIG    1       -2.481  -4.246  -2.351  0.00  0.00    -0.520 OA
ATOM     11  H   LIG    1       -2.107  -4.460  -3.217  0.00  0.00    +0.370 HD
ENDBRANCH   4  10
BRANCH   7  12
ATOM     12  O   LIG    1       -3.285  -2.272  -0.927  0.00  0.00    -0.510 OA
ATOM     13  H   LIG    1       -3.395  -1.312  -0.943  0.00  0.00    +0.380 HD
ENDBRANCH   7  12
BRANCH   1  14
ATOM     14  O   LIG    1       -1.151  -0.691   0.009  0.00  0.00    -0.340 OA
BRANCH  14  16
ATOM     15  C   LIG    1       -0.018   1.503   0.010  0.00  0.00    +0.150 C 
ATOM     16  C   LIG    1        0.002  -0.004   0.002  0.00  0.00    +0.460 C 
ATOM     17  O   LIG    1        1.056  -0.594  -0.011  0.00  0.00    -0.500 OA
ENDBRANCH  14  16
ENDBRANCH   1  14
TORSDOF 5
ENDMDL
MODEL      171
REMARK  Name = ZINC000003158777
REMARK                            x       y       z     vdW  Elec       q    Type
REMARK                         _______ _______ _______ _____ _____    ______ ____
ROOT
ATOM      1  C   LIG    1       -3.418  -0.517  -1.449  0.00  0.00    +0.420 A 
ATOM      2  N   LIG    1       -4.061  -1.210  -0.533  0.00  0.00    -0.470 NA
ATOM      3  C   LIG    1       -5.334  -1.566  -0.746  0.00  0.00    +0.160 A 
ATOM      4  N   LIG    1       -6.273  -2.226  -0.111  0.00  0.00    -0.330 NA
ATOM      5  O   LIG    1       -7.275  -2.248  -0.795  0.00  0.00    +0.360 OA
ATOM      6  N   LIG    1       -7.206  -1.685  -1.867  0.00  0.00    -0.330 NA
ATOM      7  C   LIG    1       -6.005  -1.177  -2.009  0.00  0.00    +0.160 A 
ATOM      8  N   LIG    1       -5.333  -0.472  -2.929  0.00  0.00    -0.470 NA
ATOM      9  C   LIG    1       -4.085  -0.127  -2.698  0.00  0.00    +0.420 A 
ENDROOT
BRANCH   1  10
ATOM     10  N   LIG    1       -2.105  -0.148  -1.230  0.00  0.00    -0.680 N 
ATOM     11  H   LIG    1       -1.628   0.366  -1.901  0.00  0.00    +0.410 HD
BRANCH  10  12
ATOM     12  C   LIG    1       -1.433  -0.534   0.013  0.00  0.00    +0.300 C 
BRANCH  12  13
ATOM     13  C   LIG    1        0.002  -0.004   0.002  0.00  0.00    +0.190 C 
BRANCH  13  14
ATOM     14  O   LIG    1       -0.017   1.425   0.010  0.00  0.00    -0.570 OA
ATOM     15  H   LIG    1        0.861   1.830   0.004  0.00  0.00    +0.390 HD
ENDBRANCH  13  14
ENDBRANCH  12  13
ENDBRANCH  10  12
ENDBRANCH   1  10
BRANCH   9  16
ATOM     16  N   LIG    1       -3.390   0.600  -3.645  0.00  0.00    -0.680 N 
ATOM     17  H   LIG    1       -2.470   0.857  -3.479  0.00  0.00    +0.410 HD
BRANCH  16  18
ATOM     18  C   LIG    1       -4.044   0.983  -4.899  0.00  0.00    +0.300 C 
BRANCH  18  19
ATOM     19  C   LIG    1       -3.062   1.775  -5.764  0.00  0.00    +0.190 C 
BRANCH  19  20
ATOM     20  O   LIG    1       -1.975   0.930  -6.147  0.00  0.00    -0.570 OA
ATOM     21  H   LIG    1       -1.312   1.367  -6.699  0.00  0.00    +0.390 HD
ENDBRANCH  19  20
ENDBRANCH  18  19
ENDBRANCH  16  18
ENDBRANCH   9  16
TORSDOF 8
ENDMDL
MODEL      172
REMARK  Name = ZINC000004771367
REMARK                            x       y       z     vdW  Elec       q    Type
REMARK                         _______ _______ _______ _____ _____    ______ ____
ROOT
ATOM      1  N   LIG    1        0.002  -0.004   0.002  0.00  0.00    -0.280 N 
ATOM      2  C   LIG    1        0.009  -0.824  -1.094  0.00  0.00    +0.230 A 
ATOM      3  N   LIG    1        0.028  -2.063  -0.652  0.00  0.00    -0.210 NA
ATOM      4  N   LIG    1        0.034  -2.070   0.633  0.00  0.00    -0.220 NA
ATOM      5  C   LIG    1        0.024  -0.836   1.089  0.00  0.00    +0.310 A 
ENDROOT
BRANCH   2   6
ATOM      6  C   LIG    1       -0.003  -0.398  -2.511  0.00  0.00    +0.240 A 
ATOM      7  N   LIG    1       -0.001  -1.183  -3.571  0.00  0.00    -0.240 NA
ATOM      8  N   LIG    1       -0.014  -0.432  -4.618  0.00  0.00    -0.210 N 
ATOM      9  H   LIG    1       -0.015  -0.748  -5.535  0.00  0.00    +0.490 HD
ATOM     10  N   LIG    1       -0.022   0.804  -4.256  0.00  0.00    -0.020 NA
ATOM     11  N   LIG    1       -0.022   0.864  -2.968  0.00  0.00    -0.270 NA
ENDBRANCH   2   6
BRANCH   5  12
ATOM     12  C   LIG    1        0.027  -0.425   2.510  0.00  0.00    +0.240 A 
ATOM     13  N   LIG    1        0.045  -1.222   3.562  0.00  0.00    -0.240 NA
ATOM     14  N   LIG    1        0.041  -0.482   4.617  0.00  0.00    -0.220 N 
ATOM     15  H   LIG    1        0.051  -0.807   5.530  0.00  0.00    +0.480 HD
ATOM     16  N   LIG    1        0.020   0.757   4.269  0.00  0.00    -0.040 NA
ATOM     17  N   LIG    1        0.017   0.832   2.981  0.00  0.00    -0.230 NA
ENDBRANCH   5  12
BRANCH   1  18
ATOM     18  N   LIG    1       -0.016   1.362   0.009  0.00  0.00    -0.570 N 
ATOM     19  H   LIG    1       -0.555   1.720  -0.765  0.00  0.00    +0.390 HD
ATOM     20  H   LIG    1        0.920   1.736   0.003  0.00  0.00    +0.380 HD
ENDBRANCH   1  18
TORSDOF 3
ENDMDL
MODEL      173
REMARK  Name = ZINC000004831481
REMARK                            x       y       z     vdW  Elec       q    Type
REMARK                         _______ _______ _______ _____ _____    ______ ____
ROOT
ATOM      1  C   LIG    1       -0.019   1.526   0.010  0.00  0.00    +0.060 C 
ATOM      2  C   LIG    1        0.002  -0.004   0.002  0.00  0.00    +0.250 C 
ATOM      3  O   LIG    1        0.698  -0.475  -1.175  0.00  0.00    -0.350 OA
ATOM      4  C   LIG    1        1.741  -1.310  -0.696  0.00  0.00    +0.310 C 
ATOM      5  O   LIG    1        2.969  -1.340  -1.392  0.00  0.00    -0.340 OA
ATOM      6  C   LIG    1        3.893  -2.260  -0.786  0.00  0.00    +0.150 C 
ATOM      7  C   LIG    1        4.165  -1.904   0.673  0.00  0.00    +0.140 C 
ATOM      8  C   LIG    1        2.853  -1.736   1.458  0.00  0.00    +0.220 C 
ATOM      9  C   LIG    1        2.036  -0.693   0.700  0.00  0.00    +0.130 C 
ATOM     10  C   LIG    1       -1.431  -0.539  -0.000  0.00  0.00    +0.080 C 
ATOM     11  O   LIG    1        0.703  -0.489   1.175  0.00  0.00    -0.350 OA
ENDROOT
BRANCH   8  12
ATOM     12  O   LIG    1        3.131  -1.271   2.781  0.00  0.00    -0.540 OA
ATOM     13  H   LIG    1        3.693  -1.866   3.296  0.00  0.00    +0.380 HD
ENDBRANCH   8  12
BRANCH   7  14
ATOM     14  O   LIG    1        4.903  -0.682   0.728  0.00  0.00    -0.540 OA
ATOM     15  H   LIG    1        5.757  -0.717   0.275  0.00  0.00    +0.380 HD
ENDBRANCH   7  14
BRANCH   6  16
ATOM     16  C   LIG    1        5.212  -2.225  -1.562  0.00  0.00    +0.210 C 
BRANCH  16  17
ATOM     17  O   LIG    1        4.998  -2.715  -2.887  0.00  0.00    -0.560 OA
ATOM     18  H   LIG    1        5.794  -2.721  -3.437  0.00  0.00    +0.390 HD
ENDBRANCH  16  17
ENDBRANCH   6  16
TORSDOF 4
ENDMDL
MODEL      174
REMARK  Name = ZINC000004831482
REMARK                            x       y       z     vdW  Elec       q    Type
REMARK                         _______ _______ _______ _____ _____    ______ ____
ROOT
ATOM      1  C   LIG    1       -0.019   1.526   0.010  0.00  0.00    +0.060 C 
ATOM      2  C   LIG    1        0.002  -0.004   0.002  0.00  0.00    +0.250 C 
ATOM      3  O   LIG    1        0.691  -0.472  -1.172  0.00  0.00    -0.350 OA
ATOM      4  C   LIG    1        2.061  -0.688  -0.726  0.00  0.00    +0.360 C 
ATOM      5  O   LIG    1        2.673   0.602  -0.675  0.00  0.00    -0.370 OA
ATOM      6  C   LIG    1        3.883   0.684   0.072  0.00  0.00    +0.150 C 
ATOM      7  C   LIG    1        3.576   0.343   1.536  0.00  0.00    +0.130 C 
ATOM      8  C   LIG    1        3.032  -1.087   1.586  0.00  0.00    +0.210 C 
ATOM      9  C   LIG    1        1.814  -1.246   0.689  0.00  0.00    +0.140 C 
ATOM     10  C   LIG    1       -1.432  -0.538   0.002  0.00  0.00    +0.070 C 
ATOM     11  O   LIG    1        0.697  -0.484   1.165  0.00  0.00    -0.340 OA
ENDROOT
BRANCH   8  12
ATOM     12  O   LIG    1        4.045  -1.992   1.143  0.00  0.00    -0.550 OA
ATOM     13  H   LIG    1        4.851  -1.972   1.677  0.00  0.00    +0.390 HD
ENDBRANCH   8  12
BRANCH   7  14
ATOM     14  O   LIG    1        2.598   1.250   2.048  0.00  0.00    -0.530 OA
ATOM     15  H   LIG    1        2.872   2.177   2.025  0.00  0.00    +0.380 HD
ENDBRANCH   7  14
BRANCH   6  16
ATOM     16  C   LIG    1        4.450   2.102  -0.021  0.00  0.00    +0.200 C 
BRANCH  16  17
ATOM     17  O   LIG    1        4.823   2.378  -1.372  0.00  0.00    -0.560 OA
ATOM     18  H   LIG    1        5.192   3.262  -1.506  0.00  0.00    +0.380 HD
ENDBRANCH  16  17
ENDBRANCH   6  16
TORSDOF 4
ENDMDL
MODEL      175
REMARK  Name = ZINC000003872966
REMARK                            x       y       z     vdW  Elec       q    Type
REMARK                         _______ _______ _______ _____ _____    ______ ____
ROOT
ATOM      1  C   LIG    1       -2.395   1.050   0.019  0.00  0.00    +0.170 C 
ATOM      2  C   LIG    1       -2.808   0.698  -1.427  0.00  0.00    +0.250 C 
ATOM      3  O   LIG    1       -4.250   0.664  -1.400  0.00  0.00    -0.340 OA
ATOM      4  C   LIG    1       -4.649   1.776  -0.573  0.00  0.00    +0.190 C 
ATOM      5  C   LIG    1       -5.996   1.435   0.099  0.00  0.00    +0.170 C 
ATOM      6  C   LIG    1       -5.648   1.295   1.597  0.00  0.00    +0.250 C 
ATOM      7  O   LIG    1       -4.245   0.956   1.619  0.00  0.00    -0.340 OA
ATOM      8  C   LIG    1       -3.621   1.788   0.598  0.00  0.00    +0.190 C 
ENDROOT
BRANCH   1   9
ATOM      9  O   LIG    1       -1.250   1.905   0.018  0.00  0.00    -0.210 OA
BRANCH   9  11
ATOM     10  O   LIG    1        0.002  -0.004   0.002  0.00  0.00    -0.120 OA
ATOM     11  N   LIG    1       -0.014   1.214   0.009  0.00  0.00    +0.120 N 
ATOM     12  O   LIG    1        1.032   1.837   0.002  0.00  0.00    -0.060 OA
ENDBRANCH   9  11
ENDBRANCH   1   9
BRANCH   5  13
ATOM     13  O   LIG    1       -6.936   2.493  -0.101  0.00  0.00    -0.210 OA
BRANCH  13  14
ATOM     14  N   LIG    1       -8.289   2.080  -0.037  0.00  0.00    +0.120 N 
ATOM     15  O   LIG    1       -9.182   2.894  -0.193  0.00  0.00    -0.060 OA
ATOM     16  O   LIG    1       -8.560   0.911   0.173  0.00  0.00    -0.120 OA
ENDBRANCH  13  14
ENDBRANCH   5  13
TORSDOF 4
ENDMDL
MODEL      176
REMARK  Name = ZINC000001888741
REMARK                            x       y       z     vdW  Elec       q    Type
REMARK                         _______ _______ _______ _____ _____    ______ ____
ROOT
ATOM      1  CA  GLY A  2        0.738  -0.999  -3.621  0.00  0.00    +0.310 C 
ENDROOT
BRANCH   1   2
ATOM      2  C   GLY A  2       -0.207  -0.940  -4.792  0.00  0.00    +0.520 C 
ATOM      3  N   PRO A  3        0.208  -1.329  -6.014  0.00  0.00    -0.580 N 
ATOM      4  CD  PRO A  3        1.552  -1.836  -6.343  0.00  0.00    +0.230 C 
ATOM      5  CG  PRO A  3        1.352  -2.693  -7.618  0.00  0.00    +0.020 C 
ATOM      6  CB  PRO A  3        0.277  -1.872  -8.378  0.00  0.00    +0.050 C 
ATOM      7  CA  PRO A  3       -0.606  -1.323  -7.238  0.00  0.00    +0.130 C 
ATOM      8  O   GLY A  2       -1.343  -0.542  -4.636  0.00  0.00    -0.530 OA
BRANCH   7   9
ATOM      9  C   PRO A  3       -1.037   0.086  -7.556  0.00  0.00    +0.500 C 
ATOM     10  OXT PRO A  3       -0.566   1.022  -6.934  0.00  0.00    -0.680 OA
ATOM     11  O   PRO A  3       -1.857   0.288  -8.435  0.00  0.00    -0.690 OA
ENDBRANCH   7   9
ENDBRANCH   1   2
BRANCH   1  13
ATOM     12  C   ALA A  1        0.707  -0.490  -1.238  0.00  0.00    +0.500 C 
ATOM     13  N   GLY A  2        0.053  -0.526  -2.415  0.00  0.00    -0.680 N 
ATOM     14  H   GLY A  2       -0.873  -0.239  -2.465  0.00  0.00    +0.420 HD
ATOM     15  O   ALA A  1        1.864  -0.849  -1.176  0.00  0.00    -0.540 OA
BRANCH  12  17
ATOM     16  CB  ALA A  1       -0.019   1.526   0.010  0.00  0.00    +0.130 C 
ATOM     17  CA  ALA A  1        0.002  -0.004   0.002  0.00  0.00    +0.180 C 
BRANCH  17  18
ATOM     18  N   ALA A  1        0.713  -0.491   1.192  0.00  0.00    -0.620 N 
ATOM     19  H1  ALA A  1        1.659  -0.141   1.185  0.00  0.00    +0.440 HD
ATOM     20  H2  ALA A  1        0.726  -1.500   1.187  0.00  0.00    +0.440 HD
ATOM     21  H3  ALA A  1        0.240  -0.165   2.022  0.00  0.00    +0.440 HD
ENDBRANCH  17  18
ENDBRANCH  12  17
ENDBRANCH   1  13
TORSDOF 5
ENDMDL
MODEL      177
REMARK  Name = ZINC000001078622
REMARK                            x       y       z     vdW  Elec       q    Type
REMARK                         _______ _______ _______ _____ _____    ______ ____
ROOT
ATOM      1  C1* LIG    1        0.085  -4.133  -0.021  0.00  0.00    +0.450 C 
ATOM      2  O4* LIG    1        1.023  -4.621   0.963  0.00  0.00    -0.330 OA
ATOM      3  C4* LIG    1        2.325  -4.458   0.361  0.00  0.00    +0.110 C 
ATOM      4  C3* LIG    1        2.133  -4.870  -1.115  0.00  0.00    +0.130 C 
ATOM      5  C2* LIG    1        0.622  -4.651  -1.374  0.00  0.00    +0.180 C 
ENDROOT
BRANCH   1   9
ATOM      6  C   LIG    1        0.001  -0.004   0.005  0.00  0.00    +0.630 A 
ATOM      7  N   LIG    1       -0.825  -0.667  -0.792  0.00  0.00    -0.630 NA
ATOM      8  C   LIG    1       -0.807  -2.003  -0.810  0.00  0.00    +0.660 A 
ATOM      9  N   LIG    1        0.054  -2.668  -0.013  0.00  0.00    -0.570 N 
ATOM     10  C   LIG    1        0.888  -1.975   0.793  0.00  0.00    +0.660 A 
ATOM     11  O   LIG    1       -1.565  -2.616  -1.542  0.00  0.00    -0.520 OA
ATOM     12  N   LIG    1        0.861  -0.666   0.793  0.00  0.00    -0.590 NA
BRANCH   6  13
ATOM     13  N   LIG    1       -0.020   1.368   0.020  0.00  0.00    -0.790 N 
ATOM     14  H   LIG    1       -0.638   1.850  -0.551  0.00  0.00    +0.420 HD
ATOM     15  H   LIG    1        0.586   1.856   0.600  0.00  0.00    +0.420 HD
ENDBRANCH   6  13
ENDBRANCH   1   9
BRANCH   4  16
ATOM     16  O3* LIG    1        2.481  -6.244  -1.302  0.00  0.00    -0.540 OA
ATOM     17  H3* LIG    1        3.404  -6.447  -1.096  0.00  0.00    +0.380 HD
ENDBRANCH   4  16
BRANCH   5  18
ATOM     18  O2* LIG    1       -0.009  -5.883  -1.729  0.00  0.00    -0.530 OA
ATOM     19  H2* LIG    1        0.336  -6.282  -2.540  0.00  0.00    +0.390 HD
ENDBRANCH   5  18
BRANCH   3  20
ATOM     20  C5* LIG    1        3.345  -5.372   1.042  0.00  0.00    +0.220 C 
BRANCH  20  21
ATOM     21  O5* LIG    1        3.540  -4.946   2.392  0.00  0.00    -0.560 OA
ATOM     22  H5* LIG    1        4.176  -5.481   2.886  0.00  0.00    +0.390 HD
ENDBRANCH  20  21
ENDBRANCH   3  20
TORSDOF 6
ENDMDL
MODEL      178
REMARK  Name = ZINC000005605236
REMARK                            x       y       z     vdW  Elec       q    Type
REMARK                         _______ _______ _______ _____ _____    ______ ____
ROOT
ATOM      1  O   LIG    1        0.002  -0.004   0.002  0.00  0.00    -0.540 OA
ATOM      2  C   LIG    1       -0.014   1.212   0.009  0.00  0.00    +0.620 C 
ATOM      3  N   LIG    1        1.143   1.901   0.001  0.00  0.00    -0.670 N 
ATOM      4  H   LIG    1        1.130   2.871   0.007  0.00  0.00    +0.420 HD
ENDROOT
BRANCH   2   5
ATOM      5  C   LIG    1       -1.301   1.932   0.019  0.00  0.00    +0.130 A 
ATOM      6  N   LIG    1       -1.469   3.237   0.021  0.00  0.00    -0.240 NA
ATOM      7  N   LIG    1       -2.726   3.507   0.030  0.00  0.00    -0.290 NA
ATOM      8  C   LIG    1       -3.422   2.397   0.033  0.00  0.00    +0.410 A 
ATOM      9  N   LIG    1       -2.551   1.368   0.022  0.00  0.00    -0.550 N 
ATOM     10  H   LIG    1       -2.765   0.422   0.021  0.00  0.00    +0.440 HD
ENDBRANCH   2   5
BRANCH   3  11
ATOM     11  C   LIG    1        2.422   1.186  -0.015  0.00  0.00    +0.190 C 
BRANCH  11  12
ATOM     12  C   LIG    1        2.527   0.301   1.229  0.00  0.00    +0.210 C 
BRANCH  12  13
ATOM     13  O   LIG    1        2.335   1.099   2.399  0.00  0.00    -0.570 OA
ATOM     14  H   LIG    1        2.388   0.602   3.227  0.00  0.00    +0.380 HD
ENDBRANCH  12  13
ENDBRANCH  11  12
BRANCH  11  15
ATOM     15  C   LIG    1        3.571   2.196  -0.020  0.00  0.00    +0.200 C 
BRANCH  15  16
ATOM     16  O   LIG    1        4.818   1.499  -0.036  0.00  0.00    -0.570 OA
ATOM     17  H   LIG    1        5.593   2.078  -0.040  0.00  0.00    +0.390 HD
ENDBRANCH  15  16
ENDBRANCH  11  15
BRANCH  11  18
ATOM     18  C   LIG    1        2.503   0.315  -1.270  0.00  0.00    +0.210 C 
BRANCH  18  19
ATOM     19  O   LIG    1        2.405   1.141  -2.431  0.00  0.00    -0.570 OA
ATOM     20  H   LIG    1        2.449   0.654  -3.265  0.00  0.00    +0.380 HD
ENDBRANCH  18  19
ENDBRANCH  11  18
ENDBRANCH   3  11
TORSDOF 8
ENDMDL
MODEL      179
REMARK  Name = ZINC000004915570
REMARK                            x       y       z     vdW  Elec       q    Type
REMARK                         _______ _______ _______ _____ _____    ______ ____
ROOT
ATOM      1  C   LIG    1       -0.019   1.526   0.010  0.00  0.00    +0.090 C 
ATOM      2  C   LIG    1        0.002  -0.004   0.002  0.00  0.00    +0.300 C 
ATOM      3  O   LIG    1       -1.339  -0.496   0.006  0.00  0.00    -0.380 OA
ATOM      4  C   LIG    1       -1.445  -1.924   0.056  0.00  0.00    +0.250 C 
ATOM      5  C   LIG    1       -0.709  -2.418   1.302  0.00  0.00    +0.120 C 
ATOM      6  O   LIG    1       -0.684  -3.843   1.357  0.00  0.00    -0.390 OA
ATOM      7  C   LIG    1       -0.045  -4.354   2.531  0.00  0.00    +0.310 C 
ATOM      8  C   LIG    1        1.410  -3.885   2.581  0.00  0.00    +0.140 C 
ATOM      9  C   LIG    1        1.461  -2.353   2.517  0.00  0.00    +0.210 C 
ATOM     10  C   LIG    1        0.734  -1.900   1.251  0.00  0.00    +0.160 C 
ATOM     11  O   LIG    1        0.700  -0.476   1.160  0.00  0.00    -0.370 OA
ENDROOT
BRANCH   9  12
ATOM     12  O   LIG    1        2.822  -1.919   2.475  0.00  0.00    -0.540 OA
ATOM     13  H   LIG    1        3.344  -2.189   3.243  0.00  0.00    +0.380 HD
ENDBRANCH   9  12
BRANCH   8  14
ATOM     14  O   LIG    1        2.125  -4.431   1.470  0.00  0.00    -0.540 OA
ATOM     15  H   LIG    1        2.137  -5.397   1.447  0.00  0.00    +0.390 HD
ENDBRANCH   8  14
BRANCH   7  16
ATOM     16  O   LIG    1       -0.079  -5.783   2.505  0.00  0.00    -0.540 OA
ATOM     17  H   LIG    1       -0.972  -6.154   2.481  0.00  0.00    +0.400 HD
ENDBRANCH   7  16
TORSDOF 3
ENDMDL
MODEL      180
REMARK  Name = ZINC000004915577
REMARK                            x       y       z     vdW  Elec       q    Type
REMARK                         _______ _______ _______ _____ _____    ______ ____
ROOT
ATOM      1  C   LIG    1       -0.019   1.526   0.010  0.00  0.00    +0.010 C 
ATOM      2  C   LIG    1        0.002  -0.004   0.002  0.00  0.00    +0.390 C 
ATOM      3  O   LIG    1        0.666  -0.462  -1.177  0.00  0.00    -0.380 OA
ATOM      4  C   LIG    1        2.043  -0.078  -1.267  0.00  0.00    +0.250 C 
ATOM      5  C   LIG    1        2.771  -0.601  -0.028  0.00  0.00    +0.120 C 
ATOM      6  O   LIG    1        4.127  -0.161  -0.002  0.00  0.00    -0.390 OA
ATOM      7  C   LIG    1        4.864  -0.662   1.118  0.00  0.00    +0.310 C 
ATOM      8  C   LIG    1        4.221  -0.189   2.423  0.00  0.00    +0.140 C 
ATOM      9  C   LIG    1        2.750  -0.621   2.460  0.00  0.00    +0.200 C 
ATOM     10  C   LIG    1        2.053  -0.065   1.218  0.00  0.00    +0.150 C 
ATOM     11  O   LIG    1        0.690  -0.476   1.166  0.00  0.00    -0.370 OA
ENDROOT
BRANCH   9  12
ATOM     12  O   LIG    1        2.127  -0.104   3.637  0.00  0.00    -0.540 OA
ATOM     13  H   LIG    1        2.532  -0.406   4.462  0.00  0.00    +0.380 HD
ENDBRANCH   9  12
BRANCH   8  14
ATOM     14  O   LIG    1        4.300   1.236   2.502  0.00  0.00    -0.540 OA
ATOM     15  H   LIG    1        5.203   1.581   2.487  0.00  0.00    +0.390 HD
ENDBRANCH   8  14
BRANCH   7  16
ATOM     16  O   LIG    1        6.209  -0.183   1.054  0.00  0.00    -0.540 OA
ATOM     17  H   LIG    1        6.684  -0.451   0.255  0.00  0.00    +0.400 HD
ENDBRANCH   7  16
TORSDOF 3
ENDMDL
MODEL      181
REMARK  Name = ZINC000004899707
REMARK                            x       y       z     vdW  Elec       q    Type
REMARK                         _______ _______ _______ _____ _____    ______ ____
ROOT
ATOM      1  CB  ALA A  1       -0.019   1.526   0.010  0.00  0.00    +0.060 C 
ATOM      2  CA  ALA A  1        0.002  -0.004   0.002  0.00  0.00    +0.240 C 
ATOM      3  N   ALA A  1       -1.368  -0.500  -0.009  0.00  0.00    -0.710 N 
ATOM      4  H   ALA A  1       -1.855  -0.500  -0.847  0.00  0.00    +0.410 HD
ATOM      5  C   HIS A  2       -1.983  -0.954   1.088  0.00  0.00    +0.520 C 
ATOM      6  CA  HIS A  2       -1.318  -0.996   2.431  0.00  0.00    +0.270 C 
ATOM      7  N   HIS A  2        0.132  -0.941   2.305  0.00  0.00    -0.710 N 
ATOM      8  H   HIS A  2        0.674  -1.243   3.051  0.00  0.00    +0.410 HD
ATOM      9  O   HIS A  2       -3.126  -1.347   0.992  0.00  0.00    -0.520 OA
ATOM     10  C   ALA A  1        0.747  -0.491   1.208  0.00  0.00    +0.520 C 
ATOM     11  O   ALA A  1        1.960  -0.477   1.186  0.00  0.00    -0.530 OA
ENDROOT
BRANCH   6  12
ATOM     12  CB  HIS A  2       -1.793   0.197   3.263  0.00  0.00    +0.140 C 
BRANCH  12  13
ATOM     13  CG  HIS A  2       -1.226   0.095   4.656  0.00  0.00    +0.000 A 
ATOM     14  CD2 HIS A  2       -0.506   1.042   5.287  0.00  0.00    +0.140 A 
ATOM     15  NE2 HIS A  2       -0.194   0.543   6.524  0.00  0.00    -0.570 N 
ATOM     16  HE2 HIS A  2        0.319   0.992   7.213  0.00  0.00    +0.420 HD
ATOM     17  CE1 HIS A  2       -0.736  -0.692   6.604  0.00  0.00    +0.400 A 
ATOM     18  ND1 HIS A  2       -1.356  -0.951   5.485  0.00  0.00    -0.490 NA
ENDBRANCH  12  13
ENDBRANCH   6  12
TORSDOF 2
ENDMDL
MODEL      182
REMARK  Name = ZINC000001666238
REMARK                            x       y       z     vdW  Elec       q    Type
REMARK                         _______ _______ _______ _____ _____    ______ ____
ROOT
ATOM      1  O   LIG    1        0.002  -0.004   0.002  0.00  0.00    -0.540 OA
ATOM      2  C   LIG    1       -0.014   1.211   0.009  0.00  0.00    +0.580 C 
ATOM      3  N   LIG    1        1.143   1.901   0.001  0.00  0.00    -0.700 N 
ATOM      4  H   LIG    1        1.130   2.871   0.007  0.00  0.00    +0.400 HD
ENDROOT
BRANCH   2   5
ATOM      5  C   LIG    1       -1.305   1.933   0.019  0.00  0.00    -0.190 A 
ATOM      6  C   LIG    1       -2.514   1.228   0.026  0.00  0.00    +0.130 A 
ATOM      7  C   LIG    1       -3.694   1.952   0.036  0.00  0.00    -0.030 A 
ATOM      8  C   LIG    1       -3.642   3.333   0.037  0.00  0.00    +0.280 A 
ATOM      9  N   LIG    1       -2.486   3.971   0.029  0.00  0.00    -0.490 NA
ATOM     10  C   LIG    1       -1.337   3.328   0.026  0.00  0.00    +0.300 A 
ENDBRANCH   2   5
BRANCH   3  11
ATOM     11  C   LIG    1        2.422   1.186  -0.015  0.00  0.00    +0.190 C 
BRANCH  11  12
ATOM     12  C   LIG    1        2.503   0.314  -1.270  0.00  0.00    +0.200 C 
BRANCH  12  13
ATOM     13  O   LIG    1        2.405   1.141  -2.431  0.00  0.00    -0.570 OA
ATOM     14  H   LIG    1        2.449   0.654  -3.265  0.00  0.00    +0.380 HD
ENDBRANCH  12  13
ENDBRANCH  11  12
BRANCH  11  15
ATOM     15  C   LIG    1        2.527   0.301   1.229  0.00  0.00    +0.210 C 
BRANCH  15  16
ATOM     16  O   LIG    1        2.335   1.098   2.399  0.00  0.00    -0.570 OA
ATOM     17  H   LIG    1        2.388   0.602   3.227  0.00  0.00    +0.380 HD
ENDBRANCH  15  16
ENDBRANCH  11  15
BRANCH  11  18
ATOM     18  C   LIG    1        3.571   2.196  -0.020  0.00  0.00    +0.200 C 
BRANCH  18  19
ATOM     19  O   LIG    1        4.818   1.498  -0.036  0.00  0.00    -0.570 OA
ATOM     20  H   LIG    1        5.593   2.077  -0.040  0.00  0.00    +0.390 HD
ENDBRANCH  18  19
ENDBRANCH  11  18
ENDBRANCH   3  11
TORSDOF 8
ENDMDL
MODEL      183
REMARK  Name = ZINC000004915581
REMARK                            x       y       z     vdW  Elec       q    Type
REMARK                         _______ _______ _______ _____ _____    ______ ____
ROOT
ATOM      1  C   LIG    1       -0.019   1.526   0.010  0.00  0.00    +0.090 C 
ATOM      2  C   LIG    1        0.002  -0.004   0.002  0.00  0.00    +0.310 C 
ATOM      3  O   LIG    1       -1.339  -0.498   0.011  0.00  0.00    -0.380 OA
ATOM      4  C   LIG    1       -1.430  -1.926   0.037  0.00  0.00    +0.240 C 
ATOM      5  C   LIG    1       -0.695  -2.446   1.279  0.00  0.00    +0.140 C 
ATOM      6  O   LIG    1       -1.381  -1.993   2.448  0.00  0.00    -0.370 OA
ATOM      7  C   LIG    1       -0.778  -2.397   3.678  0.00  0.00    +0.330 C 
ATOM      8  C   LIG    1        0.634  -1.812   3.765  0.00  0.00    +0.150 C 
ATOM      9  C   LIG    1        1.449  -2.292   2.560  0.00  0.00    +0.200 C 
ATOM     10  C   LIG    1        0.738  -1.903   1.261  0.00  0.00    +0.160 C 
ATOM     11  O   LIG    1        0.694  -0.477   1.160  0.00  0.00    -0.380 OA
ENDROOT
BRANCH   9  12
ATOM     12  O   LIG    1        1.577  -3.714   2.608  0.00  0.00    -0.540 OA
ATOM     13  H   LIG    1        2.022  -4.043   3.401  0.00  0.00    +0.390 HD
ENDBRANCH   9  12
BRANCH   8  14
ATOM     14  O   LIG    1        1.260  -2.251   4.973  0.00  0.00    -0.550 OA
ATOM     15  H   LIG    1        0.792  -1.986   5.777  0.00  0.00    +0.390 HD
ENDBRANCH   8  14
BRANCH   7  16
ATOM     16  O   LIG    1       -0.708  -3.823   3.730  0.00  0.00    -0.550 OA
ATOM     17  H   LIG    1       -1.569  -4.261   3.676  0.00  0.00    +0.380 HD
ENDBRANCH   7  16
TORSDOF 3
ENDMDL
MODEL      184
REMARK  Name = ZINC000004915586
REMARK                            x       y       z     vdW  Elec       q    Type
REMARK                         _______ _______ _______ _____ _____    ______ ____
ROOT
ATOM      1  C   LIG    1       -0.019   1.526   0.010  0.00  0.00    -0.000 C 
ATOM      2  C   LIG    1        0.002  -0.004   0.002  0.00  0.00    +0.400 C 
ATOM      3  O   LIG    1        0.670  -0.465  -1.175  0.00  0.00    -0.380 OA
ATOM      4  C   LIG    1        2.037  -0.049  -1.265  0.00  0.00    +0.250 C 
ATOM      5  C   LIG    1        2.790  -0.556  -0.028  0.00  0.00    +0.140 C 
ATOM      6  O   LIG    1        2.816  -1.985  -0.055  0.00  0.00    -0.370 OA
ATOM      7  C   LIG    1        3.477  -2.583   1.062  0.00  0.00    +0.330 C 
ATOM      8  C   LIG    1        2.741  -2.199   2.349  0.00  0.00    +0.150 C 
ATOM      9  C   LIG    1        2.711  -0.672   2.470  0.00  0.00    +0.200 C 
ATOM     10  C   LIG    1        2.060  -0.064   1.225  0.00  0.00    +0.160 C 
ATOM     11  O   LIG    1        0.693  -0.477   1.161  0.00  0.00    -0.380 OA
ENDROOT
BRANCH   9  12
ATOM     12  O   LIG    1        4.046  -0.176   2.582  0.00  0.00    -0.540 OA
ATOM     13  H   LIG    1        4.527  -0.512   3.350  0.00  0.00    +0.390 HD
ENDBRANCH   9  12
BRANCH   8  14
ATOM     14  O   LIG    1        3.425  -2.756   3.474  0.00  0.00    -0.550 OA
ATOM     15  H   LIG    1        3.487  -3.720   3.459  0.00  0.00    +0.390 HD
ENDBRANCH   8  14
BRANCH   7  16
ATOM     16  O   LIG    1        4.826  -2.115   1.125  0.00  0.00    -0.550 OA
ATOM     17  H   LIG    1        5.351  -2.321   0.339  0.00  0.00    +0.380 HD
ENDBRANCH   7  16
TORSDOF 3
ENDMDL
MODEL      185
REMARK  Name = ZINC000031623972
REMARK                            x       y       z     vdW  Elec       q    Type
REMARK                         _______ _______ _______ _____ _____    ______ ____
ROOT
ATOM      1  C   LIG    1        2.966   1.255   1.417  0.00  0.00    +0.190 C 
ENDROOT
BRANCH   1   2
ATOM      2  N   LIG    1        4.339   0.734   1.396  0.00  0.00    -0.560 NA
ATOM      3  C   LIG    1        5.272   1.729   0.844  0.00  0.00    +0.420 C 
ATOM      4  N   LIG    1        6.625   1.168   0.833  0.00  0.00    -0.740 N 
ATOM      5  H   LIG    1        7.262   1.464   0.164  0.00  0.00    +0.420 HD
ATOM      6  C   LIG    1        6.992   0.245   1.739  0.00  0.00    +0.720 C 
ATOM      7  N   LIG    1        6.135  -0.198   2.675  0.00  0.00    -0.740 N 
ATOM      8  H   LIG    1        6.424  -0.869   3.312  0.00  0.00    +0.420 HD
ATOM      9  O   LIG    1        8.125  -0.197   1.712  0.00  0.00    -0.590 OA
ATOM     10  C   LIG    1        4.767   0.323   2.741  0.00  0.00    +0.420 C 
ENDBRANCH   1   2
BRANCH   1  11
ATOM     11  C   LIG    1        2.468   1.438  -0.019  0.00  0.00    +0.330 C 
BRANCH  11  18
ATOM     12  O   LIG    1        0.002  -0.004   0.002  0.00  0.00    -0.580 OA
ATOM     13  C   LIG    1       -0.014   1.212   0.009  0.00  0.00    +0.700 C 
ATOM     14  N   LIG    1       -1.147   1.927   0.029  0.00  0.00    -0.740 N 
ATOM     15  H   LIG    1       -2.044   1.558   0.040  0.00  0.00    +0.430 HD
ATOM     16  C   LIG    1       -0.814   3.359   0.032  0.00  0.00    +0.250 C 
ATOM     17  C   LIG    1        0.727   3.380   0.009  0.00  0.00    +0.250 C 
ATOM     18  N   LIG    1        1.098   1.957   0.002  0.00  0.00    -0.630 N 
ENDBRANCH  11  18
ENDBRANCH   1  11
TORSDOF 3
ENDMDL
MODEL      186
REMARK  Name = ZINC000584577834
REMARK                            x       y       z     vdW  Elec       q    Type
REMARK                         _______ _______ _______ _____ _____    ______ ____
ROOT
ATOM      1  C   LIG    1        3.059  -0.968   1.571  0.00  0.00    +0.210 C 
ENDROOT
BRANCH   1   6
ATOM      2  C   LIG    1       -0.019   1.526   0.010  0.00  0.00    +0.050 C 
ATOM      3  C   LIG    1        0.002  -0.004   0.002  0.00  0.00    +0.250 C 
ATOM      4  O   LIG    1        0.687  -0.471  -1.172  0.00  0.00    -0.370 OA
ATOM      5  C   LIG    1        2.048  -0.708  -0.737  0.00  0.00    +0.220 C 
ATOM      6  C   LIG    1        1.831  -1.242   0.701  0.00  0.00    +0.110 C 
ATOM      7  C   LIG    1       -1.432  -0.537   0.003  0.00  0.00    +0.070 C 
ATOM      8  O   LIG    1        0.695  -0.483   1.162  0.00  0.00    -0.360 OA
ENDBRANCH   1   6
BRANCH   1   9
ATOM      9  O   LIG    1        3.364   0.428   1.538  0.00  0.00    -0.530 OA
ATOM     10  H   LIG    1        2.651   0.994   1.864  0.00  0.00    +0.370 HD
ENDBRANCH   1   9
BRANCH   1  11
ATOM     11  C   LIG    1        2.768  -1.392   3.012  0.00  0.00    +0.170 C 
BRANCH  11  12
ATOM     12  O   LIG    1        1.585  -0.736   3.472  0.00  0.00    -0.530 OA
ATOM     13  H   LIG    1        1.643   0.229   3.466  0.00  0.00    +0.370 HD
ENDBRANCH  11  12
BRANCH  11  14
ATOM     14  C   LIG    1        3.948  -1.004   3.905  0.00  0.00    +0.190 C 
BRANCH  14  15
ATOM     15  O   LIG    1        4.212   0.393   3.766  0.00  0.00    -0.530 OA
ATOM     16  H   LIG    1        3.469   0.961   4.012  0.00  0.00    +0.360 HD
ENDBRANCH  14  15
BRANCH  14  17
ATOM     17  C   LIG    1        3.606  -1.315   5.364  0.00  0.00    +0.150 C 
BRANCH  17  18
ATOM     18  O   LIG    1        4.748  -1.062   6.185  0.00  0.00    -0.570 OA
ATOM     19  H   LIG    1        4.604  -1.239   7.125  0.00  0.00    +0.380 HD
ENDBRANCH  17  18
ENDBRANCH  14  17
ENDBRANCH  11  14
ENDBRANCH   1  11
TORSDOF 8
ENDMDL
MODEL      187
REMARK  Name = ZINC000004995005
REMARK                            x       y       z     vdW  Elec       q    Type
REMARK                         _______ _______ _______ _____ _____    ______ ____
ROOT
ATOM      1  C1*   U A  1        2.406   1.113  -0.006  0.00  0.00    +0.430 C 
ATOM      2  O4*   U A  1        3.537   2.010   0.046  0.00  0.00    -0.350 OA
ATOM      3  C4*   U A  1        4.638   1.207   0.526  0.00  0.00    +0.140 C 
ATOM      4  C3*   U A  1        4.025   0.318   1.631  0.00  0.00    +0.120 C 
ATOM      5  C2*   U A  1        2.522   0.253   1.271  0.00  0.00    +0.170 C 
ENDROOT
BRANCH   1  13
ATOM      6  O2    U A  1        0.002  -0.004   0.002  0.00  0.00    -0.590 OA
ATOM      7  C2    U A  1       -0.014   1.212   0.009  0.00  0.00    +0.730 C 
ATOM      8  N3    U A  1       -1.200   1.840   0.029  0.00  0.00    -0.750 N 
ATOM      9  H3    U A  1       -2.015   1.315   0.045  0.00  0.00    +0.410 HD
ATOM     10  C4    U A  1       -1.287   3.301   0.026  0.00  0.00    +0.390 C 
ATOM     11  C5    U A  1       -0.041   3.881   0.704  0.00  0.00    +0.050 C 
ATOM     12  C6    U A  1        1.201   3.335  -0.009  0.00  0.00    +0.290 C 
ATOM     13  N1    U A  1        1.153   1.872   0.001  0.00  0.00    -0.600 N 
BRANCH  10  14
ATOM     14  O4    U A  1       -2.455   3.711   0.740  0.00  0.00    -0.560 OA
ATOM     15  H4    U A  1       -3.282   3.375   0.367  0.00  0.00    +0.390 HD
ENDBRANCH  10  14
ENDBRANCH   1  13
BRANCH   4  16
ATOM     16  O3*   U A  1        4.211   0.916   2.916  0.00  0.00    -0.540 OA
ATOM     17  H3*   U A  1        5.138   1.033   3.164  0.00  0.00    +0.380 HD
ENDBRANCH   4  16
BRANCH   5  18
ATOM     18  O2*   U A  1        1.730   0.808   2.324  0.00  0.00    -0.530 OA
ATOM     19  H2*   U A  1        1.814   0.342   3.167  0.00  0.00    +0.380 HD
ENDBRANCH   5  18
BRANCH   3  20
ATOM     20  C5*   U A  1        5.736   2.100   1.106  0.00  0.00    +0.210 C 
BRANCH  20  21
ATOM     21  O5*   U A  1        6.317   2.880   0.060  0.00  0.00    -0.560 OA
ATOM     22  H5*   U A  1        7.023   3.472   0.355  0.00  0.00    +0.380 HD
ENDBRANCH  20  21
ENDBRANCH   3  20
TORSDOF 6
ENDMDL
MODEL      188
REMARK  Name = ZINC000005030579
REMARK                            x       y       z     vdW  Elec       q    Type
REMARK                         _______ _______ _______ _____ _____    ______ ____
ROOT
ATOM      1  C   LIG    1        2.061  -1.903   1.945  0.00  0.00    +0.160 C 
ATOM      2  C   LIG    1        0.994  -1.619   0.919  0.00  0.00    +0.220 A 
ATOM      3  C   LIG    1        1.044  -2.205  -0.301  0.00  0.00    -0.150 A 
ATOM      4  C   LIG    1        0.030  -1.918  -1.238  0.00  0.00    +0.510 A 
ATOM      5  N   LIG    1       -0.949  -1.085  -0.910  0.00  0.00    -0.620 NA
ATOM      6  C   LIG    1       -0.985  -0.517   0.294  0.00  0.00    +0.660 A 
ATOM      7  O   LIG    1       -1.896   0.245   0.571  0.00  0.00    -0.510 OA
ATOM      8  N   LIG    1       -0.035  -0.775   1.212  0.00  0.00    -0.530 N 
ENDROOT
BRANCH   8   9
ATOM      9  C1* LIG    1       -0.101  -0.135   2.528  0.00  0.00    +0.390 C 
ATOM     10  C2* LIG    1       -1.299  -0.686   3.343  0.00  0.00    -0.010 C 
ATOM     11  C3* LIG    1       -1.583   0.475   4.327  0.00  0.00    +0.170 C 
ATOM     12  C4* LIG    1       -0.942   1.705   3.655  0.00  0.00    +0.180 C 
ATOM     13  O4* LIG    1       -0.398   1.271   2.396  0.00  0.00    -0.340 OA
BRANCH  11  14
ATOM     14  O3* LIG    1       -2.991   0.665   4.483  0.00  0.00    -0.550 OA
ATOM     15  H3* LIG    1       -3.453  -0.102   4.849  0.00  0.00    +0.380 HD
ENDBRANCH  11  14
BRANCH  12  16
ATOM     16  C5* LIG    1       -2.001   2.784   3.426  0.00  0.00    +0.220 C 
BRANCH  16  17
ATOM     17  O5* LIG    1       -1.377   3.962   2.911  0.00  0.00    -0.570 OA
ATOM     18  H5* LIG    1       -1.990   4.690   2.741  0.00  0.00    +0.380 HD
ENDBRANCH  16  17
ENDBRANCH  12  16
ENDBRANCH   8   9
BRANCH   4  19
ATOM     19  N   LIG    1        0.056  -2.499  -2.485  0.00  0.00    -0.820 N 
ATOM     20  H   LIG    1       -0.643  -2.300  -3.127  0.00  0.00    +0.410 HD
ATOM     21  H   LIG    1        0.773  -3.108  -2.721  0.00  0.00    +0.410 HD
ENDBRANCH   4  19
TORSDOF 5
ENDMDL
MODEL      189
REMARK  Name = ZINC000005045595
REMARK                            x       y       z     vdW  Elec       q    Type
REMARK                         _______ _______ _______ _____ _____    ______ ____
ROOT
ATOM      1  O   LIG    1        0.002  -0.004   0.002  0.00  0.00    -0.420 OA
ATOM      2  C   LIG    1       -0.014   1.204   0.009  0.00  0.00    +0.450 C 
ATOM      3  O   LIG    1       -1.162   1.857   0.029  0.00  0.00    -0.350 OA
ATOM      4  C   LIG    1       -1.233   3.012  -0.865  0.00  0.00    +0.240 C 
ATOM      5  C   LIG    1       -1.427   2.515  -2.301  0.00  0.00    +0.130 C 
ATOM      6  C   LIG    1       -0.133   1.824  -2.783  0.00  0.00    +0.190 C 
ATOM      7  C   LIG    1        1.100   2.628  -2.404  0.00  0.00    +0.200 C 
ATOM      8  C   LIG    1        1.930   1.838  -1.373  0.00  0.00    +0.170 C 
ATOM      9  C   LIG    1        1.280   1.988   0.001  0.00  0.00    +0.110 C 
ENDROOT
BRANCH   8  10
ATOM     10  O   LIG    1        1.963   0.458  -1.742  0.00  0.00    -0.540 OA
ATOM     11  H   LIG    1        2.470  -0.100  -1.135  0.00  0.00    +0.390 HD
ENDBRANCH   8  10
BRANCH   7  12
ATOM     12  O   LIG    1        1.891   2.866  -3.571  0.00  0.00    -0.520 OA
ATOM     13  H   LIG    1        2.696   3.375  -3.403  0.00  0.00    +0.380 HD
ENDBRANCH   7  12
BRANCH   6  14
ATOM     14  O   LIG    1       -0.180   1.683  -4.204  0.00  0.00    -0.530 OA
ATOM     15  H   LIG    1       -0.925   1.156  -4.523  0.00  0.00    +0.380 HD
ENDBRANCH   6  14
BRANCH   5  16
ATOM     16  O   LIG    1       -2.509   1.583  -2.342  0.00  0.00    -0.550 OA
ATOM     17  H   LIG    1       -3.355   1.950  -2.050  0.00  0.00    +0.390 HD
ENDBRANCH   5  16
BRANCH   9  18
ATOM     18  O   LIG    1        2.162   1.482   1.005  0.00  0.00    -0.530 OA
ATOM     19  H   LIG    1        1.812   1.546   1.904  0.00  0.00    +0.390 HD
ENDBRANCH   9  18
TORSDOF 5
ENDMDL
MODEL      190
REMARK  Name = ZINC000005063410
REMARK                            x       y       z     vdW  Elec       q    Type
REMARK                         _______ _______ _______ _____ _____    ______ ____
ROOT
ATOM      1  C   LIG    1        0.746  -1.888  -1.280  0.00  0.00    +0.300 C 
ATOM      2  O   LIG    1        1.586  -2.409  -0.243  0.00  0.00    -0.380 OA
ATOM      3  C   LIG    1        2.725  -3.068  -0.820  0.00  0.00    +0.160 C 
ATOM      4  C   LIG    1        2.273  -3.486  -2.242  0.00  0.00    +0.180 C 
ATOM      5  C   LIG    1        1.375  -2.280  -2.634  0.00  0.00    +0.140 C 
ENDROOT
BRANCH   4   6
ATOM      6  O   LIG    1        1.519  -4.699  -2.207  0.00  0.00    -0.510 OA
ATOM      7  H   LIG    1        1.216  -4.999  -3.075  0.00  0.00    +0.380 HD
ENDBRANCH   4   6
BRANCH   5   8
ATOM      8  O   LIG    1        0.372  -2.676  -3.572  0.00  0.00    -0.540 OA
ATOM      9  H   LIG    1       -0.214  -1.958  -3.848  0.00  0.00    +0.390 HD
ENDBRANCH   5   8
BRANCH   1  10
ATOM     10  O   LIG    1        0.671  -0.465  -1.174  0.00  0.00    -0.390 OA
BRANCH  10  12
ATOM     11  C   LIG    1       -0.019   1.526   0.010  0.00  0.00    +0.040 C 
ATOM     12  C   LIG    1        0.002  -0.004   0.002  0.00  0.00    +0.170 C 
ENDBRANCH  10  12
ENDBRANCH   1  10
BRANCH   3  13
ATOM     13  C   LIG    1        3.098  -4.301   0.005  0.00  0.00    +0.230 C 
BRANCH  13  14
ATOM     14  O   LIG    1        2.027  -5.247  -0.039  0.00  0.00    -0.520 OA
ATOM     15  H   LIG    1        1.192  -4.910   0.312  0.00  0.00    +0.370 HD
ENDBRANCH  13  14
BRANCH  13  16
ATOM     16  C   LIG    1        3.353  -3.887   1.456  0.00  0.00    +0.160 C 
BRANCH  16  17
ATOM     17  O   LIG    1        3.814  -5.016   2.200  0.00  0.00    -0.560 OA
ATOM     18  H   LIG    1        3.996  -4.826   3.131  0.00  0.00    +0.380 HD
ENDBRANCH  16  17
ENDBRANCH  13  16
ENDBRANCH   3  13
TORSDOF 8
ENDMDL
MODEL      191
REMARK  Name = ZINC000005063413
REMARK                            x       y       z     vdW  Elec       q    Type
REMARK                         _______ _______ _______ _____ _____    ______ ____
ROOT
ATOM      1  C   LIG    1       -1.095  -4.206   1.433  0.00  0.00    +0.150 C 
ENDROOT
BRANCH   1   2
ATOM      2  O   LIG    1       -2.261  -4.695   0.767  0.00  0.00    -0.530 OA
ATOM      3  H   LIG    1       -3.092  -4.423   1.180  0.00  0.00    +0.370 HD
ENDBRANCH   1   2
BRANCH   1   4
ATOM      4  C   LIG    1       -1.115  -2.676   1.441  0.00  0.00    +0.170 C 
BRANCH   4   5
ATOM      5  O   LIG    1        0.051  -2.188   2.106  0.00  0.00    -0.530 OA
ATOM      6  H   LIG    1        0.882  -2.460   1.693  0.00  0.00    +0.380 HD
ENDBRANCH   4   5
BRANCH   4   7
ATOM      7  C   LIG    1       -1.136  -2.159   0.001  0.00  0.00    +0.260 C 
BRANCH   7  10
ATOM      8  C   LIG    1       -0.018   1.503   0.010  0.00  0.00    +0.100 C 
ATOM      9  C   LIG    1        0.002  -0.004   0.002  0.00  0.00    +0.520 C 
ATOM     10  N   LIG    1       -1.156  -0.694   0.009  0.00  0.00    -0.620 N 
ATOM     11  C   LIG    1       -2.434   0.021   0.025  0.00  0.00    +0.290 C 
ATOM     12  O   LIG    1        1.060  -0.596  -0.011  0.00  0.00    -0.540 OA
ENDBRANCH   7  10
ENDBRANCH   4   7
ENDBRANCH   1   4
BRANCH   1  13
ATOM     13  C   LIG    1       -1.074  -4.724   2.872  0.00  0.00    +0.160 C 
BRANCH  13  14
ATOM     14  O   LIG    1        0.093  -4.235   3.537  0.00  0.00    -0.530 OA
ATOM     15  H   LIG    1        0.924  -4.507   3.124  0.00  0.00    +0.380 HD
ENDBRANCH  13  14
BRANCH  13  16
ATOM     16  C   LIG    1       -1.053  -6.254   2.864  0.00  0.00    +0.180 C 
BRANCH  16  17
ATOM     17  O   LIG    1       -2.220  -6.742   2.199  0.00  0.00    -0.530 OA
ATOM     18  H   LIG    1       -3.051  -6.470   2.611  0.00  0.00    +0.370 HD
ENDBRANCH  16  17
BRANCH  16  19
ATOM     19  C   LIG    1       -1.032  -6.771   4.303  0.00  0.00    +0.150 C 
BRANCH  19  20
ATOM     20  O   LIG    1       -0.896  -8.194   4.296  0.00  0.00    -0.570 OA
ATOM     21  H   LIG    1       -0.875  -8.591   5.177  0.00  0.00    +0.380 HD
ENDBRANCH  19  20
ENDBRANCH  16  19
ENDBRANCH  13  16
ENDBRANCH   1  13
TORSDOF 11
ENDMDL
MODEL      192
REMARK  Name = ZINC000005045594
REMARK                            x       y       z     vdW  Elec       q    Type
REMARK                         _______ _______ _______ _____ _____    ______ ____
ROOT
ATOM      1  O   LIG    1        0.002  -0.004   0.002  0.00  0.00    -0.440 OA
ATOM      2  C   LIG    1       -0.014   1.206   0.009  0.00  0.00    +0.460 C 
ATOM      3  O   LIG    1       -1.189   1.872   0.029  0.00  0.00    -0.390 OA
ATOM      4  C   LIG    1       -1.767   2.169  -1.272  0.00  0.00    +0.240 C 
ATOM      5  C   LIG    1       -0.982   3.315  -1.930  0.00  0.00    +0.140 C 
ATOM      6  C   LIG    1       -0.697   4.416  -0.921  0.00  0.00    +0.210 C 
ATOM      7  C   LIG    1        0.784   4.434  -0.520  0.00  0.00    +0.210 C 
ATOM      8  C   LIG    1        1.068   3.382   0.522  0.00  0.00    +0.170 C 
ATOM      9  C   LIG    1        1.264   1.976   0.001  0.00  0.00    +0.150 C 
ENDROOT
BRANCH   8  10
ATOM     10  O   LIG    1        2.240   3.766   1.259  0.00  0.00    -0.560 OA
ATOM     11  H   LIG    1        2.491   3.140   1.952  0.00  0.00    +0.390 HD
ENDBRANCH   8  10
BRANCH   7  12
ATOM     12  O   LIG    1        1.627   4.327  -1.659  0.00  0.00    -0.530 OA
ATOM     13  H   LIG    1        2.571   4.334  -1.452  0.00  0.00    +0.390 HD
ENDBRANCH   7  12
BRANCH   6  14
ATOM     14  O   LIG    1       -1.047   5.681  -1.495  0.00  0.00    -0.540 OA
ATOM     15  H   LIG    1       -1.977   5.754  -1.747  0.00  0.00    +0.390 HD
ENDBRANCH   6  14
BRANCH   5  16
ATOM     16  O   LIG    1       -1.765   3.855  -2.999  0.00  0.00    -0.550 OA
ATOM     17  H   LIG    1       -1.982   3.214  -3.690  0.00  0.00    +0.380 HD
ENDBRANCH   5  16
BRANCH   9  18
ATOM     18  O   LIG    1        1.831   1.948  -1.304  0.00  0.00    -0.510 OA
ATOM     19  H   LIG    1        1.965   1.058  -1.655  0.00  0.00    +0.390 HD
ENDBRANCH   9  18
TORSDOF 5
ENDMDL
MODEL      193
REMARK  Name = ZINC000005063412
REMARK                            x       y       z     vdW  Elec       q    Type
REMARK                         _______ _______ _______ _____ _____    ______ ____
ROOT
ATOM      1  C   LIG    1        0.746  -1.888  -1.280  0.00  0.00    +0.300 C 
ATOM      2  O   LIG    1        1.591  -2.412  -0.242  0.00  0.00    -0.370 OA
ATOM      3  C   LIG    1        2.922  -2.511  -0.792  0.00  0.00    +0.160 C 
ATOM      4  C   LIG    1        2.680  -3.023  -2.235  0.00  0.00    +0.180 C 
ATOM      5  C   LIG    1        1.376  -2.280  -2.630  0.00  0.00    +0.150 C 
ENDROOT
BRANCH   4   6
ATOM      6  O   LIG    1        2.483  -4.438  -2.247  0.00  0.00    -0.520 OA
ATOM      7  H   LIG    1        2.328  -4.806  -3.128  0.00  0.00    +0.380 HD
ENDBRANCH   4   6
BRANCH   5   8
ATOM      8  O   LIG    1        1.678  -1.116  -3.401  0.00  0.00    -0.540 OA
ATOM      9  H   LIG    1        0.899  -0.613  -3.675  0.00  0.00    +0.390 HD
ENDBRANCH   5   8
BRANCH   1  10
ATOM     10  O   LIG    1        0.671  -0.465  -1.174  0.00  0.00    -0.380 OA
BRANCH  10  12
ATOM     11  C   LIG    1       -0.019   1.526   0.010  0.00  0.00    +0.040 C 
ATOM     12  C   LIG    1        0.002  -0.004   0.002  0.00  0.00    +0.170 C 
ENDBRANCH  10  12
ENDBRANCH   1  10
BRANCH   3  13
ATOM     13  C   LIG    1        3.761  -3.512   0.005  0.00  0.00    +0.240 C 
BRANCH  13  14
ATOM     14  O   LIG    1        3.188  -4.815  -0.114  0.00  0.00    -0.520 OA
ATOM     15  H   LIG    1        2.281  -4.877   0.215  0.00  0.00    +0.370 HD
ENDBRANCH  13  14
BRANCH  13  16
ATOM     16  C   LIG    1        3.786  -3.098   1.478  0.00  0.00    +0.160 C 
BRANCH  16  17
ATOM     17  O   LIG    1        4.663  -3.964   2.201  0.00  0.00    -0.560 OA
ATOM     18  H   LIG    1        4.728  -3.760   3.144  0.00  0.00    +0.380 HD
ENDBRANCH  16  17
ENDBRANCH  13  16
ENDBRANCH   3  13
TORSDOF 8
ENDMDL
MODEL      194
REMARK  Name = ZINC000005063375
REMARK                            x       y       z     vdW  Elec       q    Type
REMARK                         _______ _______ _______ _____ _____    ______ ____
ROOT
ATOM      1  C   LIG    1       -1.244  -2.135   0.003  0.00  0.00    +0.270 C 
ATOM      2  O   LIG    1       -2.607  -2.568   0.115  0.00  0.00    -0.350 OA
ATOM      3  C   LIG    1       -3.448  -2.170  -0.967  0.00  0.00    +0.440 C 
ATOM      4  O   LIG    1       -2.914  -2.637  -2.212  0.00  0.00    -0.370 OA
ATOM      5  C   LIG    1       -1.589  -2.170  -2.455  0.00  0.00    +0.110 C 
ATOM      6  C   LIG    1       -1.031  -2.701  -3.775  0.00  0.00    +0.230 C 
ATOM      7  O   LIG    1        0.333  -2.271  -3.887  0.00  0.00    -0.370 OA
ATOM      8  C   LIG    1        1.175  -2.668  -2.804  0.00  0.00    +0.410 C 
ATOM      9  O   LIG    1        0.641  -2.200  -1.560  0.00  0.00    -0.360 OA
ATOM     10  C   LIG    1       -0.684  -2.667  -1.316  0.00  0.00    +0.130 C 
ENDROOT
BRANCH   1  11
ATOM     11  C   LIG    1       -1.185  -0.630   0.010  0.00  0.00    +0.440 C 
ATOM     12  O   LIG    1       -2.208   0.015   0.023  0.00  0.00    -0.500 OA
BRANCH  11  14
ATOM     13  C   LIG    1       -0.018   1.448   0.010  0.00  0.00    +0.270 C 
ATOM     14  O   LIG    1        0.002  -0.004   0.002  0.00  0.00    -0.330 OA
ENDBRANCH  11  14
ENDBRANCH   1  11
BRANCH   6  15
ATOM     15  C   LIG    1       -1.092  -4.230  -3.783  0.00  0.00    +0.170 C 
BRANCH  15  16
ATOM     16  O   LIG    1       -0.647  -4.718  -5.050  0.00  0.00    -0.560 OA
ATOM     17  H   LIG    1       -0.660  -5.682  -5.127  0.00  0.00    +0.380 HD
ENDBRANCH  15  16
ENDBRANCH   6  15
TORSDOF 4
ENDMDL
MODEL      195
REMARK  Name = ZINC000005045593
REMARK                            x       y       z     vdW  Elec       q    Type
REMARK                         _______ _______ _______ _____ _____    ______ ____
ROOT
ATOM      1  O   LIG    1        0.002  -0.004   0.002  0.00  0.00    -0.410 OA
ATOM      2  C   LIG    1       -0.014   1.204   0.009  0.00  0.00    +0.470 C 
ATOM      3  O   LIG    1       -1.162   1.857   0.029  0.00  0.00    -0.350 OA
ATOM      4  C   LIG    1       -1.233   3.012  -0.865  0.00  0.00    +0.220 C 
ATOM      5  C   LIG    1       -1.427   2.515  -2.301  0.00  0.00    +0.130 C 
ATOM      6  C   LIG    1       -0.133   1.824  -2.783  0.00  0.00    +0.180 C 
ATOM      7  C   LIG    1        1.100   2.628  -2.404  0.00  0.00    +0.190 C 
ATOM      8  C   LIG    1        1.930   1.838  -1.373  0.00  0.00    +0.170 C 
ATOM      9  C   LIG    1        1.280   1.988   0.001  0.00  0.00    +0.110 C 
ENDROOT
BRANCH   8  10
ATOM     10  O   LIG    1        1.963   0.458  -1.742  0.00  0.00    -0.500 OA
ATOM     11  H   LIG    1        2.470  -0.100  -1.135  0.00  0.00    +0.370 HD
ENDBRANCH   8  10
BRANCH   7  12
ATOM     12  O   LIG    1        1.891   2.866  -3.571  0.00  0.00    -0.550 OA
ATOM     13  H   LIG    1        2.696   3.375  -3.403  0.00  0.00    +0.390 HD
ENDBRANCH   7  12
BRANCH   6  14
ATOM     14  O   LIG    1       -0.046   0.528  -2.187  0.00  0.00    -0.500 OA
ATOM     15  H   LIG    1       -0.785  -0.056  -2.406  0.00  0.00    +0.380 HD
ENDBRANCH   6  14
BRANCH   5  16
ATOM     16  O   LIG    1       -2.509   1.583  -2.342  0.00  0.00    -0.550 OA
ATOM     17  H   LIG    1       -3.355   1.950  -2.050  0.00  0.00    +0.390 HD
ENDBRANCH   5  16
BRANCH   9  18
ATOM     18  O   LIG    1        2.162   1.482   1.005  0.00  0.00    -0.540 OA
ATOM     19  H   LIG    1        1.812   1.546   1.904  0.00  0.00    +0.390 HD
ENDBRANCH   9  18
TORSDOF 5
ENDMDL
MODEL      196
REMARK  Name = ZINC000002568071
REMARK                            x       y       z     vdW  Elec       q    Type
REMARK                         _______ _______ _______ _____ _____    ______ ____
ROOT
ATOM      1  N   VAL A  2       -1.413  -1.998   0.005  0.00  0.00    -0.660 N 
ATOM      2  H   VAL A  2       -0.649  -2.471  -0.360  0.00  0.00    +0.400 HD
ATOM      3  C   THR A  1       -2.457  -2.689   0.504  0.00  0.00    +0.500 C 
ATOM      4  O   THR A  1       -3.413  -2.098   0.961  0.00  0.00    -0.530 OA
ENDROOT
BRANCH   1   5
ATOM      5  CA  VAL A  2       -1.433  -0.534   0.013  0.00  0.00    +0.160 C 
BRANCH   5   7
ATOM      6  CG1 VAL A  2       -0.019   1.526   0.010  0.00  0.00    +0.030 C 
ATOM      7  CB  VAL A  2        0.002  -0.004   0.002  0.00  0.00    -0.020 C 
ATOM      8  CG2 VAL A  2        0.742  -0.511   1.242  0.00  0.00    +0.010 C 
ENDBRANCH   5   7
BRANCH   5   9
ATOM      9  C   VAL A  2       -2.162  -0.034  -1.208  0.00  0.00    +0.490 C 
ATOM     10  OXT VAL A  2       -2.768   1.023  -1.166  0.00  0.00    -0.680 OA
ATOM     11  O   VAL A  2       -2.146  -0.688  -2.237  0.00  0.00    -0.690 OA
ENDBRANCH   5   9
ENDBRANCH   1   5
BRANCH   3  12
ATOM     12  CA  THR A  1       -2.437  -4.196   0.496  0.00  0.00    +0.140 C 
BRANCH  12  13
ATOM     13  N   THR A  1       -3.400  -4.704   1.482  0.00  0.00    -0.620 N 
ATOM     14  H1  THR A  1       -4.326  -4.379   1.246  0.00  0.00    +0.440 HD
ATOM     15  H2  THR A  1       -3.150  -4.370   2.400  0.00  0.00    +0.440 HD
ATOM     16  H3  THR A  1       -3.386  -5.713   1.476  0.00  0.00    +0.440 HD
ENDBRANCH  12  13
BRANCH  12  17
ATOM     17  CB  THR A  1       -2.817  -4.704  -0.896  0.00  0.00    +0.240 C 
ATOM     18  CG2 THR A  1       -2.917  -6.230  -0.873  0.00  0.00    +0.050 C 
BRANCH  17  19
ATOM     19  OG1 THR A  1       -4.077  -4.149  -1.278  0.00  0.00    -0.520 OA
ATOM     20  HG1 THR A  1       -4.804  -4.378  -0.683  0.00  0.00    +0.370 HD
ENDBRANCH  17  19
ENDBRANCH  12  17
ENDBRANCH   3  12
TORSDOF 7
ENDMDL
MODEL      197
REMARK  Name = ZINC000004543565
REMARK                            x       y       z     vdW  Elec       q    Type
REMARK                         _______ _______ _______ _____ _____    ______ ____
ROOT
ATOM      1  C5M   T A  1       -0.019   1.526   0.010  0.00  0.00    +0.070 C 
ATOM      2  C5    T A  1        0.002  -0.004   0.002  0.00  0.00    +0.000 C 
ATOM      3  C6    T A  1       -1.433  -0.535   0.016  0.00  0.00    +0.310 C 
ATOM      4  N1    T A  1       -2.015  -0.338   1.345  0.00  0.00    -0.610 N 
ATOM      5  C2    T A  1       -1.265  -0.464   2.452  0.00  0.00    +0.720 C 
ATOM      6  N3    T A  1        0.062  -0.662   2.384  0.00  0.00    -0.670 N 
ATOM      7  H3    T A  1        0.547  -0.922   3.183  0.00  0.00    +0.430 HD
ATOM      8  O2    T A  1       -1.800  -0.397   3.541  0.00  0.00    -0.550 OA
ATOM      9  C4    T A  1        0.729  -0.505   1.225  0.00  0.00    +0.530 C 
ATOM     10  O4    T A  1        1.911  -0.766   1.165  0.00  0.00    -0.490 OA
ENDROOT
BRANCH   4  11
ATOM     11  C1*   T A  1       -3.435   0.001   1.469  0.00  0.00    +0.430 C 
ATOM     12  C2*   T A  1       -4.194  -1.105   2.246  0.00  0.00    +0.000 C 
ATOM     13  C3*   T A  1       -5.644  -0.924   1.734  0.00  0.00    +0.160 C 
ATOM     14  C4*   T A  1       -5.482  -0.171   0.400  0.00  0.00    +0.180 C 
ATOM     15  O4*   T A  1       -4.072   0.004   0.173  0.00  0.00    -0.360 OA
BRANCH  13  16
ATOM     16  O3*   T A  1       -6.261  -2.195   1.522  0.00  0.00    -0.560 OA
ATOM     17  H3*   T A  1       -6.336  -2.735   2.321  0.00  0.00    +0.390 HD
ENDBRANCH  13  16
BRANCH  14  18
ATOM     18  C5*   T A  1       -6.099  -0.987  -0.738  0.00  0.00    +0.220 C 
BRANCH  18  19
ATOM     19  O5*   T A  1       -6.048  -0.231  -1.949  0.00  0.00    -0.570 OA
ATOM     20  H5*   T A  1       -6.424  -0.689  -2.714  0.00  0.00    +0.380 HD
ENDBRANCH  18  19
ENDBRANCH  14  18
ENDBRANCH   4  11
TORSDOF 4
ENDMDL
MODEL      198
REMARK  Name = ZINC000004533876
REMARK                            x       y       z     vdW  Elec       q    Type
REMARK                         _______ _______ _______ _____ _____    ______ ____
ROOT
ATOM      1  C   LIG    1       -2.389  -2.687  -0.700  0.00  0.00    +0.200 C 
ENDROOT
BRANCH   1   2
ATOM      2  O   LIG    1       -3.551  -2.235  -0.002  0.00  0.00    -0.520 OA
ATOM      3  H   LIG    1       -3.559  -2.462   0.938  0.00  0.00    +0.370 HD
ENDBRANCH   1   2
BRANCH   1   4
ATOM      4  CA  LIG    1       -1.136  -2.159   0.001  0.00  0.00    +0.220 C 
BRANCH   4   7
ATOM      5  C   LIG    1        2.468  -2.981  -0.993  0.00  0.00    +0.100 C 
ATOM      6  C   LIG    1        1.250  -2.619  -0.183  0.00  0.00    +0.520 C 
ATOM      7  N   LIG    1        0.049  -2.510  -0.785  0.00  0.00    -0.700 N 
ATOM      8  H   LIG    1       -0.031  -2.665  -1.740  0.00  0.00    +0.400 HD
ATOM      9  O   LIG    1        1.349  -2.426   1.010  0.00  0.00    -0.550 OA
ENDBRANCH   4   7
BRANCH   4  10
ATOM     10  C   LIG    1       -1.228  -0.637   0.133  0.00  0.00    +0.180 C 
BRANCH  10  11
ATOM     11  O   LIG    1       -1.433  -0.059  -1.158  0.00  0.00    -0.570 OA
ATOM     12  H   LIG    1       -1.501   0.905  -1.151  0.00  0.00    +0.380 HD
ENDBRANCH  10  11
ENDBRANCH   4  10
ENDBRANCH   1   4
BRANCH   1  13
ATOM     13  C   LIG    1       -2.362  -4.217  -0.709  0.00  0.00    +0.150 C 
BRANCH  13  14
ATOM     14  O   LIG    1       -1.199  -4.668  -1.407  0.00  0.00    -0.540 OA
ATOM     15  H   LIG    1       -1.155  -4.377  -2.328  0.00  0.00    +0.380 HD
ENDBRANCH  13  14
BRANCH  13  16
ATOM     16  C   LIG    1       -3.615  -4.745  -1.410  0.00  0.00    +0.190 C 
BRANCH  16  17
ATOM     17  O   LIG    1       -4.777  -4.293  -0.712  0.00  0.00    -0.530 OA
ATOM     18  H   LIG    1       -4.821  -4.585   0.209  0.00  0.00    +0.370 HD
ENDBRANCH  16  17
BRANCH  16  19
ATOM     19  C   LIG    1       -3.588  -6.274  -1.419  0.00  0.00    +0.150 C 
BRANCH  19  20
ATOM     20  O   LIG    1       -4.697  -6.766  -2.175  0.00  0.00    -0.570 OA
ATOM     21  H   LIG    1       -4.743  -7.731  -2.223  0.00  0.00    +0.380 HD
ENDBRANCH  19  20
ENDBRANCH  16  19
ENDBRANCH  13  16
ENDBRANCH   1  13
TORSDOF 11
ENDMDL
MODEL      199
REMARK  Name = ZINC000002022332
REMARK                            x       y       z     vdW  Elec       q    Type
REMARK                         _______ _______ _______ _____ _____    ______ ____
ROOT
ATOM      1  C   LIG    1        0.999  -1.873  -1.729  0.00  0.00    +0.260 C 
ENDROOT
BRANCH   1   2
ATOM      2  O   LIG    1       -0.303  -2.437  -1.895  0.00  0.00    -0.540 OA
ATOM      3  H   LIG    1       -0.785  -2.094  -2.660  0.00  0.00    +0.390 HD
ENDBRANCH   1   2
BRANCH   1   4
ATOM      4  C   LIG    1        0.880  -0.358  -1.545  0.00  0.00    -0.360 C 
BRANCH   4   6
ATOM      5  C   LIG    1       -0.022   1.810   0.012  0.00  0.00    -0.270 C 
ATOM      6  S   LIG    1        0.002  -0.004   0.002  0.00  0.00    +2.430 S 
ATOM      7  O   LIG    1       -1.334  -0.474  -0.117  0.00  0.00    -0.920 OA
ATOM      8  O   LIG    1        0.801  -0.452   1.088  0.00  0.00    -0.930 OA
ENDBRANCH   4   6
ENDBRANCH   1   4
BRANCH   1   9
ATOM      9  C   LIG    1        1.846  -2.171  -2.967  0.00  0.00    -0.360 C 
BRANCH   9  10
ATOM     10  S   LIG    1        1.988  -3.966  -3.185  0.00  0.00    +2.430 S 
ATOM     11  O   LIG    1        0.699  -4.490  -3.476  0.00  0.00    -0.920 OA
ATOM     12  O   LIG    1        2.722  -4.499  -2.091  0.00  0.00    -0.930 OA
ATOM     13  C   LIG    1        3.010  -4.084  -4.679  0.00  0.00    -0.270 C 
ENDBRANCH   9  10
ENDBRANCH   1   9
TORSDOF 5
ENDMDL
MODEL      200
REMARK  Name = ZINC000005201818
REMARK                            x       y       z     vdW  Elec       q    Type
REMARK                         _______ _______ _______ _____ _____    ______ ____
ROOT
ATOM      1  C   LIG    1       -0.720   3.008   1.225  0.00  0.00    +0.220 C 
ATOM      2  O   LIG    1        0.623   3.511   1.230  0.00  0.00    -0.390 OA
ATOM      3  C   LIG    1        1.386   3.155   2.383  0.00  0.00    +0.400 C 
ATOM      4  O   LIG    1        0.722   3.592   3.575  0.00  0.00    -0.330 OA
ATOM      5  C   LIG    1       -0.593   3.056   3.703  0.00  0.00    +0.120 C 
ATOM      6  C   LIG    1       -1.292   3.556   4.967  0.00  0.00    +0.090 C 
ATOM      7  O   LIG    1       -2.635   3.054   4.961  0.00  0.00    -0.350 OA
ATOM      8  C   LIG    1       -3.398   3.410   3.808  0.00  0.00    +0.400 C 
ATOM      9  O   LIG    1       -2.734   2.973   2.616  0.00  0.00    -0.390 OA
ATOM     10  C   LIG    1       -1.419   3.508   2.488  0.00  0.00    +0.130 C 
ENDROOT
BRANCH   6  11
ATOM     11  C   LIG    1       -0.563   3.050   6.185  0.00  0.00    +0.510 C 
ATOM     12  O   LIG    1       -1.114   2.272   6.945  0.00  0.00    -0.660 OA
ATOM     13  O   LIG    1        0.577   3.418   6.410  0.00  0.00    -0.660 OA
ENDBRANCH   6  11
BRANCH   1  14
ATOM     14  C   LIG    1       -0.699   1.479   1.216  0.00  0.00    +0.250 C 
BRANCH  14  15
ATOM     15  N   LIG    1       -0.012   1.005   0.008  0.00  0.00    -0.630 N 
ATOM     16  H   LIG    1       -0.500   1.339  -0.810  0.00  0.00    +0.440 HD
ATOM     17  H   LIG    1        0.935   1.354   0.000  0.00  0.00    +0.440 HD
ATOM     18  H   LIG    1        0.002  -0.004   0.002  0.00  0.00    +0.440 HD
ENDBRANCH  14  15
ENDBRANCH   1  14
TORSDOF 3
ENDMDL
MODEL      201
REMARK  Name = ZINC000005181594
REMARK                            x       y       z     vdW  Elec       q    Type
REMARK                         _______ _______ _______ _____ _____    ______ ____
ROOT
ATOM      1  C   LIG    1       -1.295  -0.603   0.011  0.00  0.00    +0.290 C 
ATOM      2  O   LIG    1       -1.949  -0.327   1.256  0.00  0.00    -0.370 OA
ATOM      3  C   LIG    1       -2.213  -1.555   1.954  0.00  0.00    +0.180 C 
ATOM      4  C   LIG    1       -2.268  -2.643   0.852  0.00  0.00    +0.280 C 
ATOM      5  C   LIG    1       -1.165  -2.136  -0.120  0.00  0.00    +0.170 C 
ENDROOT
BRANCH   4   6
ATOM      6  N   LIG    1       -3.578  -2.667   0.197  0.00  0.00    -0.730 N 
ATOM      7  H   LIG    1       -4.131  -1.870   0.190  0.00  0.00    +0.400 HD
ATOM      8  C   LIG    1       -4.015  -3.796  -0.396  0.00  0.00    +0.720 C 
ATOM      9  O   LIG    1       -3.321  -4.794  -0.387  0.00  0.00    -0.580 OA
ATOM     10  N   LIG    1       -5.220  -3.817  -0.998  0.00  0.00    -0.870 N 
ATOM     11  H   LIG    1       -5.534  -4.630  -1.425  0.00  0.00    +0.420 HD
ATOM     12  H   LIG    1       -5.773  -3.021  -1.005  0.00  0.00    +0.400 HD
ENDBRANCH   4   6
BRANCH   1  14
ATOM     13  C   LIG    1       -0.017   1.425   0.010  0.00  0.00    +0.210 C 
ATOM     14  O   LIG    1        0.002  -0.004   0.002  0.00  0.00    -0.390 OA
ENDBRANCH   1  14
BRANCH   5  15
ATOM     15  O   LIG    1       -1.432  -2.563  -1.458  0.00  0.00    -0.530 OA
ATOM     16  H   LIG    1       -0.772  -2.271  -2.102  0.00  0.00    +0.390 HD
ENDBRANCH   5  15
BRANCH   3  17
ATOM     17  C   LIG    1       -3.554  -1.471   2.687  0.00  0.00    +0.200 C 
BRANCH  17  18
ATOM     18  O   LIG    1       -3.466  -0.499   3.730  0.00  0.00    -0.560 OA
ATOM     19  H   LIG    1       -4.282  -0.392   4.238  0.00  0.00    +0.380 HD
ENDBRANCH  17  18
ENDBRANCH   3  17
TORSDOF 5
ENDMDL
MODEL      202
REMARK  Name = ZINC000005181592
REMARK                            x       y       z     vdW  Elec       q    Type
REMARK                         _______ _______ _______ _____ _____    ______ ____
ROOT
ATOM      1  C   LIG    1       -1.295  -0.603   0.011  0.00  0.00    +0.280 C 
ATOM      2  O   LIG    1       -1.931  -0.446  -1.276  0.00  0.00    -0.370 OA
ATOM      3  C   LIG    1       -2.952  -1.466  -1.323  0.00  0.00    +0.170 C 
ATOM      4  C   LIG    1       -2.296  -2.712  -0.686  0.00  0.00    +0.270 C 
ATOM      5  C   LIG    1       -1.181  -2.130   0.215  0.00  0.00    +0.170 C 
ENDROOT
BRANCH   4   6
ATOM      6  N   LIG    1       -1.726  -3.578  -1.721  0.00  0.00    -0.720 N 
ATOM      7  H   LIG    1       -1.464  -3.203  -2.577  0.00  0.00    +0.400 HD
ATOM      8  C   LIG    1       -1.567  -4.895  -1.485  0.00  0.00    +0.710 C 
ATOM      9  O   LIG    1       -1.896  -5.364  -0.413  0.00  0.00    -0.590 OA
ATOM     10  N   LIG    1       -1.042  -5.692  -2.437  0.00  0.00    -0.870 N 
ATOM     11  H   LIG    1       -0.928  -6.640  -2.267  0.00  0.00    +0.420 HD
ATOM     12  H   LIG    1       -0.780  -5.317  -3.293  0.00  0.00    +0.400 HD
ENDBRANCH   4   6
BRANCH   1  14
ATOM     13  C   LIG    1       -0.017   1.425   0.010  0.00  0.00    +0.210 C 
ATOM     14  O   LIG    1        0.002  -0.004   0.002  0.00  0.00    -0.360 OA
ENDBRANCH   1  14
BRANCH   5  15
ATOM     15  O   LIG    1        0.101  -2.598  -0.209  0.00  0.00    -0.530 OA
ATOM     16  H   LIG    1        0.837  -2.264   0.322  0.00  0.00    +0.390 HD
ENDBRANCH   5  15
BRANCH   3  17
ATOM     17  C   LIG    1       -3.351  -1.754  -2.772  0.00  0.00    +0.210 C 
BRANCH  17  18
ATOM     18  O   LIG    1       -3.994  -0.605  -3.326  0.00  0.00    -0.560 OA
ATOM     19  H   LIG    1       -4.275  -0.716  -4.245  0.00  0.00    +0.380 HD
ENDBRANCH  17  18
ENDBRANCH   3  17
TORSDOF 5
ENDMDL
MODEL      203
REMARK  Name = ZINC000005201817
REMARK                            x       y       z     vdW  Elec       q    Type
REMARK                         _______ _______ _______ _____ _____    ______ ____
ROOT
ATOM      1  C   LIG    1       -0.720   3.008   1.225  0.00  0.00    +0.170 C 
ATOM      2  O   LIG    1       -1.524   3.488   0.138  0.00  0.00    -0.410 OA
ATOM      3  C   LIG    1       -1.677   4.907   0.093  0.00  0.00    +0.430 C 
ATOM      4  O   LIG    1       -2.227   5.388   1.326  0.00  0.00    -0.340 OA
ATOM      5  C   LIG    1       -1.433   5.041   2.458  0.00  0.00    +0.130 C 
ATOM      6  C   LIG    1       -2.052   5.542   3.762  0.00  0.00    +0.100 C 
ATOM      7  O   LIG    1       -1.249   5.062   4.849  0.00  0.00    -0.350 OA
ATOM      8  C   LIG    1       -1.095   3.643   4.894  0.00  0.00    +0.400 C 
ATOM      9  O   LIG    1       -0.545   3.161   3.662  0.00  0.00    -0.390 OA
ATOM     10  C   LIG    1       -1.337   3.509   2.530  0.00  0.00    +0.120 C 
ENDROOT
BRANCH   6  11
ATOM     11  C   LIG    1       -2.073   7.048   3.770  0.00  0.00    +0.510 C 
ATOM     12  O   LIG    1       -1.405   7.663   4.584  0.00  0.00    -0.660 OA
ATOM     13  O   LIG    1       -2.758   7.653   2.962  0.00  0.00    -0.660 OA
ENDBRANCH   6  11
BRANCH   1  14
ATOM     14  C   LIG    1       -0.699   1.479   1.216  0.00  0.00    +0.300 C 
BRANCH  14  15
ATOM     15  N   LIG    1       -0.012   1.005   0.008  0.00  0.00    -0.630 N 
ATOM     16  H   LIG    1       -0.500   1.339  -0.810  0.00  0.00    +0.440 HD
ATOM     17  H   LIG    1        0.935   1.354   0.000  0.00  0.00    +0.430 HD
ATOM     18  H   LIG    1        0.002  -0.004   0.002  0.00  0.00    +0.440 HD
ENDBRANCH  14  15
ENDBRANCH   1  14
TORSDOF 3
ENDMDL
MODEL      204
REMARK  Name = ZINC000004533050
REMARK                            x       y       z     vdW  Elec       q    Type
REMARK                         _______ _______ _______ _____ _____    ______ ____
ROOT
ATOM      1  C   LIG    1        2.187  -4.635  -1.122  0.00  0.00    +0.170 C 
ENDROOT
BRANCH   1   2
ATOM      2  O   LIG    1        3.488  -4.047  -1.186  0.00  0.00    -0.530 OA
ATOM      3  H   LIG    1        3.973  -4.251  -1.997  0.00  0.00    +0.370 HD
ENDBRANCH   1   2
BRANCH   1   4
ATOM      4  C   LIG    1        1.341  -4.130  -2.293  0.00  0.00    +0.200 C 
BRANCH   4   7
ATOM      5  N   LIG    1        0.738  -1.962  -1.265  0.00  0.00    -0.730 N 
ATOM      6  H   LIG    1        0.332  -2.457  -0.536  0.00  0.00    +0.400 HD
ATOM      7  C   LIG    1        1.321  -2.623  -2.285  0.00  0.00    +0.490 C 
ATOM      8  O   LIG    1        1.829  -2.004  -3.196  0.00  0.00    -0.530 OA
BRANCH   5   9
ATOM      9  C   LIG    1        0.718  -0.497  -1.257  0.00  0.00    +0.260 C 
BRANCH   9  11
ATOM     10  C   LIG    1       -0.019   1.526   0.010  0.00  0.00    +0.030 C 
ATOM     11  C   LIG    1        0.002  -0.004   0.002  0.00  0.00    +0.000 C 
ENDBRANCH   9  11
ENDBRANCH   5   9
ENDBRANCH   4   7
BRANCH   4  12
ATOM     12  O   LIG    1        1.906  -4.592  -3.522  0.00  0.00    -0.530 OA
ATOM     13  H   LIG    1        2.812  -4.293  -3.675  0.00  0.00    +0.380 HD
ENDBRANCH   4  12
ENDBRANCH   1   4
BRANCH   1  14
ATOM     14  C   LIG    1        2.311  -6.157  -1.202  0.00  0.00    +0.160 C 
BRANCH  14  15
ATOM     15  O   LIG    1        1.010  -6.745  -1.139  0.00  0.00    -0.540 OA
ATOM     16  H   LIG    1        0.525  -6.541  -0.328  0.00  0.00    +0.380 HD
ENDBRANCH  14  15
BRANCH  14  17
ATOM     17  C   LIG    1        3.156  -6.662  -0.031  0.00  0.00    +0.190 C 
BRANCH  17  18
ATOM     18  O   LIG    1        4.457  -6.075  -0.095  0.00  0.00    -0.530 OA
ATOM     19  H   LIG    1        4.942  -6.279  -0.906  0.00  0.00    +0.370 HD
ENDBRANCH  17  18
BRANCH  17  20
ATOM     20  C   LIG    1        3.280  -8.185  -0.111  0.00  0.00    +0.150 C 
BRANCH  20  21
ATOM     21  O   LIG    1        3.970  -8.668   1.043  0.00  0.00    -0.570 OA
ATOM     22  H   LIG    1        4.085  -9.628   1.060  0.00  0.00    +0.380 HD
ENDBRANCH  20  21
ENDBRANCH  17  20
ENDBRANCH  14  17
ENDBRANCH   1  14
TORSDOF 12
ENDMDL
MODEL      205
REMARK  Name = ZINC000005181598
REMARK                            x       y       z     vdW  Elec       q    Type
REMARK                         _______ _______ _______ _____ _____    ______ ____
ROOT
ATOM      1  C   LIG    1       -1.295  -0.603   0.011  0.00  0.00    +0.290 C 
ATOM      2  O   LIG    1       -1.951  -0.329   1.261  0.00  0.00    -0.370 OA
ATOM      3  C   LIG    1       -1.664  -1.438   2.139  0.00  0.00    +0.180 C 
ATOM      4  C   LIG    1       -1.766  -2.673   1.209  0.00  0.00    +0.270 C 
ATOM      5  C   LIG    1       -1.167  -2.133  -0.117  0.00  0.00    +0.170 C 
ENDROOT
BRANCH   4   6
ATOM      6  N   LIG    1       -3.162  -3.075   1.025  0.00  0.00    -0.740 N 
ATOM      7  H   LIG    1       -3.873  -2.424   1.135  0.00  0.00    +0.400 HD
ATOM      8  C   LIG    1       -3.460  -4.349   0.703  0.00  0.00    +0.710 C 
ATOM      9  O   LIG    1       -2.569  -5.165   0.564  0.00  0.00    -0.580 OA
ATOM     10  N   LIG    1       -4.745  -4.719   0.533  0.00  0.00    -0.860 N 
ATOM     11  H   LIG    1       -4.959  -5.637   0.301  0.00  0.00    +0.420 HD
ATOM     12  H   LIG    1       -5.456  -4.068   0.643  0.00  0.00    +0.400 HD
ENDBRANCH   4   6
BRANCH   1  14
ATOM     13  C   LIG    1       -0.017   1.425   0.010  0.00  0.00    +0.210 C 
ATOM     14  O   LIG    1        0.002  -0.004   0.002  0.00  0.00    -0.380 OA
ENDBRANCH   1  14
BRANCH   5  15
ATOM     15  O   LIG    1        0.205  -2.514  -0.238  0.00  0.00    -0.540 OA
ATOM     16  H   LIG    1        0.630  -2.203  -1.049  0.00  0.00    +0.390 HD
ENDBRANCH   5  15
BRANCH   3  17
ATOM     17  C   LIG    1       -2.700  -1.518   3.262  0.00  0.00    +0.210 C 
BRANCH  17  18
ATOM     18  O   LIG    1       -2.572  -0.375   4.111  0.00  0.00    -0.560 OA
ATOM     19  H   LIG    1       -3.200  -0.360   4.846  0.00  0.00    +0.380 HD
ENDBRANCH  17  18
ENDBRANCH   3  17
TORSDOF 5
ENDMDL
MODEL      206
REMARK  Name = ZINC000037750325
REMARK                            x       y       z     vdW  Elec       q    Type
REMARK                         _______ _______ _______ _____ _____    ______ ____
ROOT
ATOM      1  N   LIG    1        1.710  -2.160  -2.982  0.00  0.00    -0.670 NA
ATOM      2  H   LIG    1        1.251  -1.721  -3.767  0.00  0.00    +0.350 HD
ENDROOT
BRANCH   1   3
ATOM      3  C   LIG    1        0.999  -1.873  -1.729  0.00  0.00    +0.200 C 
BRANCH   3   4
ATOM      4  C   LIG    1        0.880  -0.358  -1.545  0.00  0.00    -0.350 C 
BRANCH   4   6
ATOM      5  C   LIG    1       -0.022   1.810   0.012  0.00  0.00    -0.260 C 
ATOM      6  S   LIG    1        0.002  -0.004   0.002  0.00  0.00    +2.430 S 
ATOM      7  O   LIG    1       -1.334  -0.474  -0.117  0.00  0.00    -0.940 OA
ATOM      8  O   LIG    1        0.801  -0.452   1.088  0.00  0.00    -0.930 OA
ENDBRANCH   4   6
ENDBRANCH   3   4
ENDBRANCH   1   3
BRANCH   1   9
ATOM      9  C   LIG    1        1.844  -3.607  -3.192  0.00  0.00    +0.200 C 
BRANCH   9  10
ATOM     10  C   LIG    1        2.587  -3.866  -4.504  0.00  0.00    -0.350 C 
BRANCH  10  11
ATOM     11  S   LIG    1        2.752  -5.654  -4.763  0.00  0.00    +2.430 S 
ATOM     12  O   LIG    1        1.456  -6.206  -4.951  0.00  0.00    -0.940 OA
ATOM     13  O   LIG    1        3.591  -6.183  -3.745  0.00  0.00    -0.930 OA
ATOM     14  C   LIG    1        3.644  -5.723  -6.341  0.00  0.00    -0.260 C 
ENDBRANCH  10  11
ENDBRANCH   9  10
ENDBRANCH   1   9
TORSDOF 6
ENDMDL
MODEL      207
REMARK  Name = ZINC000142406135
REMARK                            x       y       z     vdW  Elec       q    Type
REMARK                         _______ _______ _______ _____ _____    ______ ____
ROOT
ATOM      1  C   LIG    1       -0.019   1.526   0.010  0.00  0.00    +0.000 C 
ATOM      2  C   LIG    1        0.002  -0.004   0.002  0.00  0.00    +0.390 C 
ATOM      3  O   LIG    1       -1.339  -0.496   0.006  0.00  0.00    -0.380 OA
ATOM      4  C   LIG    1       -2.093  -0.148   1.174  0.00  0.00    +0.260 C 
ATOM      5  C   LIG    1       -1.347  -0.670   2.402  0.00  0.00    +0.130 C 
ATOM      6  O   LIG    1       -1.990  -0.264   3.608  0.00  0.00    -0.390 OA
ATOM      7  C   LIG    1       -1.354  -0.767   4.788  0.00  0.00    +0.310 C 
ATOM      8  C   LIG    1        0.087  -0.259   4.862  0.00  0.00    +0.140 C 
ATOM      9  C   LIG    1        0.841  -0.653   3.586  0.00  0.00    +0.210 C 
ATOM     10  C   LIG    1        0.077  -0.098   2.384  0.00  0.00    +0.150 C 
ATOM     11  O   LIG    1        0.700  -0.476   1.160  0.00  0.00    -0.360 OA
ENDROOT
BRANCH   9  12
ATOM     12  O   LIG    1        2.159  -0.103   3.618  0.00  0.00    -0.540 OA
ATOM     13  H   LIG    1        2.693  -0.403   4.367  0.00  0.00    +0.390 HD
ENDBRANCH   9  12
BRANCH   8  14
ATOM     14  O   LIG    1        0.737  -0.837   5.996  0.00  0.00    -0.550 OA
ATOM     15  H   LIG    1        0.316  -0.627   6.841  0.00  0.00    +0.400 HD
ENDBRANCH   8  14
BRANCH   7  16
ATOM     16  O   LIG    1       -2.072  -0.322   5.940  0.00  0.00    -0.540 OA
ATOM     17  H   LIG    1       -2.994  -0.614   5.966  0.00  0.00    +0.400 HD
ENDBRANCH   7  16
TORSDOF 3
ENDMDL
MODEL      208
REMARK  Name = ZINC000035653215
REMARK                            x       y       z     vdW  Elec       q    Type
REMARK                         _______ _______ _______ _____ _____    ______ ____
ROOT
ATOM      1  C   LIG    1        0.857  -1.841   1.398  0.00  0.00    +0.420 C 
ATOM      2  N   LIG    1        1.464  -2.384   2.422  0.00  0.00    -0.580 NA
ATOM      3  C   LIG    1        1.651  -3.786   2.364  0.00  0.00    +0.150 C 
ATOM      4  C   LIG    1        0.561  -4.460   1.504  0.00  0.00    +0.210 C 
ATOM      5  O   LIG    1        1.171  -5.612   0.932  0.00  0.00    -0.320 OA
ATOM      6  C   LIG    1        1.541  -6.562   1.944  0.00  0.00    +0.150 C 
ATOM      7  C   LIG    1        2.538  -5.981   2.944  0.00  0.00    +0.140 C 
ATOM      8  C   LIG    1        2.001  -4.662   3.526  0.00  0.00    +0.240 C 
ATOM      9  S   LIG    1        0.243  -3.115   0.323  0.00  0.00    -0.130 S 
ENDROOT
BRANCH   1  10
ATOM     10  N   LIG    1        0.711  -0.489   1.189  0.00  0.00    -0.690 N 
ATOM     11  H   LIG    1        1.077   0.142   1.827  0.00  0.00    +0.410 HD
BRANCH  10  13
ATOM     12  C   LIG    1       -0.019   1.526   0.010  0.00  0.00    +0.060 C 
ATOM     13  C   LIG    1        0.002  -0.004   0.002  0.00  0.00    +0.260 C 
ENDBRANCH  10  13
ENDBRANCH   1  10
BRANCH   7  14
ATOM     14  O   LIG    1        3.783  -5.741   2.284  0.00  0.00    -0.550 OA
ATOM     15  H   LIG    1        4.185  -6.534   1.903  0.00  0.00    +0.380 HD
ENDBRANCH   7  14
BRANCH   8  16
ATOM     16  O   LIG    1        0.846  -4.915   4.328  0.00  0.00    -0.550 OA
ATOM     17  H   LIG    1        1.008  -5.506   5.076  0.00  0.00    +0.380 HD
ENDBRANCH   8  16
BRANCH   6  18
ATOM     18  C   LIG    1        2.169  -7.784   1.272  0.00  0.00    +0.210 C 
BRANCH  18  19
ATOM     19  O   LIG    1        1.188  -8.443   0.469  0.00  0.00    -0.560 OA
ATOM     20  H   LIG    1        1.517  -9.229   0.012  0.00  0.00    +0.390 HD
ENDBRANCH  18  19
ENDBRANCH   6  18
TORSDOF 6
ENDMDL
MODEL      209
REMARK  Name = ZINC000045789160
REMARK                            x       y       z     vdW  Elec       q    Type
REMARK                         _______ _______ _______ _____ _____    ______ ____
ROOT
ATOM      1  C   LIG    1        0.857  -1.841   1.398  0.00  0.00    +0.420 C 
ATOM      2  N   LIG    1        1.456  -2.384   2.408  0.00  0.00    -0.550 NA
ATOM      3  C   LIG    1        1.574  -3.825   2.452  0.00  0.00    +0.170 C 
ATOM      4  C   LIG    1        1.293  -4.430   1.075  0.00  0.00    +0.240 C 
ATOM      5  O   LIG    1        2.490  -4.547   0.308  0.00  0.00    -0.340 OA
ATOM      6  C   LIG    1        3.515  -5.316   0.937  0.00  0.00    +0.140 C 
ATOM      7  C   LIG    1        3.983  -4.577   2.189  0.00  0.00    +0.120 C 
ATOM      8  C   LIG    1        2.836  -4.315   3.103  0.00  0.00    +0.210 C 
ATOM      9  S   LIG    1        0.247  -3.119   0.330  0.00  0.00    -0.160 S 
ENDROOT
BRANCH   1  10
ATOM     10  N   LIG    1        0.711  -0.489   1.189  0.00  0.00    -0.690 N 
ATOM     11  H   LIG    1        1.077   0.142   1.827  0.00  0.00    +0.410 HD
BRANCH  10  13
ATOM     12  C   LIG    1       -0.019   1.526   0.010  0.00  0.00    +0.050 C 
ATOM     13  C   LIG    1        0.002  -0.004   0.002  0.00  0.00    +0.260 C 
ENDBRANCH  10  13
ENDBRANCH   1  10
BRANCH   7  14
ATOM     14  O   LIG    1        4.561  -3.327   1.809  0.00  0.00    -0.530 OA
ATOM     15  H   LIG    1        5.325  -3.408   1.222  0.00  0.00    +0.370 HD
ENDBRANCH   7  14
BRANCH   8  16
ATOM     16  O   LIG    1        3.243  -3.349   4.075  0.00  0.00    -0.520 OA
ATOM     17  H   LIG    1        3.993  -3.629   4.618  0.00  0.00    +0.370 HD
ENDBRANCH   8  16
BRANCH   6  18
ATOM     18  C   LIG    1        4.690  -5.493  -0.028  0.00  0.00    +0.210 C 
BRANCH  18  19
ATOM     19  O   LIG    1        4.271  -6.270  -1.151  0.00  0.00    -0.560 OA
ATOM     20  H   LIG    1        4.966  -6.423  -1.806  0.00  0.00    +0.380 HD
ENDBRANCH  18  19
ENDBRANCH   6  18
TORSDOF 6
ENDMDL
MODEL      210
REMARK  Name = ZINC000045789163
REMARK                            x       y       z     vdW  Elec       q    Type
REMARK                         _______ _______ _______ _____ _____    ______ ____
ROOT
ATOM      1  C   LIG    1        0.857  -1.841   1.398  0.00  0.00    +0.410 C 
ATOM      2  N   LIG    1        1.464  -2.384   2.422  0.00  0.00    -0.560 NA
ATOM      3  C   LIG    1        1.651  -3.786   2.364  0.00  0.00    +0.140 C 
ATOM      4  C   LIG    1        0.561  -4.460   1.504  0.00  0.00    +0.200 C 
ATOM      5  O   LIG    1        1.171  -5.612   0.932  0.00  0.00    -0.320 OA
ATOM      6  C   LIG    1        1.541  -6.562   1.944  0.00  0.00    +0.130 C 
ATOM      7  C   LIG    1        2.538  -5.981   2.944  0.00  0.00    +0.140 C 
ATOM      8  C   LIG    1        2.001  -4.662   3.526  0.00  0.00    +0.230 C 
ATOM      9  S   LIG    1        0.243  -3.115   0.323  0.00  0.00    -0.120 S 
ENDROOT
BRANCH   1  10
ATOM     10  N   LIG    1        0.711  -0.489   1.189  0.00  0.00    -0.690 N 
ATOM     11  H   LIG    1        1.077   0.142   1.827  0.00  0.00    +0.410 HD
BRANCH  10  13
ATOM     12  C   LIG    1       -0.019   1.526   0.010  0.00  0.00    +0.060 C 
ATOM     13  C   LIG    1        0.002  -0.004   0.002  0.00  0.00    +0.260 C 
ENDBRANCH  10  13
ENDBRANCH   1  10
BRANCH   7  14
ATOM     14  O   LIG    1        3.783  -5.741   2.284  0.00  0.00    -0.540 OA
ATOM     15  H   LIG    1        4.185  -6.534   1.903  0.00  0.00    +0.380 HD
ENDBRANCH   7  14
BRANCH   8  16
ATOM     16  O   LIG    1        3.011  -4.027   4.313  0.00  0.00    -0.530 OA
ATOM     17  H   LIG    1        3.319  -4.558   5.061  0.00  0.00    +0.380 HD
ENDBRANCH   8  16
BRANCH   6  18
ATOM     18  C   LIG    1        2.169  -7.784   1.272  0.00  0.00    +0.210 C 
BRANCH  18  19
ATOM     19  O   LIG    1        1.188  -8.443   0.469  0.00  0.00    -0.560 OA
ATOM     20  H   LIG    1        1.517  -9.229   0.012  0.00  0.00    +0.390 HD
ENDBRANCH  18  19
ENDBRANCH   6  18
TORSDOF 6
ENDMDL
MODEL      211
REMARK  Name = ZINC000142405724
REMARK                            x       y       z     vdW  Elec       q    Type
REMARK                         _______ _______ _______ _____ _____    ______ ____
ROOT
ATOM      1  C   LIG    1       -0.019   1.526   0.010  0.00  0.00    +0.000 C 
ATOM      2  C   LIG    1        0.002  -0.004   0.002  0.00  0.00    +0.390 C 
ATOM      3  O   LIG    1       -1.339  -0.496   0.006  0.00  0.00    -0.380 OA
ATOM      4  C   LIG    1       -2.093  -0.148   1.174  0.00  0.00    +0.250 C 
ATOM      5  C   LIG    1       -1.347  -0.670   2.402  0.00  0.00    +0.120 C 
ATOM      6  O   LIG    1       -1.990  -0.264   3.608  0.00  0.00    -0.380 OA
ATOM      7  C   LIG    1       -1.354  -0.767   4.788  0.00  0.00    +0.340 C 
ATOM      8  C   LIG    1        0.087  -0.259   4.862  0.00  0.00    +0.150 C 
ATOM      9  C   LIG    1        0.841  -0.653   3.586  0.00  0.00    +0.210 C 
ATOM     10  C   LIG    1        0.077  -0.098   2.384  0.00  0.00    +0.150 C 
ATOM     11  O   LIG    1        0.700  -0.476   1.160  0.00  0.00    -0.360 OA
ENDROOT
BRANCH   9  12
ATOM     12  O   LIG    1        2.159  -0.103   3.618  0.00  0.00    -0.550 OA
ATOM     13  H   LIG    1        2.693  -0.403   4.367  0.00  0.00    +0.390 HD
ENDBRANCH   9  12
BRANCH   8  14
ATOM     14  O   LIG    1        0.737  -0.837   5.996  0.00  0.00    -0.550 OA
ATOM     15  H   LIG    1        0.316  -0.627   6.841  0.00  0.00    +0.390 HD
ENDBRANCH   8  14
BRANCH   7  16
ATOM     16  O   LIG    1       -1.349  -2.196   4.751  0.00  0.00    -0.560 OA
ATOM     17  H   LIG    1       -2.231  -2.591   4.711  0.00  0.00    +0.390 HD
ENDBRANCH   7  16
TORSDOF 3
ENDMDL
MODEL      212
REMARK  Name = ZINC000142405917
REMARK                            x       y       z     vdW  Elec       q    Type
REMARK                         _______ _______ _______ _____ _____    ______ ____
ROOT
ATOM      1  C   LIG    1       -0.019   1.526   0.010  0.00  0.00    +0.090 C 
ATOM      2  C   LIG    1        0.002  -0.004   0.002  0.00  0.00    +0.300 C 
ATOM      3  O   LIG    1        0.666  -0.462  -1.177  0.00  0.00    -0.380 OA
ATOM      4  C   LIG    1        0.796  -1.887  -1.266  0.00  0.00    +0.250 C 
ATOM      5  C   LIG    1        1.544  -2.380  -0.027  0.00  0.00    +0.120 C 
ATOM      6  O   LIG    1        1.615  -3.804  -0.000  0.00  0.00    -0.380 OA
ATOM      7  C   LIG    1        2.346  -4.314   1.120  0.00  0.00    +0.340 C 
ATOM      8  C   LIG    1        1.676  -3.881   2.424  0.00  0.00    +0.150 C 
ATOM      9  C   LIG    1        1.557  -2.352   2.461  0.00  0.00    +0.210 C 
ATOM     10  C   LIG    1        0.789  -1.899   1.219  0.00  0.00    +0.150 C 
ATOM     11  O   LIG    1        0.690  -0.476   1.166  0.00  0.00    -0.370 OA
ENDROOT
BRANCH   9  12
ATOM     12  O   LIG    1        0.852  -1.953   3.638  0.00  0.00    -0.550 OA
ATOM     13  H   LIG    1        1.279  -2.224   4.462  0.00  0.00    +0.390 HD
ENDBRANCH   9  12
BRANCH   8  14
ATOM     14  O   LIG    1        2.462  -4.322   3.533  0.00  0.00    -0.550 OA
ATOM     15  H   LIG    1        2.578  -5.281   3.576  0.00  0.00    +0.390 HD
ENDBRANCH   8  14
BRANCH   7  16
ATOM     16  O   LIG    1        3.682  -3.808   1.085  0.00  0.00    -0.560 OA
ATOM     17  H   LIG    1        4.174  -4.050   0.288  0.00  0.00    +0.390 HD
ENDBRANCH   7  16
TORSDOF 3
ENDMDL
MODEL      213
REMARK  Name = ZINC000245190548
REMARK                            x       y       z     vdW  Elec       q    Type
REMARK                         _______ _______ _______ _____ _____    ______ ____
ROOT
ATOM      1  C   LIG    1        0.857  -1.841   1.398  0.00  0.00    +0.420 C 
ATOM      2  N   LIG    1        1.464  -2.384   2.422  0.00  0.00    -0.560 NA
ATOM      3  C   LIG    1        1.651  -3.786   2.364  0.00  0.00    +0.130 C 
ATOM      4  C   LIG    1        0.561  -4.460   1.504  0.00  0.00    +0.190 C 
ATOM      5  O   LIG    1        1.171  -5.612   0.932  0.00  0.00    -0.320 OA
ATOM      6  C   LIG    1        1.541  -6.562   1.944  0.00  0.00    +0.190 C 
ATOM      7  C   LIG    1        2.538  -5.981   2.944  0.00  0.00    +0.140 C 
ATOM      8  C   LIG    1        2.001  -4.662   3.526  0.00  0.00    +0.220 C 
ATOM      9  S   LIG    1        0.243  -3.115   0.323  0.00  0.00    -0.120 S 
ENDROOT
BRANCH   1  10
ATOM     10  N   LIG    1        0.711  -0.489   1.189  0.00  0.00    -0.690 N 
ATOM     11  H   LIG    1        1.077   0.142   1.827  0.00  0.00    +0.420 HD
BRANCH  10  13
ATOM     12  C   LIG    1       -0.019   1.526   0.010  0.00  0.00    +0.060 C 
ATOM     13  C   LIG    1        0.002  -0.004   0.002  0.00  0.00    +0.250 C 
ENDBRANCH  10  13
ENDBRANCH   1  10
BRANCH   7  14
ATOM     14  O   LIG    1        2.740  -6.917   4.005  0.00  0.00    -0.550 OA
ATOM     15  H   LIG    1        3.088  -7.771   3.716  0.00  0.00    +0.390 HD
ENDBRANCH   7  14
BRANCH   8  16
ATOM     16  O   LIG    1        3.011  -4.027   4.313  0.00  0.00    -0.540 OA
ATOM     17  H   LIG    1        3.319  -4.558   5.061  0.00  0.00    +0.390 HD
ENDBRANCH   8  16
BRANCH   6  18
ATOM     18  C   LIG    1        0.283  -6.999   2.698  0.00  0.00    +0.160 C 
BRANCH  18  19
ATOM     19  O   LIG    1       -0.584  -7.705   1.808  0.00  0.00    -0.560 OA
ATOM     20  H   LIG    1       -1.403  -8.013   2.219  0.00  0.00    +0.380 HD
ENDBRANCH  18  19
ENDBRANCH   6  18
TORSDOF 6
ENDMDL
MODEL      214
REMARK  Name = ZINC000044028930
REMARK                            x       y       z     vdW  Elec       q    Type
REMARK                         _______ _______ _______ _____ _____    ______ ____
ROOT
ATOM      1  C   LIG    1        0.857  -1.841   1.398  0.00  0.00    +0.430 C 
ATOM      2  N   LIG    1        1.456  -2.377   2.409  0.00  0.00    -0.580 NA
ATOM      3  C   LIG    1        1.414  -3.818   2.542  0.00  0.00    +0.180 C 
ATOM      4  C   LIG    1        1.113  -4.471   1.193  0.00  0.00    +0.240 C 
ATOM      5  O   LIG    1        2.315  -4.780   0.488  0.00  0.00    -0.340 OA
ATOM      6  C   LIG    1        3.217  -5.621   1.207  0.00  0.00    +0.140 C 
ATOM      7  C   LIG    1        3.725  -4.860   2.430  0.00  0.00    +0.140 C 
ATOM      8  C   LIG    1        2.593  -4.397   3.271  0.00  0.00    +0.230 C 
ATOM      9  S   LIG    1        0.245  -3.110   0.326  0.00  0.00    -0.150 S 
ENDROOT
BRANCH   1  10
ATOM     10  N   LIG    1        0.711  -0.489   1.189  0.00  0.00    -0.690 N 
ATOM     11  H   LIG    1        1.077   0.142   1.827  0.00  0.00    +0.410 HD
BRANCH  10  13
ATOM     12  C   LIG    1       -0.019   1.526   0.010  0.00  0.00    +0.060 C 
ATOM     13  C   LIG    1        0.002  -0.004   0.002  0.00  0.00    +0.260 C 
ENDBRANCH  10  13
ENDBRANCH   1  10
BRANCH   7  14
ATOM     14  O   LIG    1        4.461  -3.713   1.998  0.00  0.00    -0.540 OA
ATOM     15  H   LIG    1        5.229  -3.922   1.449  0.00  0.00    +0.380 HD
ENDBRANCH   7  14
BRANCH   8  16
ATOM     16  O   LIG    1        2.091  -5.513   4.010  0.00  0.00    -0.560 OA
ATOM     17  H   LIG    1        2.744  -5.923   4.594  0.00  0.00    +0.390 HD
ENDBRANCH   8  16
BRANCH   6  18
ATOM     18  C   LIG    1        4.395  -5.999   0.307  0.00  0.00    +0.210 C 
BRANCH  18  19
ATOM     19  O   LIG    1        3.925  -6.796  -0.782  0.00  0.00    -0.560 OA
ATOM     20  H   LIG    1        4.620  -7.072  -1.395  0.00  0.00    +0.380 HD
ENDBRANCH  18  19
ENDBRANCH   6  18
TORSDOF 6
ENDMDL
MODEL      215
REMARK  Name = ZINC000005339396
REMARK                            x       y       z     vdW  Elec       q    Type
REMARK                         _______ _______ _______ _____ _____    ______ ____
ROOT
ATOM      1  C   LIG    1        0.746  -1.888  -1.280  0.00  0.00    +0.330 C 
ATOM      2  O   LIG    1        1.556  -2.403  -0.221  0.00  0.00    -0.370 OA
ATOM      3  C   LIG    1        2.889  -1.890  -0.205  0.00  0.00    +0.150 C 
ATOM      4  C   LIG    1        3.597  -2.270  -1.508  0.00  0.00    +0.170 C 
ATOM      5  C   LIG    1        2.796  -1.721  -2.693  0.00  0.00    +0.160 C 
ATOM      6  C   LIG    1        1.367  -2.268  -2.627  0.00  0.00    +0.140 C 
ENDROOT
BRANCH   5   7
ATOM      7  O   LIG    1        3.410  -2.131  -3.916  0.00  0.00    -0.550 OA
ATOM      8  H   LIG    1        2.955  -1.818  -4.710  0.00  0.00    +0.380 HD
ENDBRANCH   5   7
BRANCH   4   9
ATOM      9  O   LIG    1        3.684  -3.693  -1.607  0.00  0.00    -0.510 OA
ATOM     10  H   LIG    1        4.122  -4.005  -2.411  0.00  0.00    +0.380 HD
ENDBRANCH   4   9
BRANCH   6  11
ATOM     11  O   LIG    1        1.393  -3.690  -2.758  0.00  0.00    -0.520 OA
ATOM     12  H   LIG    1        0.520  -4.105  -2.724  0.00  0.00    +0.370 HD
ENDBRANCH   6  11
BRANCH   1  13
ATOM     13  O   LIG    1        0.671  -0.465  -1.174  0.00  0.00    -0.400 OA
BRANCH  13  15
ATOM     14  C   LIG    1       -0.019   1.526   0.010  0.00  0.00    +0.040 C 
ATOM     15  C   LIG    1        0.002  -0.004   0.002  0.00  0.00    +0.170 C 
ENDBRANCH  13  15
ENDBRANCH   1  13
BRANCH   3  16
ATOM     16  C   LIG    1        3.651  -2.486   0.981  0.00  0.00    +0.240 C 
BRANCH  16  17
ATOM     17  O   LIG    1        3.790  -3.896   0.798  0.00  0.00    -0.520 OA
ATOM     18  H   LIG    1        2.949  -4.369   0.732  0.00  0.00    +0.380 HD
ENDBRANCH  16  17
BRANCH  16  19
ATOM     19  C   LIG    1        2.877  -2.214   2.273  0.00  0.00    +0.160 C 
BRANCH  19  20
ATOM     20  O   LIG    1        3.642  -2.667   3.391  0.00  0.00    -0.560 OA
ATOM     21  H   LIG    1        3.211  -2.526   4.246  0.00  0.00    +0.380 HD
ENDBRANCH  19  20
ENDBRANCH  16  19
ENDBRANCH   3  16
TORSDOF 9
ENDMDL
MODEL      216
REMARK  Name = ZINC000005392899
REMARK                            x       y       z     vdW  Elec       q    Type
REMARK                         _______ _______ _______ _____ _____    ______ ____
ROOT
ATOM      1  C   LIG    1        0.002  -0.004   0.002  0.00  0.00    +0.510 A 
ATOM      2  C   LIG    1       -1.195  -0.739   0.004  0.00  0.00    -0.110 A 
ATOM      3  N   LIG    1       -2.511  -0.417   0.012  0.00  0.00    -0.470 NA
ATOM      4  C   LIG    1       -3.224  -1.506   0.010  0.00  0.00    +0.490 A 
ATOM      5  N   LIG    1       -2.407  -2.597  -0.001  0.00  0.00    -0.460 N 
ATOM      6  C   LIG    1       -1.113  -2.142  -0.005  0.00  0.00    +0.320 A 
ATOM      7  N   LIG    1        0.085  -2.718  -0.015  0.00  0.00    -0.560 NA
ATOM      8  C   LIG    1        1.181  -1.989  -0.016  0.00  0.00    +0.560 A 
ATOM      9  N   LIG    1        1.153  -0.668  -0.013  0.00  0.00    -0.590 NA
ENDROOT
BRANCH   5  10
ATOM     10  C   LIG    1       -2.833  -3.999  -0.007  0.00  0.00    +0.440 C 
ATOM     11  O   LIG    1       -4.166  -4.102  -0.535  0.00  0.00    -0.360 OA
ATOM     12  C   LIG    1       -4.816  -5.182   0.169  0.00  0.00    +0.220 C 
ATOM     13  C   LIG    1       -4.333  -5.003   1.631  0.00  0.00    +0.130 C 
ATOM     14  C   LIG    1       -2.864  -4.544   1.434  0.00  0.00    +0.170 C 
BRANCH  13  15
ATOM     15  O   LIG    1       -4.388  -6.241   2.342  0.00  0.00    -0.550 OA
ATOM     16  H   LIG    1       -5.277  -6.615   2.412  0.00  0.00    +0.390 HD
ENDBRANCH  13  15
BRANCH  14  17
ATOM     17  O   LIG    1       -2.533  -3.514   2.368  0.00  0.00    -0.540 OA
ATOM     18  H   LIG    1       -2.595  -3.787   3.293  0.00  0.00    +0.390 HD
ENDBRANCH  14  17
ENDBRANCH   5  10
BRANCH   1  19
ATOM     19  N   LIG    1       -0.017   1.380   0.010  0.00  0.00    -0.820 N 
ATOM     20  H   LIG    1       -0.863   1.853   0.016  0.00  0.00    +0.420 HD
ATOM     21  H   LIG    1        0.817   1.876   0.004  0.00  0.00    +0.410 HD
ENDBRANCH   1  19
TORSDOF 4
ENDMDL
MODEL      217
REMARK  Name = ZINC000004803178
REMARK                            x       y       z     vdW  Elec       q    Type
REMARK                         _______ _______ _______ _____ _____    ______ ____
ROOT
ATOM      1  C   LIG    1       -1.311  -2.047   0.203  0.00  0.00    +0.190 C 
ATOM      2  O   LIG    1       -0.426  -2.590  -0.786  0.00  0.00    -0.370 OA
ATOM      3  C   LIG    1       -0.872  -2.431  -2.134  0.00  0.00    +0.420 C 
ATOM      4  O   LIG    1       -2.170  -3.015  -2.301  0.00  0.00    -0.380 OA
ATOM      5  C   LIG    1       -3.143  -2.459  -1.420  0.00  0.00    +0.100 C 
ATOM      6  C   LIG    1       -4.513  -3.114  -1.598  0.00  0.00    +0.260 C 
ATOM      7  O   LIG    1       -5.397  -2.572  -0.608  0.00  0.00    -0.380 OA
ATOM      8  C   LIG    1       -4.952  -2.730   0.739  0.00  0.00    +0.410 C 
ATOM      9  O   LIG    1       -3.654  -2.147   0.907  0.00  0.00    -0.380 OA
ATOM     10  C   LIG    1       -2.681  -2.701   0.026  0.00  0.00    +0.120 C 
ENDROOT
BRANCH   1  11
ATOM     11  C   LIG    1       -1.433  -0.534   0.013  0.00  0.00    +0.180 C 
BRANCH  11  12
ATOM     12  O   LIG    1       -0.130   0.052   0.005  0.00  0.00    -0.540 OA
ATOM     13  H   LIG    1        0.400  -0.157   0.786  0.00  0.00    +0.380 HD
ENDBRANCH  11  12
BRANCH  11  14
ATOM     14  C   LIG    1       -2.253   0.060   1.161  0.00  0.00    +0.170 C 
BRANCH  14  15
ATOM     15  O   LIG    1       -2.410   1.466   0.956  0.00  0.00    -0.570 OA
ATOM     16  H   LIG    1       -2.921   1.909   1.647  0.00  0.00    +0.380 HD
ENDBRANCH  14  15
ENDBRANCH  11  14
ENDBRANCH   1  11
TORSDOF 4
ENDMDL
MODEL      218
REMARK  Name = ZINC000006599469
REMARK                            x       y       z     vdW  Elec       q    Type
REMARK                         _______ _______ _______ _____ _____    ______ ____
ROOT
ATOM      1  N   LIG    1       -2.785  -2.557   0.261  0.00  0.00    -0.470 N 
ATOM      2  C   LIG    1       -3.436  -2.830   1.427  0.00  0.00    +0.470 A 
ATOM      3  N   LIG    1       -4.640  -3.255   1.174  0.00  0.00    -0.460 NA
ATOM      4  C   LIG    1       -4.838  -3.281  -0.166  0.00  0.00    -0.110 A 
ATOM      5  C   LIG    1       -5.910  -3.639  -1.000  0.00  0.00    +0.530 A 
ATOM      6  N   LIG    1       -5.750  -3.538  -2.315  0.00  0.00    -0.570 NA
ATOM      7  C   LIG    1       -4.614  -3.111  -2.836  0.00  0.00    +0.580 A 
ATOM      8  N   LIG    1       -3.583  -2.766  -2.094  0.00  0.00    -0.550 NA
ATOM      9  C   LIG    1       -3.652  -2.828  -0.768  0.00  0.00    +0.320 A 
ENDROOT
BRANCH   5  10
ATOM     10  N   LIG    1       -7.105  -4.087  -0.464  0.00  0.00    -0.560 N 
ATOM     11  H   LIG    1       -7.210  -4.156   0.498  0.00  0.00    +0.430 HD
BRANCH  10  12
ATOM     12  O   LIG    1       -8.175  -4.443  -1.320  0.00  0.00    -0.310 OA
ATOM     13  H   LIG    1       -8.968  -4.744  -0.854  0.00  0.00    +0.390 HD
ENDBRANCH  10  12
ENDBRANCH   5  10
BRANCH   1  14
ATOM     14  C   LIG    1       -1.413  -2.059   0.130  0.00  0.00    +0.290 C 
BRANCH  14  15
ATOM     15  C   LIG    1       -1.433  -0.534   0.013  0.00  0.00    +0.200 C 
BRANCH  15  16
ATOM     16  O   LIG    1       -2.089  -0.158  -1.200  0.00  0.00    -0.540 OA
ATOM     17  H   LIG    1       -1.665  -0.500  -1.999  0.00  0.00    +0.380 HD
ENDBRANCH  15  16
BRANCH  15  18
ATOM     18  C   LIG    1        0.002  -0.004   0.002  0.00  0.00    +0.160 C 
BRANCH  18  19
ATOM     19  O   LIG    1       -0.017   1.425   0.010  0.00  0.00    -0.560 OA
ATOM     20  H   LIG    1        0.861   1.830   0.004  0.00  0.00    +0.380 HD
ENDBRANCH  18  19
ENDBRANCH  15  18
ENDBRANCH  14  15
ENDBRANCH   1  14
TORSDOF 7
ENDMDL
MODEL      219
REMARK  Name = ZINC000004803180
REMARK                            x       y       z     vdW  Elec       q    Type
REMARK                         _______ _______ _______ _____ _____    ______ ____
ROOT
ATOM      1  C   LIG    1       -1.413  -2.059   0.130  0.00  0.00    +0.150 C 
ATOM      2  O   LIG    1       -0.623  -2.616  -0.929  0.00  0.00    -0.390 OA
ATOM      3  C   LIG    1       -0.596  -4.043  -0.964  0.00  0.00    +0.410 C 
ATOM      4  O   LIG    1       -1.928  -4.565  -1.054  0.00  0.00    -0.380 OA
ATOM      5  C   LIG    1       -2.762  -4.140   0.022  0.00  0.00    +0.100 C 
ATOM      6  C   LIG    1       -4.183  -4.686  -0.110  0.00  0.00    +0.250 C 
ATOM      7  O   LIG    1       -4.973  -4.129   0.949  0.00  0.00    -0.390 OA
ATOM      8  C   LIG    1       -5.000  -2.702   0.983  0.00  0.00    +0.420 C 
ATOM      9  O   LIG    1       -3.669  -2.180   1.074  0.00  0.00    -0.380 OA
ATOM     10  C   LIG    1       -2.834  -2.605   0.000  0.00  0.00    +0.120 C 
ENDROOT
BRANCH   1  11
ATOM     11  C   LIG    1       -1.433  -0.534   0.013  0.00  0.00    +0.260 C 
BRANCH  11  12
ATOM     12  O   LIG    1       -2.089  -0.158  -1.200  0.00  0.00    -0.540 OA
ATOM     13  H   LIG    1       -1.665  -0.500  -1.999  0.00  0.00    +0.380 HD
ENDBRANCH  11  12
BRANCH  11  14
ATOM     14  C   LIG    1        0.002  -0.004   0.002  0.00  0.00    +0.160 C 
BRANCH  14  15
ATOM     15  O   LIG    1       -0.017   1.425   0.010  0.00  0.00    -0.560 OA
ATOM     16  H   LIG    1        0.861   1.830   0.004  0.00  0.00    +0.380 HD
ENDBRANCH  14  15
ENDBRANCH  11  14
ENDBRANCH   1  11
TORSDOF 4
ENDMDL
MODEL      220
REMARK  Name = ZINC000005392898
REMARK                            x       y       z     vdW  Elec       q    Type
REMARK                         _______ _______ _______ _____ _____    ______ ____
ROOT
ATOM      1  C   LIG    1        0.002  -0.004   0.002  0.00  0.00    +0.510 A 
ATOM      2  C   LIG    1       -1.195  -0.739   0.004  0.00  0.00    -0.110 A 
ATOM      3  N   LIG    1       -2.511  -0.417   0.012  0.00  0.00    -0.460 NA
ATOM      4  C   LIG    1       -3.224  -1.506   0.010  0.00  0.00    +0.490 A 
ATOM      5  N   LIG    1       -2.407  -2.597  -0.001  0.00  0.00    -0.470 N 
ATOM      6  C   LIG    1       -1.113  -2.142  -0.005  0.00  0.00    +0.310 A 
ATOM      7  N   LIG    1        0.085  -2.718  -0.015  0.00  0.00    -0.550 NA
ATOM      8  C   LIG    1        1.181  -1.989  -0.016  0.00  0.00    +0.570 A 
ATOM      9  N   LIG    1        1.153  -0.668  -0.013  0.00  0.00    -0.590 NA
ENDROOT
BRANCH   5  10
ATOM     10  C   LIG    1       -2.833  -3.999  -0.007  0.00  0.00    +0.440 C 
ATOM     11  O   LIG    1       -4.177  -4.118   0.508  0.00  0.00    -0.360 OA
ATOM     12  C   LIG    1       -4.664  -5.384   0.010  0.00  0.00    +0.210 C 
ATOM     13  C   LIG    1       -4.149  -5.461  -1.444  0.00  0.00    +0.130 C 
ATOM     14  C   LIG    1       -2.913  -4.530  -1.456  0.00  0.00    +0.160 C 
BRANCH  13  15
ATOM     15  O   LIG    1       -5.145  -4.990  -2.354  0.00  0.00    -0.550 OA
ATOM     16  H   LIG    1       -5.963  -5.506  -2.342  0.00  0.00    +0.390 HD
ENDBRANCH  13  15
BRANCH  14  17
ATOM     17  O   LIG    1       -1.735  -5.265  -1.792  0.00  0.00    -0.540 OA
ATOM     18  H   LIG    1       -1.761  -5.669  -2.670  0.00  0.00    +0.390 HD
ENDBRANCH  14  17
ENDBRANCH   5  10
BRANCH   1  19
ATOM     19  N   LIG    1       -0.017   1.380   0.010  0.00  0.00    -0.820 N 
ATOM     20  H   LIG    1       -0.863   1.853   0.016  0.00  0.00    +0.420 HD
ATOM     21  H   LIG    1        0.817   1.876   0.004  0.00  0.00    +0.410 HD
ENDBRANCH   1  19
TORSDOF 4
ENDMDL
MODEL      221
REMARK  Name = ZINC000018212988
REMARK                            x       y       z     vdW  Elec       q    Type
REMARK                         _______ _______ _______ _____ _____    ______ ____
ROOT
ATOM      1  C   LIG    1       -1.413  -2.059   0.130  0.00  0.00    +0.090 C 
ATOM      2  O   LIG    1       -0.762  -2.437   1.347  0.00  0.00    -0.380 OA
ATOM      3  C   LIG    1       -0.736  -3.849   1.572  0.00  0.00    +0.420 C 
ATOM      4  O   LIG    1       -2.075  -4.350   1.607  0.00  0.00    -0.380 OA
ATOM      5  C   LIG    1       -2.816  -4.101   0.409  0.00  0.00    +0.140 C 
ATOM      6  C   LIG    1       -2.850  -2.591   0.147  0.00  0.00    +0.150 C 
ENDROOT
BRANCH   6   7
ATOM      7  O   LIG    1       -3.586  -1.942   1.185  0.00  0.00    -0.520 OA
ATOM      8  H   LIG    1       -3.648  -0.982   1.083  0.00  0.00    +0.380 HD
ENDBRANCH   6   7
BRANCH   1   9
ATOM      9  C   LIG    1       -1.433  -0.534   0.013  0.00  0.00    +0.230 C 
BRANCH   9  10
ATOM     10  O   LIG    1       -2.089  -0.158  -1.200  0.00  0.00    -0.540 OA
ATOM     11  H   LIG    1       -1.665  -0.500  -1.999  0.00  0.00    +0.380 HD
ENDBRANCH   9  10
BRANCH   9  12
ATOM     12  C   LIG    1        0.002  -0.004   0.002  0.00  0.00    +0.170 C 
BRANCH  12  13
ATOM     13  O   LIG    1       -0.017   1.425   0.010  0.00  0.00    -0.560 OA
ATOM     14  H   LIG    1        0.861   1.830   0.004  0.00  0.00    +0.380 HD
ENDBRANCH  12  13
ENDBRANCH   9  12
ENDBRANCH   1   9
BRANCH   5  15
ATOM     15  C   LIG    1       -4.243  -4.628   0.570  0.00  0.00    +0.240 C 
BRANCH  15  16
ATOM     16  O   LIG    1       -4.913  -3.884   1.589  0.00  0.00    -0.520 OA
ATOM     17  H   LIG    1       -4.490  -3.936   2.457  0.00  0.00    +0.380 HD
ENDBRANCH  15  16
BRANCH  15  18
ATOM     18  C   LIG    1       -4.199  -6.106   0.963  0.00  0.00    +0.160 C 
BRANCH  18  19
ATOM     19  O   LIG    1       -5.529  -6.629   1.000  0.00  0.00    -0.560 OA
ATOM     20  H   LIG    1       -5.578  -7.563   1.244  0.00  0.00    +0.380 HD
ENDBRANCH  18  19
ENDBRANCH  15  18
ENDBRANCH   5  15
TORSDOF 9
ENDMDL
MODEL      222
REMARK  Name = ZINC000039075674
REMARK                            x       y       z     vdW  Elec       q    Type
REMARK                         _______ _______ _______ _____ _____    ______ ____
ROOT
ATOM      1  C   LIG    1       -0.018   1.461   0.010  0.00  0.00    +0.340 C 
ATOM      2  N   LIG    1        0.002  -0.004   0.002  0.00  0.00    -0.450 N 
ATOM      3  C   LIG    1        0.009  -0.809  -1.093  0.00  0.00    +0.560 A 
ATOM      4  N   LIG    1        0.027  -2.070  -0.710  0.00  0.00    -0.520 NA
ATOM      5  C   LIG    1        0.034  -2.140   0.622  0.00  0.00    +0.360 A 
ATOM      6  N   LIG    1        0.051  -3.192   1.524  0.00  0.00    -0.510 N 
ATOM      7  C   LIG    1        0.062  -4.574   1.037  0.00  0.00    +0.350 C 
ATOM      8  C   LIG    1        0.050  -2.946   2.848  0.00  0.00    +0.710 A 
ATOM      9  O   LIG    1        0.061  -3.881   3.625  0.00  0.00    -0.540 OA
ATOM     10  N   LIG    1        0.040  -1.691   3.331  0.00  0.00    -0.650 N 
ATOM     11  H   LIG    1        0.042  -1.549   4.291  0.00  0.00    +0.440 HD
ATOM     12  C   LIG    1        0.027  -0.627   2.502  0.00  0.00    +0.600 A 
ATOM     13  O   LIG    1        0.019   0.505   2.953  0.00  0.00    -0.520 OA
ATOM     14  C   LIG    1        0.024  -0.838   1.112  0.00  0.00    -0.180 A 
ENDROOT
BRANCH   3  15
ATOM     15  N   LIG    1       -0.003  -0.375  -2.399  0.00  0.00    -0.550 N 
ATOM     16  H   LIG    1       -0.016   0.575  -2.594  0.00  0.00    +0.420 HD
BRANCH  15  17
ATOM     17  N   LIG    1        0.006  -1.283  -3.420  0.00  0.00    -0.580 NA
ATOM     18  H   LIG    1        0.796  -1.905  -3.344  0.00  0.00    +0.350 HD
ATOM     19  H   LIG    1       -0.004  -0.819  -4.316  0.00  0.00    +0.370 HD
ENDBRANCH  15  17
ENDBRANCH   3  15
TORSDOF 2
ENDMDL
MODEL      223
REMARK  Name = ZINC000004803176
REMARK                            x       y       z     vdW  Elec       q    Type
REMARK                         _______ _______ _______ _____ _____    ______ ____
ROOT
ATOM      1  C   LIG    1       -1.413  -2.059   0.130  0.00  0.00    +0.150 C 
ATOM      2  O   LIG    1       -0.614  -2.610  -0.921  0.00  0.00    -0.380 OA
ATOM      3  C   LIG    1       -0.573  -4.039  -0.924  0.00  0.00    +0.410 C 
ATOM      4  O   LIG    1       -1.901  -4.552  -1.058  0.00  0.00    -0.370 OA
ATOM      5  C   LIG    1       -2.792  -4.133  -0.021  0.00  0.00    +0.100 C 
ATOM      6  C   LIG    1       -4.193  -4.684  -0.304  0.00  0.00    +0.250 C 
ATOM      7  O   LIG    1       -4.693  -4.092  -1.506  0.00  0.00    -0.390 OA
ATOM      8  C   LIG    1       -4.753  -2.664  -1.461  0.00  0.00    +0.400 C 
ATOM      9  O   LIG    1       -3.445  -2.141  -1.219  0.00  0.00    -0.350 OA
ATOM     10  C   LIG    1       -2.841  -2.601   0.011  0.00  0.00    +0.120 C 
ENDROOT
BRANCH   1  11
ATOM     11  C   LIG    1       -1.433  -0.534   0.013  0.00  0.00    +0.240 C 
BRANCH  11  12
ATOM     12  O   LIG    1       -2.089  -0.158  -1.200  0.00  0.00    -0.530 OA
ATOM     13  H   LIG    1       -1.665  -0.500  -1.999  0.00  0.00    +0.380 HD
ENDBRANCH  11  12
BRANCH  11  14
ATOM     14  C   LIG    1        0.002  -0.004   0.002  0.00  0.00    +0.160 C 
BRANCH  14  15
ATOM     15  O   LIG    1       -0.017   1.425   0.010  0.00  0.00    -0.570 OA
ATOM     16  H   LIG    1        0.861   1.830   0.004  0.00  0.00    +0.380 HD
ENDBRANCH  14  15
ENDBRANCH  11  14
ENDBRANCH   1  11
TORSDOF 4
ENDMDL
MODEL      224
REMARK  Name = ZINC000004403242
REMARK                            x       y       z     vdW  Elec       q    Type
REMARK                         _______ _______ _______ _____ _____    ______ ____
ROOT
ATOM      1  C   LIG    1       -1.409  -2.059   0.131  0.00  0.00    +0.150 C 
ATOM      2  O   LIG    1       -0.518  -2.601  -0.848  0.00  0.00    -0.360 OA
ATOM      3  C   LIG    1       -0.904  -2.322  -2.196  0.00  0.00    +0.410 C 
ATOM      4  O   LIG    1       -2.209  -2.852  -2.438  0.00  0.00    -0.380 OA
ATOM      5  C   LIG    1       -3.215  -2.327  -1.567  0.00  0.00    +0.140 C 
ATOM      6  C   LIG    1       -2.817  -2.614  -0.112  0.00  0.00    +0.140 C 
ENDROOT
BRANCH   6   7
ATOM      7  O   LIG    1       -2.821  -4.025   0.115  0.00  0.00    -0.520 OA
ATOM      8  H   LIG    1       -2.578  -4.279   1.016  0.00  0.00    +0.370 HD
ENDBRANCH   6   7
BRANCH   1   9
ATOM      9  C   LIG    1       -1.433  -0.534   0.013  0.00  0.00    +0.180 C 
BRANCH   9  10
ATOM     10  O   LIG    1       -0.106  -0.024   0.155  0.00  0.00    -0.540 OA
ATOM     11  H   LIG    1        0.281  -0.172   1.029  0.00  0.00    +0.380 HD
ENDBRANCH   9  10
BRANCH   9  12
ATOM     12  C   LIG    1       -2.324   0.049   1.112  0.00  0.00    +0.160 C 
BRANCH  12  13
ATOM     13  O   LIG    1       -2.440   1.462   0.932  0.00  0.00    -0.560 OA
ATOM     14  H   LIG    1       -2.992   1.899   1.595  0.00  0.00    +0.390 HD
ENDBRANCH  12  13
ENDBRANCH   9  12
ENDBRANCH   1   9
BRANCH   5  15
ATOM     15  C   LIG    1       -4.558  -2.994  -1.873  0.00  0.00    +0.240 C 
BRANCH  15  16
ATOM     16  O   LIG    1       -4.479  -4.387  -1.562  0.00  0.00    -0.530 OA
ATOM     17  H   LIG    1       -3.803  -4.864  -2.062  0.00  0.00    +0.380 HD
ENDBRANCH  15  16
BRANCH  15  18
ATOM     18  C   LIG    1       -4.886  -2.821  -3.357  0.00  0.00    +0.150 C 
BRANCH  18  19
ATOM     19  O   LIG    1       -6.191  -3.341  -3.620  0.00  0.00    -0.570 OA
ATOM     20  H   LIG    1       -6.466  -3.264  -4.544  0.00  0.00    +0.380 HD
ENDBRANCH  18  19
ENDBRANCH  15  18
ENDBRANCH   5  15
TORSDOF 9
ENDMDL
MODEL      225
REMARK  Name = ZINC000005431225
REMARK                            x       y       z     vdW  Elec       q    Type
REMARK                         _______ _______ _______ _____ _____    ______ ____
ROOT
ATOM      1  C   LIG    1        0.679  -2.115   1.088  0.00  0.00    +0.180 C 
ATOM      2  O   LIG    1        1.479  -2.516   2.203  0.00  0.00    -0.370 OA
ATOM      3  C   LIG    1        1.624  -3.932   2.337  0.00  0.00    +0.320 C 
ATOM      4  C   LIG    1        0.247  -4.566   2.549  0.00  0.00    +0.040 C 
ATOM      5  C   LIG    1       -0.661  -4.202   1.370  0.00  0.00    +0.270 C 
ATOM      6  C   LIG    1       -0.736  -2.677   1.249  0.00  0.00    +0.170 C 
ENDROOT
BRANCH   5   7
ATOM      7  N   LIG    1       -0.110  -4.767   0.135  0.00  0.00    -0.730 N 
ATOM      8  H   LIG    1        0.457  -4.224  -0.435  0.00  0.00    +0.400 HD
ATOM      9  C   LIG    1       -0.392  -6.039  -0.209  0.00  0.00    +0.520 C 
ATOM     10  O   LIG    1       -1.102  -6.717   0.503  0.00  0.00    -0.530 OA
ATOM     11  C   LIG    1        0.174  -6.619  -1.479  0.00  0.00    +0.110 C 
ENDBRANCH   5   7
BRANCH   1  12
ATOM     12  C   LIG    1        0.618  -0.611   1.029  0.00  0.00    +0.460 C 
ATOM     13  O   LIG    1        1.124   0.049   1.905  0.00  0.00    -0.470 OA
BRANCH  12  15
ATOM     14  C   LIG    1       -0.018   1.448   0.010  0.00  0.00    +0.290 C 
ATOM     15  O   LIG    1        0.002  -0.004   0.002  0.00  0.00    -0.360 OA
ENDBRANCH  12  15
ENDBRANCH   1  12
BRANCH   3  16
ATOM     16  O   LIG    1        2.459  -4.220   3.460  0.00  0.00    -0.360 OA
ATOM     17  C   LIG    1        3.806  -3.767   3.314  0.00  0.00    +0.220 C 
ENDBRANCH   3  16
BRANCH   6  18
ATOM     18  O   LIG    1       -1.336  -2.134   2.427  0.00  0.00    -0.540 OA
ATOM     19  H   LIG    1       -1.415  -1.171   2.419  0.00  0.00    +0.380 HD
ENDBRANCH   6  18
TORSDOF 5
ENDMDL
MODEL      226
REMARK  Name = ZINC000004803183
REMARK                            x       y       z     vdW  Elec       q    Type
REMARK                         _______ _______ _______ _____ _____    ______ ____
ROOT
ATOM      1  C   LIG    1       -1.409  -2.059   0.131  0.00  0.00    +0.190 C 
ATOM      2  O   LIG    1       -0.517  -2.601  -0.848  0.00  0.00    -0.360 OA
ATOM      3  C   LIG    1       -0.903  -2.320  -2.195  0.00  0.00    +0.400 C 
ATOM      4  O   LIG    1       -2.207  -2.854  -2.438  0.00  0.00    -0.370 OA
ATOM      5  C   LIG    1       -3.216  -2.336  -1.567  0.00  0.00    +0.100 C 
ATOM      6  C   LIG    1       -4.550  -3.025  -1.872  0.00  0.00    +0.250 C 
ATOM      7  O   LIG    1       -4.440  -4.415  -1.552  0.00  0.00    -0.380 OA
ATOM      8  C   LIG    1       -4.085  -4.665  -0.189  0.00  0.00    +0.410 C 
ATOM      9  O   LIG    1       -2.830  -4.042   0.097  0.00  0.00    -0.370 OA
ATOM     10  C   LIG    1       -2.817  -2.614  -0.112  0.00  0.00    +0.120 C 
ENDROOT
BRANCH   1  11
ATOM     11  C   LIG    1       -1.433  -0.534   0.013  0.00  0.00    +0.190 C 
BRANCH  11  12
ATOM     12  O   LIG    1       -0.106  -0.024   0.155  0.00  0.00    -0.530 OA
ATOM     13  H   LIG    1        0.281  -0.172   1.028  0.00  0.00    +0.380 HD
ENDBRANCH  11  12
BRANCH  11  14
ATOM     14  C   LIG    1       -2.323   0.049   1.112  0.00  0.00    +0.160 C 
BRANCH  14  15
ATOM     15  O   LIG    1       -2.439   1.462   0.932  0.00  0.00    -0.560 OA
ATOM     16  H   LIG    1       -2.991   1.899   1.595  0.00  0.00    +0.380 HD
ENDBRANCH  14  15
ENDBRANCH  11  14
ENDBRANCH   1  11
TORSDOF 4
ENDMDL
MODEL      227
REMARK  Name = ZINC000005437324
REMARK                            x       y       z     vdW  Elec       q    Type
REMARK                         _______ _______ _______ _____ _____    ______ ____
ROOT
ATOM      1  C   LIG    1        1.468  -0.873   1.757  0.00  0.00    +0.180 C 
ENDROOT
BRANCH   1   2
ATOM      2  O   LIG    1        2.241  -1.574   0.781  0.00  0.00    -0.550 OA
ATOM      3  H   LIG    1        1.922  -2.468   0.595  0.00  0.00    +0.380 HD
ENDBRANCH   1   2
BRANCH   1   4
ATOM      4  C   LIG    1        0.024  -0.743   1.267  0.00  0.00    +0.300 C 
BRANCH   4   6
ATOM      5  C   LIG    1       -0.018   1.461   0.010  0.00  0.00    +0.270 C 
ATOM      6  N   LIG    1        0.002  -0.004   0.002  0.00  0.00    -0.430 N 
BRANCH   6   7
ATOM      7  N   LIG    1        0.000  -0.643  -1.119  0.00  0.00    -0.090 NA
ATOM      8  O   LIG    1       -0.018  -0.028  -2.170  0.00  0.00    -0.070 OA
ENDBRANCH   6   7
ENDBRANCH   4   6
ENDBRANCH   1   4
BRANCH   1   9
ATOM      9  C   LIG    1        1.491  -1.645   3.078  0.00  0.00    +0.180 C 
BRANCH   9  10
ATOM     10  O   LIG    1        0.833  -2.901   2.906  0.00  0.00    -0.550 OA
ATOM     11  H   LIG    1        1.238  -3.469   2.236  0.00  0.00    +0.380 HD
ENDBRANCH   9  10
BRANCH   9  12
ATOM     12  C   LIG    1        2.941  -1.882   3.504  0.00  0.00    +0.300 C 
BRANCH  12  13
ATOM     13  N   LIG    1        2.963  -2.622   4.769  0.00  0.00    -0.430 N 
ATOM     14  C   LIG    1        2.854  -1.902   6.040  0.00  0.00    +0.270 C 
BRANCH  13  15
ATOM     15  N   LIG    1        3.078  -3.906   4.763  0.00  0.00    -0.090 NA
ATOM     16  O   LIG    1        3.096  -4.521   5.814  0.00  0.00    -0.070 OA
ENDBRANCH  13  15
ENDBRANCH  12  13
ENDBRANCH   9  12
ENDBRANCH   1   9
TORSDOF 9
ENDMDL
MODEL      228
REMARK  Name = ZINC000005431227
REMARK                            x       y       z     vdW  Elec       q    Type
REMARK                         _______ _______ _______ _____ _____    ______ ____
ROOT
ATOM      1  C   LIG    1        0.679  -2.115   1.088  0.00  0.00    +0.180 C 
ATOM      2  O   LIG    1        1.479  -2.516   2.203  0.00  0.00    -0.360 OA
ATOM      3  C   LIG    1        1.624  -3.932   2.337  0.00  0.00    +0.370 C 
ATOM      4  C   LIG    1        0.247  -4.566   2.549  0.00  0.00    +0.050 C 
ATOM      5  C   LIG    1       -0.661  -4.202   1.370  0.00  0.00    +0.270 C 
ATOM      6  C   LIG    1       -0.736  -2.677   1.249  0.00  0.00    +0.170 C 
ENDROOT
BRANCH   5   7
ATOM      7  N   LIG    1       -0.110  -4.767   0.135  0.00  0.00    -0.710 N 
ATOM      8  H   LIG    1        0.457  -4.224  -0.435  0.00  0.00    +0.400 HD
ATOM      9  C   LIG    1       -0.392  -6.039  -0.209  0.00  0.00    +0.520 C 
ATOM     10  O   LIG    1       -1.102  -6.717   0.503  0.00  0.00    -0.550 OA
ATOM     11  C   LIG    1        0.174  -6.619  -1.479  0.00  0.00    +0.100 C 
ENDBRANCH   5   7
BRANCH   1  12
ATOM     12  C   LIG    1        0.618  -0.611   1.029  0.00  0.00    +0.460 C 
ATOM     13  O   LIG    1        1.124   0.049   1.905  0.00  0.00    -0.470 OA
BRANCH  12  15
ATOM     14  C   LIG    1       -0.018   1.448   0.010  0.00  0.00    +0.280 C 
ATOM     15  O   LIG    1        0.002  -0.004   0.002  0.00  0.00    -0.360 OA
ENDBRANCH  12  15
ENDBRANCH   1  12
BRANCH   3  16
ATOM     16  O   LIG    1        2.218  -4.465   1.152  0.00  0.00    -0.390 OA
ATOM     17  C   LIG    1        3.592  -4.111   0.981  0.00  0.00    +0.220 C 
ENDBRANCH   3  16
BRANCH   6  18
ATOM     18  O   LIG    1       -1.336  -2.134   2.427  0.00  0.00    -0.540 OA
ATOM     19  H   LIG    1       -1.415  -1.171   2.419  0.00  0.00    +0.380 HD
ENDBRANCH   6  18
TORSDOF 5
ENDMDL
MODEL      229
REMARK  Name = ZINC000004403243
REMARK                            x       y       z     vdW  Elec       q    Type
REMARK                         _______ _______ _______ _____ _____    ______ ____
ROOT
ATOM      1  C   LIG    1       -1.413  -2.059   0.130  0.00  0.00    +0.100 C 
ATOM      2  O   LIG    1       -0.762  -2.437   1.347  0.00  0.00    -0.380 OA
ATOM      3  C   LIG    1       -0.736  -3.849   1.572  0.00  0.00    +0.410 C 
ATOM      4  O   LIG    1       -2.075  -4.350   1.607  0.00  0.00    -0.370 OA
ATOM      5  C   LIG    1       -2.816  -4.101   0.409  0.00  0.00    +0.190 C 
ATOM      6  C   LIG    1       -2.850  -2.591   0.147  0.00  0.00    +0.150 C 
ENDROOT
BRANCH   6   7
ATOM      7  O   LIG    1       -3.586  -1.942   1.185  0.00  0.00    -0.550 OA
ATOM      8  H   LIG    1       -3.648  -0.982   1.083  0.00  0.00    +0.380 HD
ENDBRANCH   6   7
BRANCH   1   9
ATOM      9  C   LIG    1       -1.433  -0.534   0.013  0.00  0.00    +0.230 C 
BRANCH   9  10
ATOM     10  O   LIG    1       -2.089  -0.158  -1.200  0.00  0.00    -0.540 OA
ATOM     11  H   LIG    1       -1.665  -0.500  -1.999  0.00  0.00    +0.380 HD
ENDBRANCH   9  10
BRANCH   9  12
ATOM     12  C   LIG    1        0.002  -0.004   0.002  0.00  0.00    +0.170 C 
BRANCH  12  13
ATOM     13  O   LIG    1       -0.017   1.425   0.010  0.00  0.00    -0.560 OA
ATOM     14  H   LIG    1        0.861   1.830   0.004  0.00  0.00    +0.380 HD
ENDBRANCH  12  13
ENDBRANCH   9  12
ENDBRANCH   1   9
BRANCH   5  15
ATOM     15  C   LIG    1       -2.140  -4.810  -0.767  0.00  0.00    +0.190 C 
BRANCH  15  16
ATOM     16  O   LIG    1       -2.881  -4.560  -1.963  0.00  0.00    -0.540 OA
ATOM     17  H   LIG    1       -3.797  -4.871  -1.931  0.00  0.00    +0.380 HD
ENDBRANCH  15  16
BRANCH  15  18
ATOM     18  C   LIG    1       -2.097  -6.315  -0.499  0.00  0.00    +0.170 C 
BRANCH  18  19
ATOM     19  O   LIG    1       -1.364  -6.964  -1.540  0.00  0.00    -0.560 OA
ATOM     20  H   LIG    1       -1.296  -7.923  -1.434  0.00  0.00    +0.380 HD
ENDBRANCH  18  19
ENDBRANCH  15  18
ENDBRANCH   5  15
TORSDOF 9
ENDMDL
MODEL      230
REMARK  Name = ZINC000005431226
REMARK                            x       y       z     vdW  Elec       q    Type
REMARK                         _______ _______ _______ _____ _____    ______ ____
ROOT
ATOM      1  C   LIG    1        0.679  -2.115   1.088  0.00  0.00    +0.190 C 
ATOM      2  O   LIG    1        1.479  -2.516   2.203  0.00  0.00    -0.360 OA
ATOM      3  C   LIG    1        1.624  -3.932   2.337  0.00  0.00    +0.370 C 
ATOM      4  C   LIG    1        0.247  -4.566   2.549  0.00  0.00    +0.040 C 
ATOM      5  C   LIG    1       -0.661  -4.202   1.370  0.00  0.00    +0.270 C 
ATOM      6  C   LIG    1       -0.736  -2.677   1.249  0.00  0.00    +0.170 C 
ENDROOT
BRANCH   5   7
ATOM      7  N   LIG    1       -2.003  -4.745   1.598  0.00  0.00    -0.720 N 
ATOM      8  H   LIG    1       -2.689  -4.188   1.998  0.00  0.00    +0.410 HD
ATOM      9  C   LIG    1       -2.283  -6.017   1.253  0.00  0.00    +0.510 C 
ATOM     10  O   LIG    1       -1.425  -6.713   0.753  0.00  0.00    -0.540 OA
ATOM     11  C   LIG    1       -3.663  -6.574   1.489  0.00  0.00    +0.110 C 
ENDBRANCH   5   7
BRANCH   1  12
ATOM     12  C   LIG    1        0.618  -0.611   1.029  0.00  0.00    +0.460 C 
ATOM     13  O   LIG    1        1.124   0.049   1.905  0.00  0.00    -0.470 OA
BRANCH  12  15
ATOM     14  C   LIG    1       -0.018   1.448   0.010  0.00  0.00    +0.280 C 
ATOM     15  O   LIG    1        0.002  -0.004   0.002  0.00  0.00    -0.360 OA
ENDBRANCH  12  15
ENDBRANCH   1  12
BRANCH   3  16
ATOM     16  O   LIG    1        2.218  -4.465   1.152  0.00  0.00    -0.400 OA
ATOM     17  C   LIG    1        3.592  -4.111   0.981  0.00  0.00    +0.220 C 
ENDBRANCH   3  16
BRANCH   6  18
ATOM     18  O   LIG    1       -1.336  -2.134   2.427  0.00  0.00    -0.550 OA
ATOM     19  H   LIG    1       -1.415  -1.171   2.419  0.00  0.00    +0.380 HD
ENDBRANCH   6  18
TORSDOF 5
ENDMDL
MODEL      231
REMARK  Name = ZINC000039129037
REMARK                            x       y       z     vdW  Elec       q    Type
REMARK                         _______ _______ _______ _____ _____    ______ ____
ROOT
ATOM      1  C   LIG    1       -0.018   1.461   0.010  0.00  0.00    +0.370 C 
ATOM      2  N   LIG    1        0.002  -0.004   0.002  0.00  0.00    -0.550 N 
ATOM      3  C   LIG    1        0.005  -0.652  -1.183  0.00  0.00    +0.560 A 
ATOM      4  C   LIG    1        0.026  -2.141  -1.158  0.00  0.00    +0.200 A 
ATOM      5  N   LIG    1        0.030  -2.844  -2.253  0.00  0.00    -0.400 NA
ATOM      6  C   LIG    1        0.049  -4.193  -2.183  0.00  0.00    +0.420 A 
ATOM      7  C   LIG    1        0.065  -4.859  -0.845  0.00  0.00    +0.460 A 
ATOM      8  N   LIG    1        0.060  -4.106   0.271  0.00  0.00    -0.540 NA
ATOM      9  O   LIG    1        0.082  -6.071  -0.764  0.00  0.00    -0.350 OA
ATOM     10  O   LIG    1        0.053  -4.859  -3.198  0.00  0.00    -0.310 OA
ATOM     11  C   LIG    1        0.042  -2.798   0.174  0.00  0.00    +0.450 A 
ATOM     12  N   LIG    1        0.037  -1.996   1.285  0.00  0.00    -0.510 N 
ATOM     13  C   LIG    1        0.053  -2.606   2.617  0.00  0.00    +0.390 C 
ATOM     14  O   LIG    1       -0.008  -0.042  -2.233  0.00  0.00    -0.410 OA
ATOM     15  C   LIG    1        0.022  -0.659   1.170  0.00  0.00    +0.710 A 
ATOM     16  O   LIG    1        0.019  -0.000   2.191  0.00  0.00    -0.490 OA
ENDROOT
TORSDOF 0
ENDMDL
MODEL      232
REMARK  Name = ZINC000004529947
REMARK                            x       y       z     vdW  Elec       q    Type
REMARK                         _______ _______ _______ _____ _____    ______ ____
ROOT
ATOM      1  C   LIG    1       -3.562  -2.317   0.750  0.00  0.00    +0.100 C 
ATOM      2  C   LIG    1       -3.494  -1.241  -0.303  0.00  0.00    +0.520 C 
ATOM      3  N   LIG    1       -2.433  -1.176  -1.133  0.00  0.00    -0.650 N 
ATOM      4  C   LIG    1       -2.276  -0.046  -2.059  0.00  0.00    +0.400 C 
ATOM      5  C   LIG    1       -2.133  -0.597  -3.484  0.00  0.00    +0.420 C 
ATOM      6  N   LIG    1       -1.113  -1.655  -3.477  0.00  0.00    -0.660 N 
ATOM      7  C   LIG    1       -1.270  -2.785  -2.551  0.00  0.00    +0.420 C 
ATOM      8  C   LIG    1       -0.052  -1.590  -4.306  0.00  0.00    +0.520 C 
ATOM      9  O   LIG    1        0.711  -2.529  -4.389  0.00  0.00    -0.520 OA
ATOM     10  C   LIG    1        0.186  -0.351  -5.130  0.00  0.00    +0.100 C 
ATOM     11  C   LIG    1       -1.411  -2.232  -1.123  0.00  0.00    +0.420 C 
ATOM     12  O   LIG    1       -4.393  -0.433  -0.404  0.00  0.00    -0.510 OA
ENDROOT
BRANCH   7  13
ATOM     13  O   LIG    1       -0.121  -3.632  -2.628  0.00  0.00    -0.520 OA
ATOM     14  H   LIG    1       -0.077  -4.162  -3.435  0.00  0.00    +0.400 HD
ENDBRANCH   7  13
BRANCH   5  15
ATOM     15  O   LIG    1       -1.733   0.454  -4.366  0.00  0.00    -0.540 OA
ATOM     16  H   LIG    1       -1.734   0.204  -5.300  0.00  0.00    +0.400 HD
ENDBRANCH   5  15
BRANCH   4  17
ATOM     17  O   LIG    1       -3.425   0.800  -1.982  0.00  0.00    -0.530 OA
ATOM     18  H   LIG    1       -3.498   1.290  -1.152  0.00  0.00    +0.400 HD
ENDBRANCH   4  17
BRANCH  11  19
ATOM     19  O   LIG    1       -0.158  -1.696  -0.690  0.00  0.00    -0.540 OA
ATOM     20  H   LIG    1       -0.175  -1.329   0.204  0.00  0.00    +0.380 HD
ENDBRANCH  11  19
TORSDOF 4
ENDMDL
MODEL      233
REMARK  Name = ZINC000004529965
REMARK                            x       y       z     vdW  Elec       q    Type
REMARK                         _______ _______ _______ _____ _____    ______ ____
ROOT
ATOM      1  C   LIG    1       -3.477  -0.967   0.030  0.00  0.00    +0.290 C 
ATOM      2  O   LIG    1       -3.856  -1.264  -1.315  0.00  0.00    -0.350 OA
ATOM      3  C   LIG    1       -4.935  -2.195  -1.425  0.00  0.00    +0.220 C 
ATOM      4  C   LIG    1       -6.179  -1.614  -0.748  0.00  0.00    +0.130 C 
ATOM      5  C   LIG    1       -5.854  -1.298   0.715  0.00  0.00    +0.210 C 
ATOM      6  C   LIG    1       -4.662  -0.337   0.766  0.00  0.00    +0.170 C 
ENDROOT
BRANCH   1   7
ATOM      7  N   LIG    1       -2.348  -0.027   0.024  0.00  0.00    -0.460 NA
ATOM      8  H   LIG    1       -2.399   0.605   0.810  0.00  0.00    +0.360 HD
BRANCH   7   9
ATOM      9  N   LIG    1       -1.156  -0.694   0.009  0.00  0.00    -0.520 N 
ATOM     10  H   LIG    1       -1.143  -1.664   0.004  0.00  0.00    +0.430 HD
BRANCH   9  11
ATOM     11  C   LIG    1        0.002  -0.004   0.002  0.00  0.00    +0.590 C 
ATOM     12  S   LIG    1        1.496  -0.840  -0.017  0.00  0.00    -0.620 S 
BRANCH  11  13
ATOM     13  N   LIG    1       -0.016   1.344   0.009  0.00  0.00    -0.790 N 
ATOM     14  H   LIG    1       -0.863   1.817   0.016  0.00  0.00    +0.400 HD
ATOM     15  H   LIG    1        0.817   1.840   0.004  0.00  0.00    +0.430 HD
ENDBRANCH  11  13
ENDBRANCH   9  11
ENDBRANCH   7   9
ENDBRANCH   1   7
BRANCH   5  16
ATOM     16  O   LIG    1       -6.988  -0.689   1.336  0.00  0.00    -0.550 OA
ATOM     17  H   LIG    1       -7.782  -1.241   1.334  0.00  0.00    +0.390 HD
ENDBRANCH   5  16
BRANCH   4  18
ATOM     18  O   LIG    1       -7.244  -2.565  -0.807  0.00  0.00    -0.560 OA
ATOM     19  H   LIG    1       -7.499  -2.815  -1.706  0.00  0.00    +0.390 HD
ENDBRANCH   4  18
BRANCH   6  20
ATOM     20  O   LIG    1       -5.016   0.896   0.136  0.00  0.00    -0.530 OA
ATOM     21  H   LIG    1       -4.306   1.553   0.132  0.00  0.00    +0.380 HD
ENDBRANCH   6  20
TORSDOF 7
ENDMDL
MODEL      234
REMARK  Name = ZINC000004529945
REMARK                            x       y       z     vdW  Elec       q    Type
REMARK                         _______ _______ _______ _____ _____    ______ ____
ROOT
ATOM      1  C   LIG    1        6.116  -4.369  -3.021  0.00  0.00    +0.100 C 
ATOM      2  C   LIG    1        4.939  -4.344  -2.081  0.00  0.00    +0.520 C 
ATOM      3  N   LIG    1        3.896  -3.527  -2.329  0.00  0.00    -0.650 N 
ATOM      4  C   LIG    1        3.890  -2.661  -3.515  0.00  0.00    +0.410 C 
ATOM      5  C   LIG    1        2.617  -2.943  -4.323  0.00  0.00    +0.420 C 
ATOM      6  N   LIG    1        1.465  -2.904  -3.412  0.00  0.00    -0.650 N 
ATOM      7  C   LIG    1        1.470  -3.771  -2.225  0.00  0.00    +0.420 C 
ATOM      8  C   LIG    1        0.421  -2.088  -3.660  0.00  0.00    +0.530 C 
ATOM      9  O   LIG    1       -0.503  -2.030  -2.877  0.00  0.00    -0.530 OA
ATOM     10  C   LIG    1        0.403  -1.248  -4.912  0.00  0.00    +0.110 C 
ATOM     11  C   LIG    1        2.741  -3.492  -1.421  0.00  0.00    +0.420 C 
ATOM     12  O   LIG    1        4.930  -5.059  -1.101  0.00  0.00    -0.520 OA
ENDROOT
BRANCH   7  13
ATOM     13  O   LIG    1        0.319  -3.495  -1.425  0.00  0.00    -0.520 OA
ATOM     14  H   LIG    1       -0.511  -3.809  -1.808  0.00  0.00    +0.390 HD
ENDBRANCH   7  13
BRANCH   5  15
ATOM     15  O   LIG    1        2.463  -1.950  -5.339  0.00  0.00    -0.530 OA
ATOM     16  H   LIG    1        2.073  -2.284  -6.159  0.00  0.00    +0.390 HD
ENDBRANCH   5  15
BRANCH   4  17
ATOM     17  O   LIG    1        3.910  -1.291  -3.109  0.00  0.00    -0.530 OA
ATOM     18  H   LIG    1        4.684  -1.048  -2.583  0.00  0.00    +0.380 HD
ENDBRANCH   4  17
BRANCH  11  19
ATOM     19  O   LIG    1        2.651  -2.201  -0.814  0.00  0.00    -0.530 OA
ATOM     20  H   LIG    1        3.425  -1.960  -0.288  0.00  0.00    +0.380 HD
ENDBRANCH  11  19
TORSDOF 4
ENDMDL
MODEL      235
REMARK  Name = ZINC000004529946
REMARK                            x       y       z     vdW  Elec       q    Type
REMARK                         _______ _______ _______ _____ _____    ______ ____
ROOT
ATOM      1  C   LIG    1       -0.590   1.672  -0.194  0.00  0.00    +0.110 C 
ATOM      2  C   LIG    1       -0.733   0.177  -0.063  0.00  0.00    +0.530 C 
ATOM      3  N   LIG    1       -0.454  -0.621  -1.113  0.00  0.00    -0.660 N 
ATOM      4  C   LIG    1        0.168  -0.072  -2.325  0.00  0.00    +0.430 C 
ATOM      5  C   LIG    1       -0.715  -0.422  -3.530  0.00  0.00    +0.430 C 
ATOM      6  N   LIG    1       -1.027  -1.857  -3.482  0.00  0.00    -0.650 N 
ATOM      7  C   LIG    1       -1.649  -2.406  -2.269  0.00  0.00    +0.400 C 
ATOM      8  C   LIG    1       -0.748  -2.656  -4.531  0.00  0.00    +0.520 C 
ATOM      9  O   LIG    1       -0.906  -3.855  -4.440  0.00  0.00    -0.510 OA
ATOM     10  C   LIG    1       -0.239  -2.059  -5.818  0.00  0.00    +0.100 C 
ATOM     11  C   LIG    1       -0.762  -2.057  -1.062  0.00  0.00    +0.410 C 
ATOM     12  O   LIG    1       -1.098  -0.307   0.987  0.00  0.00    -0.530 OA
ENDROOT
BRANCH   7  13
ATOM     13  O   LIG    1       -1.762  -3.826  -2.388  0.00  0.00    -0.530 OA
ATOM     14  H   LIG    1       -2.409  -4.115  -3.047  0.00  0.00    +0.390 HD
ENDBRANCH   7  13
BRANCH   5  15
ATOM     15  O   LIG    1       -1.924   0.337  -3.476  0.00  0.00    -0.540 OA
ATOM     16  H   LIG    1       -2.530   0.165  -4.210  0.00  0.00    +0.390 HD
ENDBRANCH   5  15
BRANCH   4  17
ATOM     17  O   LIG    1        0.281   1.348  -2.206  0.00  0.00    -0.530 OA
ATOM     18  H   LIG    1        1.001   1.638  -1.631  0.00  0.00    +0.390 HD
ENDBRANCH   4  17
BRANCH  11  19
ATOM     19  O   LIG    1       -1.458  -2.359   0.149  0.00  0.00    -0.540 OA
ATOM     20  H   LIG    1       -0.956  -2.162   0.951  0.00  0.00    +0.400 HD
ENDBRANCH  11  19
TORSDOF 4
ENDMDL
MODEL      236
REMARK  Name = ZINC000004529948
REMARK                            x       y       z     vdW  Elec       q    Type
REMARK                         _______ _______ _______ _____ _____    ______ ____
ROOT
ATOM      1  C   LIG    1       -0.794   1.459  -0.232  0.00  0.00    +0.100 C 
ATOM      2  C   LIG    1       -0.801  -0.048  -0.266  0.00  0.00    +0.520 C 
ATOM      3  N   LIG    1       -0.587  -0.697  -1.427  0.00  0.00    -0.650 N 
ATOM      4  C   LIG    1       -0.341   0.051  -2.668  0.00  0.00    +0.420 C 
ATOM      5  C   LIG    1        0.985  -0.427  -3.274  0.00  0.00    +0.420 C 
ATOM      6  N   LIG    1        0.976  -1.896  -3.322  0.00  0.00    -0.650 N 
ATOM      7  C   LIG    1        0.729  -2.644  -2.082  0.00  0.00    +0.420 C 
ATOM      8  C   LIG    1        1.190  -2.545  -4.484  0.00  0.00    +0.520 C 
ATOM      9  O   LIG    1        1.280  -1.921  -5.520  0.00  0.00    -0.510 OA
ATOM     10  C   LIG    1        1.318  -4.047  -4.495  0.00  0.00    +0.100 C 
ATOM     11  C   LIG    1       -0.591  -2.166  -1.475  0.00  0.00    +0.420 C 
ATOM     12  O   LIG    1       -0.998  -0.676   0.753  0.00  0.00    -0.520 OA
ENDROOT
BRANCH   7  13
ATOM     13  O   LIG    1        1.795  -2.408  -1.159  0.00  0.00    -0.540 OA
ATOM     14  H   LIG    1        2.664  -2.678  -1.486  0.00  0.00    +0.380 HD
ENDBRANCH   7  13
BRANCH   5  15
ATOM     15  O   LIG    1        1.125   0.099  -4.595  0.00  0.00    -0.530 OA
ATOM     16  H   LIG    1        1.944  -0.165  -5.038  0.00  0.00    +0.400 HD
ENDBRANCH   5  15
BRANCH   4  17
ATOM     17  O   LIG    1       -1.407  -0.185  -3.590  0.00  0.00    -0.540 OA
ATOM     18  H   LIG    1       -2.276   0.084  -3.264  0.00  0.00    +0.380 HD
ENDBRANCH   4  17
BRANCH  11  19
ATOM     19  O   LIG    1       -0.730  -2.693  -0.154  0.00  0.00    -0.530 OA
ATOM     20  H   LIG    1       -1.547  -2.429   0.291  0.00  0.00    +0.400 HD
ENDBRANCH  11  19
TORSDOF 4
ENDMDL
MODEL      237
REMARK  Name = ZINC000005567021
REMARK                            x       y       z     vdW  Elec       q    Type
REMARK                         _______ _______ _______ _____ _____    ______ ____
ROOT
ATOM      1  O2    U A  1        0.002  -0.004   0.002  0.00  0.00    -0.570 OA
ATOM      2  C2    U A  1       -0.014   1.212   0.009  0.00  0.00    +0.720 C 
ATOM      3  N3    U A  1       -1.200   1.840   0.029  0.00  0.00    -0.760 N 
ATOM      4  H3    U A  1       -2.015   1.315   0.045  0.00  0.00    +0.410 HD
ATOM      5  C4    U A  1       -1.287   3.301   0.026  0.00  0.00    +0.390 C 
ATOM      6  C5    U A  1       -0.041   3.881   0.704  0.00  0.00    +0.060 C 
ATOM      7  C6    U A  1        1.201   3.335  -0.009  0.00  0.00    +0.270 C 
ATOM      8  N1    U A  1        1.153   1.872   0.001  0.00  0.00    -0.620 N 
ENDROOT
BRANCH   8   9
ATOM      9  C1*   U A  1        2.406   1.113  -0.006  0.00  0.00    +0.430 C 
ATOM     10  C2*   U A  1        2.545   0.290   1.299  0.00  0.00    +0.000 C 
ATOM     11  C3*   U A  1        3.492  -0.848   0.831  0.00  0.00    +0.170 C 
ATOM     12  C4*   U A  1        3.055  -1.056  -0.634  0.00  0.00    +0.200 C 
ATOM     13  O4*   U A  1        2.395   0.142  -1.065  0.00  0.00    -0.360 OA
BRANCH  11  14
ATOM     14  O3*   U A  1        4.858  -0.436   0.905  0.00  0.00    -0.560 OA
ATOM     15  H3*   U A  1        5.153  -0.210   1.798  0.00  0.00    +0.380 HD
ENDBRANCH  11  14
BRANCH  12  16
ATOM     16  C5*   U A  1        4.282  -1.316  -1.510  0.00  0.00    +0.200 C 
BRANCH  16  17
ATOM     17  O5*   U A  1        3.861  -1.622  -2.841  0.00  0.00    -0.570 OA
ATOM     18  H5*   U A  1        4.589  -1.799  -3.453  0.00  0.00    +0.380 HD
ENDBRANCH  16  17
ENDBRANCH  12  16
ENDBRANCH   8   9
BRANCH   5  19
ATOM     19  O4    U A  1       -2.455   3.711   0.740  0.00  0.00    -0.560 OA
ATOM     20  H4    U A  1       -3.282   3.375   0.367  0.00  0.00    +0.390 HD
ENDBRANCH   5  19
TORSDOF 5
ENDMDL
MODEL      238
REMARK  Name = ZINC000004894873
REMARK                            x       y       z     vdW  Elec       q    Type
REMARK                         _______ _______ _______ _____ _____    ______ ____
ROOT
ATOM      1  C   LIG    1       -2.375  -2.983  -0.321  0.00  0.00    +0.520 C 
ATOM      2  N   LIG    1       -2.228  -4.287  -0.627  0.00  0.00    -0.710 N 
ATOM      3  H   LIG    1       -1.351  -4.700  -0.581  0.00  0.00    +0.420 HD
ATOM      4  O   LIG    1       -3.482  -2.489  -0.289  0.00  0.00    -0.530 OA
ENDROOT
BRANCH   1   5
ATOM      5  C   LIG    1       -1.165  -2.138  -0.017  0.00  0.00    +0.240 C 
BRANCH   5   8
ATOM      6  C   LIG    1       -0.708   1.523  -1.037  0.00  0.00    +0.110 C 
ATOM      7  C   LIG    1       -0.424   0.088  -0.673  0.00  0.00    +0.510 C 
ATOM      8  N   LIG    1       -1.440  -0.744  -0.371  0.00  0.00    -0.720 N 
ATOM      9  H   LIG    1       -2.354  -0.419  -0.388  0.00  0.00    +0.410 HD
ATOM     10  O   LIG    1        0.719  -0.317  -0.652  0.00  0.00    -0.540 OA
ENDBRANCH   5   8
BRANCH   5  11
ATOM     11  C   LIG    1       -0.839  -2.231   1.475  0.00  0.00    -0.020 C 
ATOM     12  C   LIG    1        0.360  -1.335   1.792  0.00  0.00    +0.030 C 
ATOM     13  C   LIG    1       -0.502  -3.679   1.835  0.00  0.00    +0.030 C 
ENDBRANCH   5  11
ENDBRANCH   1   5
BRANCH   2  14
ATOM     14  C   LIG    1       -3.392  -5.081  -1.029  0.00  0.00    +0.300 C 
BRANCH  14  15
ATOM     15  C   LIG    1       -2.960  -6.496  -1.314  0.00  0.00    +0.510 C 
ATOM     16  O   LIG    1       -1.795  -6.811  -1.194  0.00  0.00    -0.540 OA
ATOM     17  N   LIG    1       -3.868  -7.412  -1.704  0.00  0.00    -0.850 N 
ATOM     18  H   LIG    1       -3.590  -8.323  -1.887  0.00  0.00    +0.410 HD
ATOM     19  H   LIG    1       -4.800  -7.161  -1.800  0.00  0.00    +0.410 HD
ENDBRANCH  14  15
ENDBRANCH   2  14
TORSDOF 5
ENDMDL
MODEL      239
REMARK  Name = ZINC000005600512
REMARK                            x       y       z     vdW  Elec       q    Type
REMARK                         _______ _______ _______ _____ _____    ______ ____
ROOT
ATOM      1  O   LIG    1        0.002  -0.004   0.002  0.00  0.00    -0.410 OA
ATOM      2  C   LIG    1       -0.014   1.204   0.009  0.00  0.00    +0.470 C 
ATOM      3  O   LIG    1       -1.137   1.997   0.030  0.00  0.00    -0.300 OA
ATOM      4  C   LIG    1       -0.739   3.211  -0.607  0.00  0.00    +0.150 C 
ATOM      5  C   LIG    1       -1.405   4.555  -0.425  0.00  0.00    +0.190 C 
ATOM      6  C   LIG    1       -0.184   5.524  -0.392  0.00  0.00    +0.220 C 
ATOM      7  O   LIG    1        1.011   4.684  -0.421  0.00  0.00    -0.320 OA
ATOM      8  C   LIG    1        0.608   3.485   0.189  0.00  0.00    +0.240 C 
ATOM      9  O   LIG    1        0.208   3.704   1.545  0.00  0.00    -0.360 OA
ATOM     10  C   LIG    1        1.277   3.569   2.484  0.00  0.00    +0.360 C 
ATOM     11  C   LIG    1        1.773   2.126   2.468  0.00  0.00    +0.050 C 
ATOM     12  C   LIG    1        2.206   1.715   1.072  0.00  0.00    +0.050 C 
ATOM     13  C   LIG    1        1.214   2.122   0.002  0.00  0.00    +0.110 C 
ENDROOT
BRANCH   5  14
ATOM     14  O   LIG    1       -2.131   4.601   0.804  0.00  0.00    -0.530 OA
ATOM     15  H   LIG    1       -2.577   5.444   0.967  0.00  0.00    +0.380 HD
ENDBRANCH   5  14
BRANCH  10  16
ATOM     16  O   LIG    1        2.344   4.447   2.123  0.00  0.00    -0.570 OA
ATOM     17  H   LIG    1        2.096   5.382   2.106  0.00  0.00    +0.390 HD
ENDBRANCH  10  16
BRANCH  13  18
ATOM     18  O   LIG    1        1.846   2.086  -1.279  0.00  0.00    -0.520 OA
ATOM     19  H   LIG    1        2.197   1.218  -1.521  0.00  0.00    +0.390 HD
ENDBRANCH  13  18
TORSDOF 3
ENDMDL
MODEL      240
REMARK  Name = ZINC000005567019
REMARK                            x       y       z     vdW  Elec       q    Type
REMARK                         _______ _______ _______ _____ _____    ______ ____
ROOT
ATOM      1  O2    U A  1        0.002  -0.004   0.002  0.00  0.00    -0.570 OA
ATOM      2  C2    U A  1       -0.014   1.212   0.009  0.00  0.00    +0.720 C 
ATOM      3  N3    U A  1       -1.200   1.840   0.029  0.00  0.00    -0.760 N 
ATOM      4  H3    U A  1       -2.015   1.315   0.029  0.00  0.00    +0.410 HD
ATOM      5  C4    U A  1       -1.287   3.301   0.051  0.00  0.00    +0.390 C 
ATOM      6  C5    U A  1       -0.060   3.888  -0.655  0.00  0.00    +0.050 C 
ATOM      7  C6    U A  1        1.201   3.335   0.016  0.00  0.00    +0.280 C 
ATOM      8  N1    U A  1        1.153   1.872   0.001  0.00  0.00    -0.620 N 
ENDROOT
BRANCH   8   9
ATOM      9  C1*   U A  1        2.406   1.113  -0.032  0.00  0.00    +0.430 C 
ATOM     10  C2*   U A  1        2.557   0.268   1.258  0.00  0.00    +0.000 C 
ATOM     11  C3*   U A  1        3.499  -0.862   0.761  0.00  0.00    +0.170 C 
ATOM     12  C4*   U A  1        3.047  -1.045  -0.704  0.00  0.00    +0.200 C 
ATOM     13  O4*   U A  1        2.384   0.160  -1.107  0.00  0.00    -0.360 OA
BRANCH  11  14
ATOM     14  O3*   U A  1        4.866  -0.452   0.829  0.00  0.00    -0.560 OA
ATOM     15  H3*   U A  1        5.170  -0.241   1.722  0.00  0.00    +0.380 HD
ENDBRANCH  11  14
BRANCH  12  16
ATOM     16  C5*   U A  1        4.266  -1.290  -1.596  0.00  0.00    +0.200 C 
BRANCH  16  17
ATOM     17  O5*   U A  1        3.832  -1.573  -2.928  0.00  0.00    -0.570 OA
ATOM     18  H5*   U A  1        4.554  -1.739  -3.550  0.00  0.00    +0.380 HD
ENDBRANCH  16  17
ENDBRANCH  12  16
ENDBRANCH   8   9
BRANCH   5  19
ATOM     19  O4    U A  1       -2.474   3.718  -0.625  0.00  0.00    -0.560 OA
ATOM     20  H4    U A  1       -3.290   3.378  -0.233  0.00  0.00    +0.390 HD
ENDBRANCH   5  19
TORSDOF 5
ENDMDL
MODEL      241
REMARK  Name = ZINC000005600513
REMARK                            x       y       z     vdW  Elec       q    Type
REMARK                         _______ _______ _______ _____ _____    ______ ____
ROOT
ATOM      1  O   LIG    1        0.002  -0.004   0.002  0.00  0.00    -0.420 OA
ATOM      2  C   LIG    1       -0.014   1.204   0.009  0.00  0.00    +0.460 C 
ATOM      3  O   LIG    1       -1.115   1.971   0.029  0.00  0.00    -0.320 OA
ATOM      4  C   LIG    1       -0.809   3.228   0.707  0.00  0.00    +0.190 C 
ATOM      5  C   LIG    1       -1.566   4.367  -0.004  0.00  0.00    +0.180 C 
ATOM      6  C   LIG    1       -0.464   5.202  -0.681  0.00  0.00    +0.200 C 
ATOM      7  O   LIG    1        0.688   4.355  -0.767  0.00  0.00    -0.310 OA
ATOM      8  C   LIG    1        0.690   3.477   0.401  0.00  0.00    +0.290 C 
ATOM      9  O   LIG    1        1.321   4.147   1.463  0.00  0.00    -0.400 OA
ATOM     10  C   LIG    1        2.041   3.391   2.427  0.00  0.00    +0.350 C 
ATOM     11  C   LIG    1        3.064   2.540   1.657  0.00  0.00    +0.060 C 
ATOM     12  C   LIG    1        2.278   1.497   0.873  0.00  0.00    +0.060 C 
ATOM     13  C   LIG    1        1.211   2.108   0.002  0.00  0.00    +0.070 C 
ENDROOT
BRANCH   5  14
ATOM     14  O   LIG    1       -2.281   5.159   0.946  0.00  0.00    -0.550 OA
ATOM     15  H   LIG    1       -2.776   5.892   0.554  0.00  0.00    +0.390 HD
ENDBRANCH   5  14
BRANCH  10  16
ATOM     16  O   LIG    1        2.715   4.269   3.330  0.00  0.00    -0.530 OA
ATOM     17  H   LIG    1        2.125   4.859   3.820  0.00  0.00    +0.390 HD
ENDBRANCH  10  16
BRANCH  13  18
ATOM     18  O   LIG    1        1.694   2.202  -1.340  0.00  0.00    -0.500 OA
ATOM     19  H   LIG    1        1.942   1.353  -1.729  0.00  0.00    +0.390 HD
ENDBRANCH  13  18
TORSDOF 3
ENDMDL
MODEL      242
REMARK  Name = ZINC000005567020
REMARK                            x       y       z     vdW  Elec       q    Type
REMARK                         _______ _______ _______ _____ _____    ______ ____
ROOT
ATOM      1  O2    U A  1        0.002  -0.004   0.002  0.00  0.00    -0.590 OA
ATOM      2  C2    U A  1       -0.014   1.212   0.009  0.00  0.00    +0.720 C 
ATOM      3  N3    U A  1       -1.200   1.840   0.029  0.00  0.00    -0.750 N 
ATOM      4  H3    U A  1       -2.015   1.315   0.045  0.00  0.00    +0.410 HD
ATOM      5  C4    U A  1       -1.287   3.301   0.026  0.00  0.00    +0.390 C 
ATOM      6  C5    U A  1       -0.041   3.881   0.704  0.00  0.00    +0.060 C 
ATOM      7  C6    U A  1        1.201   3.335  -0.009  0.00  0.00    +0.280 C 
ATOM      8  N1    U A  1        1.153   1.872   0.001  0.00  0.00    -0.620 N 
ENDROOT
BRANCH   8   9
ATOM      9  C1*   U A  1        2.406   1.113  -0.006  0.00  0.00    +0.420 C 
ATOM     10  C2*   U A  1        2.536   0.260   1.281  0.00  0.00    +0.000 C 
ATOM     11  C3*   U A  1        4.069   0.080   1.399  0.00  0.00    +0.160 C 
ATOM     12  C4*   U A  1        4.650   1.233   0.557  0.00  0.00    +0.180 C 
ATOM     13  O4*   U A  1        3.541   2.004   0.061  0.00  0.00    -0.360 OA
BRANCH  11  14
ATOM     14  O3*   U A  1        4.482   0.196   2.762  0.00  0.00    -0.560 OA
ATOM     15  H3*   U A  1        4.099  -0.472   3.347  0.00  0.00    +0.390 HD
ENDBRANCH  11  14
BRANCH  12  16
ATOM     16  C5*   U A  1        5.552   2.110   1.427  0.00  0.00    +0.220 C 
BRANCH  16  17
ATOM     17  O5*   U A  1        6.177   3.105   0.614  0.00  0.00    -0.570 OA
ATOM     18  H5*   U A  1        6.765   3.698   1.100  0.00  0.00    +0.380 HD
ENDBRANCH  16  17
ENDBRANCH  12  16
ENDBRANCH   8   9
BRANCH   5  19
ATOM     19  O4    U A  1       -2.455   3.711   0.740  0.00  0.00    -0.560 OA
ATOM     20  H4    U A  1       -3.282   3.375   0.367  0.00  0.00    +0.390 HD
ENDBRANCH   5  19
TORSDOF 5
ENDMDL
MODEL      243
REMARK  Name = ZINC000005600351
REMARK                            x       y       z     vdW  Elec       q    Type
REMARK                         _______ _______ _______ _____ _____    ______ ____
ROOT
ATOM      1  O   LIG    1        0.002  -0.004   0.002  0.00  0.00    -0.430 OA
ATOM      2  C   LIG    1       -0.014   1.204   0.009  0.00  0.00    +0.490 C 
ATOM      3  O   LIG    1       -1.126   1.975   0.029  0.00  0.00    -0.330 OA
ATOM      4  C   LIG    1       -0.781   3.398   0.224  0.00  0.00    +0.240 C 
ATOM      5  C   LIG    1       -1.651   4.194  -0.787  0.00  0.00    +0.170 C 
ATOM      6  C   LIG    1       -0.668   4.552  -1.924  0.00  0.00    +0.200 C 
ATOM      7  O   LIG    1        0.407   3.589  -1.804  0.00  0.00    -0.340 OA
ATOM      8  C   LIG    1        0.631   3.475  -0.372  0.00  0.00    +0.240 C 
ATOM      9  O   LIG    1        1.563   4.428   0.070  0.00  0.00    -0.350 OA
ATOM     10  C   LIG    1        2.793   4.308  -0.673  0.00  0.00    +0.370 C 
ATOM     11  C   LIG    1        3.397   2.910  -0.589  0.00  0.00    +0.060 C 
ATOM     12  C   LIG    1        2.357   1.818  -0.927  0.00  0.00    +0.070 C 
ATOM     13  C   LIG    1        1.179   2.081   0.002  0.00  0.00    +0.040 C 
ENDROOT
BRANCH   5  14
ATOM     14  O   LIG    1       -2.171   5.377  -0.178  0.00  0.00    -0.550 OA
ATOM     15  H   LIG    1       -2.722   5.912  -0.765  0.00  0.00    +0.390 HD
ENDBRANCH   5  14
BRANCH  10  16
ATOM     16  O   LIG    1        2.535   4.615  -2.044  0.00  0.00    -0.560 OA
ATOM     17  H   LIG    1        2.193   5.508  -2.190  0.00  0.00    +0.380 HD
ENDBRANCH  10  16
BRANCH  13  18
ATOM     18  O   LIG    1        1.687   2.164   1.335  0.00  0.00    -0.520 OA
ATOM     19  H   LIG    1        2.144   1.366   1.632  0.00  0.00    +0.390 HD
ENDBRANCH  13  18
TORSDOF 3
ENDMDL
MODEL      244
REMARK  Name = ZINC000005600349
REMARK                            x       y       z     vdW  Elec       q    Type
REMARK                         _______ _______ _______ _____ _____    ______ ____
ROOT
ATOM      1  O   LIG    1        0.002  -0.004   0.002  0.00  0.00    -0.380 OA
ATOM      2  C   LIG    1       -0.014   1.204   0.009  0.00  0.00    +0.490 C 
ATOM      3  O   LIG    1       -1.121   2.080   0.030  0.00  0.00    -0.310 OA
ATOM      4  C   LIG    1       -0.820   2.892  -1.066  0.00  0.00    +0.130 C 
ATOM      5  C   LIG    1       -1.361   3.969  -1.930  0.00  0.00    +0.210 C 
ATOM      6  C   LIG    1       -0.137   4.134  -2.903  0.00  0.00    +0.220 C 
ATOM      7  O   LIG    1        0.918   3.249  -2.386  0.00  0.00    -0.340 OA
ATOM      8  C   LIG    1        0.660   3.270  -0.969  0.00  0.00    +0.230 C 
ATOM      9  O   LIG    1        1.249   4.434  -0.454  0.00  0.00    -0.330 OA
ATOM     10  C   LIG    1        2.670   4.341  -0.730  0.00  0.00    +0.360 C 
ATOM     11  C   LIG    1        3.331   3.049  -0.274  0.00  0.00    +0.050 C 
ATOM     12  C   LIG    1        2.486   1.780  -0.560  0.00  0.00    +0.060 C 
ATOM     13  C   LIG    1        1.140   2.170   0.003  0.00  0.00    +0.060 C 
ENDROOT
BRANCH   5  14
ATOM     14  O   LIG    1       -1.606   5.164  -1.186  0.00  0.00    -0.540 OA
ATOM     15  H   LIG    1       -1.960   5.892  -1.716  0.00  0.00    +0.390 HD
ENDBRANCH   5  14
BRANCH  10  16
ATOM     16  O   LIG    1        2.864   4.469  -2.140  0.00  0.00    -0.560 OA
ATOM     17  H   LIG    1        2.546   5.306  -2.506  0.00  0.00    +0.380 HD
ENDBRANCH  10  16
BRANCH  13  18
ATOM     18  O   LIG    1        1.317   2.747   1.298  0.00  0.00    -0.500 OA
ATOM     19  H   LIG    1        1.744   2.159   1.936  0.00  0.00    +0.390 HD
ENDBRANCH  13  18
TORSDOF 3
ENDMDL
MODEL      245
REMARK  Name = ZINC000005613301
REMARK                            x       y       z     vdW  Elec       q    Type
REMARK                         _______ _______ _______ _____ _____    ______ ____
ROOT
ATOM      1  C   LIG    1       -1.136  -2.159   0.001  0.00  0.00    +0.380 C 
ATOM      2  O   LIG    1       -1.351  -2.645   1.327  0.00  0.00    -0.360 OA
ATOM      3  C   LIG    1       -1.325  -4.070   1.438  0.00  0.00    +0.190 C 
ATOM      4  C   LIG    1       -2.441  -4.667   0.576  0.00  0.00    +0.160 C 
ATOM      5  C   LIG    1       -2.256  -4.210  -0.874  0.00  0.00    +0.160 C 
ATOM      6  C   LIG    1       -2.244  -2.679  -0.918  0.00  0.00    +0.120 C 
ENDROOT
BRANCH   1   9
ATOM      7  C   LIG    1       -0.018   1.503   0.010  0.00  0.00    +0.110 C 
ATOM      8  C   LIG    1        0.002  -0.004   0.002  0.00  0.00    +0.520 C 
ATOM      9  N   LIG    1       -1.156  -0.694   0.009  0.00  0.00    -0.720 N 
ATOM     10  H   LIG    1       -2.002  -0.220   0.020  0.00  0.00    +0.400 HD
ATOM     11  O   LIG    1        1.060  -0.596  -0.011  0.00  0.00    -0.530 OA
ENDBRANCH   1   9
BRANCH   5  12
ATOM     12  O   LIG    1       -3.333  -4.705  -1.673  0.00  0.00    -0.550 OA
ATOM     13  H   LIG    1       -3.279  -4.453  -2.605  0.00  0.00    +0.390 HD
ENDBRANCH   5  12
BRANCH   4  14
ATOM     14  O   LIG    1       -3.709  -4.221   1.060  0.00  0.00    -0.530 OA
ATOM     15  H   LIG    1       -4.463  -4.562   0.560  0.00  0.00    +0.380 HD
ENDBRANCH   4  14
BRANCH   6  16
ATOM     16  O   LIG    1       -3.507  -2.179  -0.476  0.00  0.00    -0.520 OA
ATOM     17  H   LIG    1       -3.571  -1.214  -0.478  0.00  0.00    +0.370 HD
ENDBRANCH   6  16
BRANCH   3  18
ATOM     18  C   LIG    1       -1.537  -4.473   2.898  0.00  0.00    +0.220 C 
BRANCH  18  19
ATOM     19  O   LIG    1       -0.436  -4.013   3.684  0.00  0.00    -0.570 OA
ATOM     20  H   LIG    1       -0.503  -4.234   4.623  0.00  0.00    +0.380 HD
ENDBRANCH  18  19
ENDBRANCH   3  18
TORSDOF 6
ENDMDL
MODEL      246
REMARK  Name = ZINC000005669994
REMARK                            x       y       z     vdW  Elec       q    Type
REMARK                         _______ _______ _______ _____ _____    ______ ____
ROOT
ATOM      1  C   LIG    1        0.047  -1.809   5.078  0.00  0.00    +0.250 C 
ENDROOT
BRANCH   1   2
ATOM      2  O   LIG    1        1.209  -1.077   5.472  0.00  0.00    -0.540 OA
ATOM      3  H   LIG    1        2.043  -1.503   5.230  0.00  0.00    +0.380 HD
ENDBRANCH   1   2
BRANCH   1   4
ATOM      4  C   LIG    1        0.043  -1.979   3.557  0.00  0.00    +0.080 C 
BRANCH   4   5
ATOM      5  S   LIG    1        0.026  -0.351   2.768  0.00  0.00    +0.070 S 
BRANCH   5  11
ATOM      6  C   LIG    1       -0.018   1.461   0.010  0.00  0.00    +0.390 C 
ATOM      7  N   LIG    1        0.002  -0.004   0.002  0.00  0.00    -0.360 N 
ATOM      8  N   LIG    1        0.009  -0.852  -1.120  0.00  0.00    -0.080 NA
ATOM      9  N   LIG    1        0.027  -2.061  -0.674  0.00  0.00    -0.030 NA
ATOM     10  N   LIG    1        0.032  -2.063   0.610  0.00  0.00    -0.340 NA
ATOM     11  C   LIG    1        0.024  -0.832   1.073  0.00  0.00    +0.200 A 
ENDBRANCH   5  11
ENDBRANCH   4   5
ENDBRANCH   1   4
BRANCH   1  12
ATOM     12  C   LIG    1        0.061  -3.186   5.745  0.00  0.00    +0.160 C 
BRANCH  12  13
ATOM     13  O   LIG    1       -0.052  -3.031   7.161  0.00  0.00    -0.370 OA
BRANCH  13  14
ATOM     14  C   LIG    1       -0.049  -4.264   7.883  0.00  0.00    +0.180 C 
BRANCH  14  15
ATOM     15  C   LIG    1       -0.175  -3.978   9.381  0.00  0.00    +0.200 C 
BRANCH  15  16
ATOM     16  O   LIG    1       -1.448  -3.386   9.648  0.00  0.00    -0.570 OA
ATOM     17  H   LIG    1       -1.597  -3.178  10.580  0.00  0.00    +0.380 HD
ENDBRANCH  15  16
ENDBRANCH  14  15
ENDBRANCH  13  14
ENDBRANCH  12  13
ENDBRANCH   1  12
TORSDOF 9
ENDMDL
MODEL      247
REMARK  Name = ZINC000005669996
REMARK                            x       y       z     vdW  Elec       q    Type
REMARK                         _______ _______ _______ _____ _____    ______ ____
ROOT
ATOM      1  C   LIG    1        0.047  -1.809   5.078  0.00  0.00    +0.250 C 
ENDROOT
BRANCH   1   2
ATOM      2  O   LIG    1       -1.178  -1.201   5.493  0.00  0.00    -0.540 OA
ATOM      3  H   LIG    1       -1.967  -1.711   5.265  0.00  0.00    +0.380 HD
ENDBRANCH   1   2
BRANCH   1   4
ATOM      4  C   LIG    1        0.043  -1.979   3.557  0.00  0.00    +0.080 C 
BRANCH   4   5
ATOM      5  S   LIG    1        0.026  -0.351   2.768  0.00  0.00    +0.070 S 
BRANCH   5  11
ATOM      6  C   LIG    1       -0.018   1.461   0.010  0.00  0.00    +0.390 C 
ATOM      7  N   LIG    1        0.002  -0.004   0.002  0.00  0.00    -0.360 N 
ATOM      8  N   LIG    1        0.009  -0.852  -1.120  0.00  0.00    -0.080 NA
ATOM      9  N   LIG    1        0.027  -2.061  -0.674  0.00  0.00    -0.030 NA
ATOM     10  N   LIG    1        0.032  -2.063   0.610  0.00  0.00    -0.340 NA
ATOM     11  C   LIG    1        0.024  -0.832   1.073  0.00  0.00    +0.200 A 
ENDBRANCH   5  11
ENDBRANCH   4   5
ENDBRANCH   1   4
BRANCH   1  12
ATOM     12  C   LIG    1        0.187  -3.180   5.744  0.00  0.00    +0.160 C 
BRANCH  12  13
ATOM     13  O   LIG    1        0.308  -3.012   7.158  0.00  0.00    -0.370 OA
BRANCH  13  14
ATOM     14  C   LIG    1        0.444  -4.238   7.879  0.00  0.00    +0.180 C 
BRANCH  14  15
ATOM     15  C   LIG    1        0.566  -3.939   9.375  0.00  0.00    +0.200 C 
BRANCH  15  16
ATOM     16  O   LIG    1       -0.652  -3.358   9.845  0.00  0.00    -0.570 OA
ATOM     17  H   LIG    1       -0.647  -3.142  10.787  0.00  0.00    +0.380 HD
ENDBRANCH  15  16
ENDBRANCH  14  15
ENDBRANCH  13  14
ENDBRANCH  12  13
ENDBRANCH   1  12
TORSDOF 9
ENDMDL
MODEL      248
REMARK  Name = ZINC000005748905
REMARK                            x       y       z     vdW  Elec       q    Type
REMARK                         _______ _______ _______ _____ _____    ______ ____
ROOT
ATOM      1  C   LIG    1        0.043  -1.979   3.557  0.00  0.00    +0.000 C 
ENDROOT
BRANCH   1   2
ATOM      2  C   LIG    1       -0.077  -1.815   5.051  0.00  0.00    +0.550 C 
ATOM      3  O   LIG    1        0.196  -0.753   5.568  0.00  0.00    -0.520 OA
ATOM      4  N   LIG    1       -0.487  -2.850   5.812  0.00  0.00    -0.830 N 
ATOM      5  H   LIG    1       -0.564  -2.744   6.773  0.00  0.00    +0.420 HD
ATOM      6  H   LIG    1       -0.705  -3.700   5.398  0.00  0.00    +0.410 HD
ENDBRANCH   1   2
BRANCH   1   7
ATOM      7  C   LIG    1        1.335  -2.683   3.231  0.00  0.00    +0.530 C 
ATOM      8  O   LIG    1        1.333  -3.643   2.490  0.00  0.00    -0.480 OA
ATOM      9  N   LIG    1        2.493  -2.244   3.763  0.00  0.00    -0.840 N 
ATOM     10  H   LIG    1        3.325  -2.697   3.553  0.00  0.00    +0.410 HD
ATOM     11  H   LIG    1        2.495  -1.477   4.356  0.00  0.00    +0.410 HD
ENDBRANCH   1   7
BRANCH   1  12
ATOM     12  S   LIG    1        0.026  -0.351   2.768  0.00  0.00    +0.150 S 
BRANCH  12  18
ATOM     13  C   LIG    1       -0.018   1.461   0.010  0.00  0.00    +0.390 C 
ATOM     14  N   LIG    1        0.002  -0.004   0.002  0.00  0.00    -0.360 N 
ATOM     15  N   LIG    1        0.009  -0.852  -1.120  0.00  0.00    -0.070 NA
ATOM     16  N   LIG    1        0.027  -2.061  -0.674  0.00  0.00    -0.030 NA
ATOM     17  N   LIG    1        0.032  -2.063   0.610  0.00  0.00    -0.310 NA
ATOM     18  C   LIG    1        0.024  -0.832   1.073  0.00  0.00    +0.180 A 
ENDBRANCH  12  18
ENDBRANCH   1  12
TORSDOF 4
ENDMDL
MODEL      249
REMARK  Name = ZINC000054967568
REMARK                            x       y       z     vdW  Elec       q    Type
REMARK                         _______ _______ _______ _____ _____    ______ ____
ROOT
ATOM      1  C   LIG    1       -0.123  -0.692  -1.311  0.00  0.00    +0.010 C 
ENDROOT
BRANCH   1   3
ATOM      2  C   LIG    1        0.665  -2.595   0.292  0.00  0.00    +0.100 C 
ATOM      3  C   LIG    1        0.704  -1.926  -1.058  0.00  0.00    +0.370 C 
ATOM      4  O   LIG    1        1.397  -2.379  -1.937  0.00  0.00    -0.430 OA
ENDBRANCH   1   3
BRANCH   1   5
ATOM      5  C   LIG    1        0.572   0.179  -2.325  0.00  0.00    +0.340 C 
ATOM      6  O   LIG    1        0.343   0.036  -3.502  0.00  0.00    -0.440 OA
ATOM      7  C   LIG    1        1.553   1.229  -1.871  0.00  0.00    +0.090 C 
ENDBRANCH   1   5
BRANCH   1   8
ATOM      8  N   LIG    1       -0.287   0.053  -0.056  0.00  0.00    -0.820 NA
ATOM      9  H   LIG    1       -0.899   0.845  -0.183  0.00  0.00    +0.370 HD
ATOM     10  H   LIG    1        0.607   0.343   0.312  0.00  0.00    +0.350 HD
ENDBRANCH   1   8
BRANCH   1  11
ATOM     11  C   LIG    1       -1.498  -1.099  -1.845  0.00  0.00    +0.050 C 
BRANCH  11  12
ATOM     12  C   LIG    1       -2.264   0.133  -2.253  0.00  0.00    +0.390 C 
ATOM     13  O   LIG    1       -1.962   1.210  -1.797  0.00  0.00    -0.450 OA
ATOM     14  C   LIG    1       -3.406   0.021  -3.230  0.00  0.00    +0.100 C 
ENDBRANCH  11  12
BRANCH  11  15
ATOM     15  C   LIG    1       -2.258  -1.830  -0.769  0.00  0.00    +0.390 C 
ATOM     16  O   LIG    1       -3.002  -1.223  -0.036  0.00  0.00    -0.420 OA
ATOM     17  C   LIG    1       -2.091  -3.319  -0.607  0.00  0.00    +0.090 C 
ENDBRANCH  11  15
BRANCH  11  18
ATOM     18  N   LIG    1       -1.329  -1.979  -3.009  0.00  0.00    -0.820 NA
ATOM     19  H   LIG    1       -0.937  -2.868  -2.737  0.00  0.00    +0.350 HD
ATOM     20  H   LIG    1       -0.764  -1.537  -3.718  0.00  0.00    +0.370 HD
ENDBRANCH  11  18
ENDBRANCH   1  11
TORSDOF 7
ENDMDL
MODEL      250
REMARK  Name = ZINC000055107285
REMARK                            x       y       z     vdW  Elec       q    Type
REMARK                         _______ _______ _______ _____ _____    ______ ____
ROOT
ATOM      1  C   LIG    1       -0.042  -0.124   2.497  0.00  0.00    +0.180 C 
ENDROOT
BRANCH   1   2
ATOM      2  N   LIG    1       -1.501  -0.250   2.602  0.00  0.00    -0.500 NA
ATOM      3  C   LIG    1       -1.880  -1.575   3.116  0.00  0.00    +0.260 C 
ATOM      4  C   LIG    1       -3.382  -1.665   3.196  0.00  0.00    +0.540 C 
ATOM      5  N   LIG    1       -4.125  -0.563   3.398  0.00  0.00    -0.670 N 
ATOM      6  H   LIG    1       -5.090  -0.645   3.453  0.00  0.00    +0.410 HD
ATOM      7  C   LIG    1       -3.559   0.650   3.524  0.00  0.00    +0.540 C 
ATOM      8  O   LIG    1       -4.259   1.624   3.696  0.00  0.00    -0.500 OA
ATOM      9  O   LIG    1       -3.925  -2.742   3.078  0.00  0.00    -0.500 OA
ATOM     10  C   LIG    1       -2.063   0.810   3.453  0.00  0.00    +0.240 C 
ENDBRANCH   1   2
BRANCH   1  11
ATOM     11  C   LIG    1        0.565  -0.150   3.877  0.00  0.00    +0.490 C 
ATOM     12  O   LIG    1       -0.061  -0.615   4.805  0.00  0.00    -0.540 OA
ATOM     13  N   LIG    1        1.803   0.343   4.078  0.00  0.00    -0.850 N 
ATOM     14  H   LIG    1        2.193   0.326   4.966  0.00  0.00    +0.400 HD
ATOM     15  H   LIG    1        2.303   0.715   3.336  0.00  0.00    +0.410 HD
ENDBRANCH   1  11
BRANCH   1  16
ATOM     16  C   LIG    1        0.513  -1.288   1.674  0.00  0.00    +0.050 C 
BRANCH  16  18
ATOM     17  C   LIG    1        0.553   0.075  -0.420  0.00  0.00    +0.020 C 
ATOM     18  C   LIG    1       -0.005  -1.189   0.238  0.00  0.00    +0.000 C 
ATOM     19  C   LIG    1        0.448  -2.418  -0.553  0.00  0.00    +0.020 C 
ENDBRANCH  16  18
ENDBRANCH   1  16
TORSDOF 4
ENDMDL
MODEL      251
REMARK  Name = ZINC000257304412
REMARK                            x       y       z     vdW  Elec       q    Type
REMARK                         _______ _______ _______ _____ _____    ______ ____
ROOT
ATOM      1  C   LIG    1       -2.522  -2.758   0.011  0.00  0.00    +0.540 C 
ATOM      2  N   LIG    1       -2.645  -4.100   0.005  0.00  0.00    -0.620 N 
ATOM      3  C   LIG    1       -1.533  -5.062  -0.004  0.00  0.00    +0.240 C 
ATOM      4  C   LIG    1       -2.151  -6.476   0.020  0.00  0.00    +0.170 C 
ATOM      5  C   LIG    1       -3.563  -6.229   0.612  0.00  0.00    +0.260 C 
ATOM      6  C   LIG    1       -3.916  -4.847   0.013  0.00  0.00    +0.270 C 
ATOM      7  O   LIG    1       -3.513  -2.059   0.025  0.00  0.00    -0.530 OA
ENDROOT
BRANCH   5   8
ATOM      8  N   LIG    1       -4.508  -7.255   0.165  0.00  0.00    -0.720 N 
ATOM      9  H   LIG    1       -4.349  -7.731  -0.666  0.00  0.00    +0.400 HD
ATOM     10  C   LIG    1       -5.596  -7.539   0.907  0.00  0.00    +0.510 C 
ATOM     11  O   LIG    1       -5.794  -6.945   1.946  0.00  0.00    -0.540 OA
ATOM     12  C   LIG    1       -6.568  -8.595   0.447  0.00  0.00    +0.110 C 
ENDBRANCH   5   8
BRANCH   4  13
ATOM     13  O   LIG    1       -1.391  -7.346   0.862  0.00  0.00    -0.550 OA
ATOM     14  H   LIG    1       -0.476  -7.471   0.574  0.00  0.00    +0.390 HD
ENDBRANCH   4  13
BRANCH   1  15
ATOM     15  C   LIG    1       -1.154  -2.126   0.002  0.00  0.00    +0.070 C 
BRANCH  15  16
ATOM     16  C   LIG    1       -1.295  -0.603   0.011  0.00  0.00    +0.190 C 
BRANCH  16  18
ATOM     17  C   LIG    1       -0.017   1.425   0.010  0.00  0.00    +0.200 C 
ATOM     18  O   LIG    1        0.002  -0.004   0.002  0.00  0.00    -0.400 OA
ENDBRANCH  16  18
ENDBRANCH  15  16
ENDBRANCH   1  15
TORSDOF 5
ENDMDL
MODEL      252
REMARK  Name = ZINC000001529867
REMARK                            x       y       z     vdW  Elec       q    Type
REMARK                         _______ _______ _______ _____ _____    ______ ____
ROOT
ATOM      1  CA  ARG A  1        2.122  -0.083   1.122  0.00  0.00    +0.070 C 
ENDROOT
BRANCH   1   2
ATOM      2  N   ARG A  1        0.713  -0.491   1.192  0.00  0.00    -0.460 N 
ATOM      3  H1  ARG A  1        0.655  -1.497   1.230  0.00  0.00    +0.430 HD
ATOM      4  H2  ARG A  1        0.290  -0.099   2.020  0.00  0.00    +0.400 HD
BRANCH   2   6
ATOM      5  CB  ARG A  1       -0.019   1.526   0.010  0.00  0.00    +0.080 C 
ATOM      6  CA  ARG A  1        0.002  -0.004   0.002  0.00  0.00    +0.090 C 
BRANCH   6   7
ATOM      7  C   ARG A  1       -1.412  -0.526   0.013  0.00  0.00    +0.500 C 
ATOM      8  OXT ARG A  1       -1.849  -1.081   1.006  0.00  0.00    -0.690 OA
ATOM      9  O   ARG A  1       -2.118  -0.393  -0.972  0.00  0.00    -0.640 OA
ENDBRANCH   6   7
ENDBRANCH   2   6
ENDBRANCH   1   2
BRANCH   1  10
ATOM     10  C   ARG A  1        2.785  -0.766  -0.046  0.00  0.00    +0.490 C 
ATOM     11  OXT ARG A  1        2.398  -1.863  -0.410  0.00  0.00    -0.660 OA
ATOM     12  O   ARG A  1        3.709  -0.222  -0.626  0.00  0.00    -0.650 OA
ENDBRANCH   1  10
BRANCH   1  13
ATOM     13  CB  ARG A  1        2.833  -0.480   2.417  0.00  0.00    +0.080 C 
BRANCH  13  14
ATOM     14  CG  ARG A  1        2.241   0.308   3.587  0.00  0.00    +0.020 C 
BRANCH  14  15
ATOM     15  CD  ARG A  1        2.952  -0.089   4.882  0.00  0.00    +0.290 C 
BRANCH  15  16
ATOM     16  NE  ARG A  1        2.385   0.666   6.002  0.00  0.00    -0.690 N 
ATOM     17  HE  ARG A  1        1.669   1.300   5.846  0.00  0.00    +0.440 HD
ATOM     18  CZ  ARG A  1        2.867   0.476   7.268  0.00  0.00    +0.740 C 
BRANCH  18  19
ATOM     19  NH2 ARG A  1        2.351   1.163   8.287  0.00  0.00    -0.800 N 
ATOM     20 HH21 ARG A  1        2.693   1.028   9.184  0.00  0.00    +0.440 HD
ATOM     21 HH22 ARG A  1        1.635   1.797   8.130  0.00  0.00    +0.440 HD
ENDBRANCH  18  19
BRANCH  18  22
ATOM     22  NH1 ARG A  1        3.851  -0.395   7.483  0.00  0.00    -0.790 N 
ATOM     23 HH11 ARG A  1        4.192  -0.530   8.381  0.00  0.00    +0.440 HD
ATOM     24 HH12 ARG A  1        4.226  -0.895   6.741  0.00  0.00    +0.440 HD
ENDBRANCH  18  22
ENDBRANCH  15  16
ENDBRANCH  14  15
ENDBRANCH  13  14
ENDBRANCH   1  13
TORSDOF 10
ENDMDL
MODEL      253
REMARK  Name = ZINC000005762781
REMARK                            x       y       z     vdW  Elec       q    Type
REMARK                         _______ _______ _______ _____ _____    ______ ____
ROOT
ATOM      1  C   LIG    1        0.847  -0.424  -1.486  0.00  0.00    -0.370 A 
ATOM      2  N   LIG    1        0.296  -0.611  -2.654  0.00  0.00    -0.150 NA
ATOM      3  N   LIG    1        1.290  -0.928  -3.588  0.00  0.00    -0.440 N 
ATOM      4  H   LIG    1        1.145  -1.114  -4.529  0.00  0.00    +0.450 HD
ATOM      5  C   LIG    1        2.479  -0.932  -2.961  0.00  0.00    +0.370 A 
ATOM      6  N   LIG    1        3.775  -1.171  -3.363  0.00  0.00    -0.620 N 
ATOM      7  H   LIG    1        3.955  -1.395  -4.290  0.00  0.00    +0.440 HD
ATOM      8  C   LIG    1        4.792  -1.105  -2.487  0.00  0.00    +0.720 A 
ATOM      9  O   LIG    1        5.920  -1.327  -2.882  0.00  0.00    -0.520 OA
ATOM     10  N   LIG    1        4.610  -0.800  -1.192  0.00  0.00    -0.650 N 
ATOM     11  H   LIG    1        5.376  -0.761  -0.597  0.00  0.00    +0.440 HD
ATOM     12  C   LIG    1        3.376  -0.546  -0.705  0.00  0.00    +0.580 A 
ATOM     13  O   LIG    1        3.214  -0.270   0.469  0.00  0.00    -0.450 OA
ATOM     14  C   LIG    1        2.236  -0.611  -1.625  0.00  0.00    -0.270 A 
ENDROOT
BRANCH   1  16
ATOM     15  C   LIG    1       -0.022   1.810   0.012  0.00  0.00    -0.230 C 
ATOM     16  S   LIG    1        0.002  -0.004   0.002  0.00  0.00    +2.510 S 
ATOM     17  O   LIG    1       -1.309  -0.519  -0.182  0.00  0.00    -0.910 OA
ATOM     18  O   LIG    1        0.845  -0.497   1.035  0.00  0.00    -0.880 OA
ENDBRANCH   1  16
TORSDOF 1
ENDMDL
MODEL      254
REMARK  Name = ZINC000005811568
REMARK                            x       y       z     vdW  Elec       q    Type
REMARK                         _______ _______ _______ _____ _____    ______ ____
ROOT
ATOM      1  C1* LIG    1       -0.250  -3.059  -0.007  0.00  0.00    +0.450 C 
ATOM      2  O4* LIG    1       -0.559  -4.136   0.904  0.00  0.00    -0.330 OA
ATOM      3  C4* LIG    1        0.251  -5.249   0.466  0.00  0.00    +0.150 C 
ATOM      4  C3* LIG    1        0.182  -5.204  -1.077  0.00  0.00    +0.150 C 
ATOM      5  C2* LIG    1       -0.153  -3.728  -1.396  0.00  0.00    +0.170 C 
ENDROOT
BRANCH   1  10
ATOM      6  C   LIG    1       -1.187  -0.712   0.010  0.00  0.00    +0.510 A 
ATOM      7  N   LIG    1       -2.399  -0.203   0.018  0.00  0.00    -0.370 NA
ATOM      8  N   LIG    1       -3.280  -1.138   0.023  0.00  0.00    -0.010 NA
ATOM      9  N   LIG    1       -2.707  -2.293   0.018  0.00  0.00    -0.070 NA
ATOM     10  N   LIG    1       -1.320  -2.059   0.004  0.00  0.00    -0.420 N 
BRANCH   6  12
ATOM     11  C   LIG    1       -0.018   1.461   0.010  0.00  0.00    +0.330 C 
ATOM     12  N   LIG    1        0.002  -0.004   0.002  0.00  0.00    -0.700 N 
ATOM     13  H   LIG    1        0.849  -0.478  -0.009  0.00  0.00    +0.420 HD
ENDBRANCH   6  12
ENDBRANCH   1  10
BRANCH   4  14
ATOM     14  O3* LIG    1       -0.847  -6.071  -1.557  0.00  0.00    -0.550 OA
ATOM     15  H3* LIG    1       -0.714  -7.002  -1.332  0.00  0.00    +0.390 HD
ENDBRANCH   4  14
BRANCH   5  16
ATOM     16  O2* LIG    1        0.889  -3.135  -2.173  0.00  0.00    -0.550 OA
ATOM     17  H2* LIG    1        1.030  -3.558  -3.031  0.00  0.00    +0.400 HD
ENDBRANCH   5  16
BRANCH   3  18
ATOM     18  C5* LIG    1       -0.325  -6.566   0.990  0.00  0.00    +0.220 C 
BRANCH  18  19
ATOM     19  O5* LIG    1       -0.211  -6.603   2.413  0.00  0.00    -0.560 OA
ATOM     20  H5* LIG    1       -0.557  -7.412   2.815  0.00  0.00    +0.390 HD
ENDBRANCH  18  19
ENDBRANCH   3  18
TORSDOF 6
ENDMDL
MODEL      255
REMARK  Name = ZINC000001763045
REMARK                            x       y       z     vdW  Elec       q    Type
REMARK                         _______ _______ _______ _____ _____    ______ ____
ROOT
ATOM      1  C   LIG    1       -1.433  -0.534   0.013  0.00  0.00    +0.200 C 
ATOM      2  O   LIG    1       -2.066  -0.172   1.242  0.00  0.00    -0.360 OA
ATOM      3  C   LIG    1       -3.426  -0.597   1.346  0.00  0.00    +0.390 C 
ATOM      4  C   LIG    1       -3.488  -2.125   1.266  0.00  0.00    +0.030 C 
ATOM      5  C   LIG    1       -2.852  -2.586  -0.048  0.00  0.00    +0.160 C 
ATOM      6 CL   LIG    1       -5.209  -2.661   1.326  0.00  0.00    -0.110 Cl
ATOM      7 CL   LIG    1       -2.586  -2.838   2.655  0.00  0.00    -0.080 Cl
ATOM      8  C   LIG    1       -1.416  -2.059  -0.121  0.00  0.00    +0.180 C 
ENDROOT
BRANCH   5   9
ATOM      9  O   LIG    1       -3.607  -2.076  -1.149  0.00  0.00    -0.520 OA
ATOM     10  H   LIG    1       -4.529  -2.366  -1.162  0.00  0.00    +0.390 HD
ENDBRANCH   5   9
BRANCH   3  11
ATOM     11  O   LIG    1       -4.185  -0.032   0.276  0.00  0.00    -0.550 OA
ATOM     12  H   LIG    1       -4.189   0.934   0.264  0.00  0.00    +0.400 HD
ENDBRANCH   3  11
BRANCH   8  13
ATOM     13  O   LIG    1       -0.646  -2.623   0.942  0.00  0.00    -0.530 OA
ATOM     14  H   LIG    1       -0.596  -3.589   0.922  0.00  0.00    +0.380 HD
ENDBRANCH   8  13
BRANCH   1  15
ATOM     15  C   LIG    1        0.002  -0.004   0.002  0.00  0.00    +0.220 C 
BRANCH  15  16
ATOM     16  O   LIG    1       -0.017   1.425   0.010  0.00  0.00    -0.570 OA
ATOM     17  H   LIG    1        0.861   1.830   0.004  0.00  0.00    +0.380 HD
ENDBRANCH  15  16
ENDBRANCH   1  15
TORSDOF 5
ENDMDL
MODEL      256
REMARK  Name = ZINC000018128485
REMARK                            x       y       z     vdW  Elec       q    Type
REMARK                         _______ _______ _______ _____ _____    ______ ____
ROOT
ATOM      1  C   LIG    1       -1.433  -0.534   0.013  0.00  0.00    +0.150 C 
ATOM      2  O   LIG    1       -2.095  -0.246  -1.243  0.00  0.00    -0.360 OA
ATOM      3  C   LIG    1       -3.114  -1.267  -1.321  0.00  0.00    +0.390 C 
ATOM      4  O   LIG    1       -2.512  -2.472  -0.819  0.00  0.00    -0.370 OA
ATOM      5  C   LIG    1       -1.446  -2.077   0.069  0.00  0.00    +0.170 C 
ENDROOT
BRANCH   5   6
ATOM      6  C   LIG    1       -0.110  -2.637  -0.423  0.00  0.00    +0.140 C 
ATOM      7  O   LIG    1        0.958  -2.293   0.492  0.00  0.00    -0.370 OA
ATOM      8  C   LIG    1        1.937  -3.329   0.262  0.00  0.00    +0.390 C 
ATOM      9  O   LIG    1        1.196  -4.547   0.083  0.00  0.00    -0.370 OA
ATOM     10  C   LIG    1       -0.117  -4.181  -0.387  0.00  0.00    +0.180 C 
BRANCH  10  11
ATOM     11  C   LIG    1       -1.188  -4.683   0.584  0.00  0.00    +0.200 C 
BRANCH  11  12
ATOM     12  O   LIG    1       -1.210  -6.112   0.571  0.00  0.00    -0.560 OA
ATOM     13  H   LIG    1       -1.866  -6.501   1.165  0.00  0.00    +0.380 HD
ENDBRANCH  11  12
ENDBRANCH  10  11
ENDBRANCH   5   6
BRANCH   1  14
ATOM     14  C   LIG    1        0.002  -0.004   0.002  0.00  0.00    +0.230 C 
BRANCH  14  15
ATOM     15  O   LIG    1       -0.017   1.425   0.010  0.00  0.00    -0.570 OA
ATOM     16  H   LIG    1        0.861   1.830   0.004  0.00  0.00    +0.390 HD
ENDBRANCH  14  15
ENDBRANCH   1  14
TORSDOF 5
ENDMDL
MODEL      257
REMARK  Name = ZINC000005352951
REMARK                            x       y       z     vdW  Elec       q    Type
REMARK                         _______ _______ _______ _____ _____    ______ ____
ROOT
ATOM      1  C   LIG    1       -1.433  -0.534   0.013  0.00  0.00    +0.200 C 
ATOM      2  O   LIG    1       -2.066  -0.172   1.242  0.00  0.00    -0.360 OA
ATOM      3  C   LIG    1       -3.426  -0.597   1.346  0.00  0.00    +0.390 C 
ATOM      4  C   LIG    1       -3.488  -2.125   1.266  0.00  0.00    +0.030 C 
ATOM      5  C   LIG    1       -2.852  -2.586  -0.048  0.00  0.00    +0.170 C 
ATOM      6 CL   LIG    1       -5.209  -2.661   1.326  0.00  0.00    -0.100 Cl
ATOM      7 CL   LIG    1       -2.586  -2.838   2.655  0.00  0.00    -0.100 Cl
ATOM      8  C   LIG    1       -1.416  -2.059  -0.121  0.00  0.00    +0.180 C 
ENDROOT
BRANCH   5   9
ATOM      9  O   LIG    1       -3.607  -2.076  -1.149  0.00  0.00    -0.510 OA
ATOM     10  H   LIG    1       -4.529  -2.366  -1.162  0.00  0.00    +0.380 HD
ENDBRANCH   5   9
BRANCH   3  11
ATOM     11  O   LIG    1       -4.185  -0.032   0.276  0.00  0.00    -0.550 OA
ATOM     12  H   LIG    1       -4.189   0.934   0.264  0.00  0.00    +0.400 HD
ENDBRANCH   3  11
BRANCH   8  13
ATOM     13  O   LIG    1       -0.836  -2.423  -1.375  0.00  0.00    -0.540 OA
ATOM     14  H   LIG    1       -0.797  -3.377  -1.528  0.00  0.00    +0.390 HD
ENDBRANCH   8  13
BRANCH   1  15
ATOM     15  C   LIG    1        0.002  -0.004   0.002  0.00  0.00    +0.210 C 
BRANCH  15  16
ATOM     16  O   LIG    1       -0.017   1.425   0.010  0.00  0.00    -0.570 OA
ATOM     17  H   LIG    1        0.861   1.830   0.004  0.00  0.00    +0.380 HD
ENDBRANCH  15  16
ENDBRANCH   1  15
TORSDOF 5
ENDMDL
MODEL      258
REMARK  Name = ZINC000001576796
REMARK                            x       y       z     vdW  Elec       q    Type
REMARK                         _______ _______ _______ _____ _____    ______ ____
ROOT
ATOM      1  C   LIG    1       -1.433  -0.534   0.013  0.00  0.00    +0.120 C 
ATOM      2  O   LIG    1       -2.067  -0.175   1.245  0.00  0.00    -0.370 OA
ATOM      3  C   LIG    1       -3.403  -0.669   1.369  0.00  0.00    +0.400 C 
ATOM      4  O   LIG    1       -3.393  -2.095   1.274  0.00  0.00    -0.370 OA
ATOM      5  C   LIG    1       -2.847  -2.589   0.048  0.00  0.00    +0.170 C 
ATOM      6  C   LIG    1       -3.708  -2.104  -1.123  0.00  0.00    +0.130 C 
ATOM      7  O   LIG    1       -3.072  -2.469  -2.352  0.00  0.00    -0.370 OA
ATOM      8  C   LIG    1       -1.750  -1.944  -2.494  0.00  0.00    +0.400 C 
ATOM      9  O   LIG    1       -0.935  -2.410  -1.416  0.00  0.00    -0.370 OA
ATOM     10  C   LIG    1       -1.417  -2.060  -0.117  0.00  0.00    +0.170 C 
ENDROOT
BRANCH   1  11
ATOM     11  C   LIG    1        0.002  -0.004   0.002  0.00  0.00    +0.220 C 
BRANCH  11  12
ATOM     12  O   LIG    1       -0.017   1.425   0.010  0.00  0.00    -0.570 OA
ATOM     13  H   LIG    1        0.861   1.830   0.004  0.00  0.00    +0.390 HD
ENDBRANCH  11  12
ENDBRANCH   1  11
BRANCH   6  14
ATOM     14  C   LIG    1       -5.090  -2.755  -1.046  0.00  0.00    +0.220 C 
BRANCH  14  15
ATOM     15  O   LIG    1       -5.929  -2.214  -2.069  0.00  0.00    -0.570 OA
ATOM     16  H   LIG    1       -6.823  -2.582  -2.080  0.00  0.00    +0.390 HD
ENDBRANCH  14  15
ENDBRANCH   6  14
TORSDOF 4
ENDMDL
MODEL      259
REMARK  Name = ZINC000018154674
REMARK                            x       y       z     vdW  Elec       q    Type
REMARK                         _______ _______ _______ _____ _____    ______ ____
ROOT
ATOM      1  C   LIG    1       -1.433  -0.534   0.013  0.00  0.00    +0.190 C 
ATOM      2  O   LIG    1       -2.090  -0.162  -1.203  0.00  0.00    -0.370 OA
ATOM      3  C   LIG    1       -3.428  -0.654  -1.307  0.00  0.00    +0.410 C 
ATOM      4  O   LIG    1       -3.417  -2.081  -1.226  0.00  0.00    -0.370 OA
ATOM      5  C   LIG    1       -2.848  -2.589  -0.016  0.00  0.00    +0.120 C 
ATOM      6  C   LIG    1       -2.827  -4.120  -0.070  0.00  0.00    +0.230 C 
ATOM      7  O   LIG    1       -1.945  -4.537  -1.117  0.00  0.00    -0.360 OA
ATOM      8  C   LIG    1       -0.607  -4.056  -0.967  0.00  0.00    +0.410 C 
ATOM      9  O   LIG    1       -0.617  -2.627  -0.938  0.00  0.00    -0.370 OA
ATOM     10  C   LIG    1       -1.415  -2.061   0.126  0.00  0.00    +0.120 C 
ENDROOT
BRANCH   1  11
ATOM     11  C   LIG    1        0.002  -0.004   0.002  0.00  0.00    +0.220 C 
BRANCH  11  12
ATOM     12  O   LIG    1       -0.017   1.425   0.010  0.00  0.00    -0.570 OA
ATOM     13  H   LIG    1        0.861   1.830   0.004  0.00  0.00    +0.380 HD
ENDBRANCH  11  12
ENDBRANCH   1  11
BRANCH   6  14
ATOM     14  C   LIG    1       -2.333  -4.672   1.269  0.00  0.00    +0.160 C 
BRANCH  14  15
ATOM     15  O   LIG    1       -2.424  -6.098   1.258  0.00  0.00    -0.560 OA
ATOM     16  H   LIG    1       -2.126  -6.517   2.078  0.00  0.00    +0.390 HD
ENDBRANCH  14  15
ENDBRANCH   6  14
TORSDOF 4
ENDMDL
MODEL      260
REMARK  Name = ZINC000005047666
REMARK                            x       y       z     vdW  Elec       q    Type
REMARK                         _______ _______ _______ _____ _____    ______ ____
ROOT
ATOM      1  C   LIG    1       -1.443  -0.522  -0.121  0.00  0.00    +0.150 C 
ATOM      2  O   LIG    1       -1.999  -0.221   1.175  0.00  0.00    -0.360 OA
ATOM      3  C   LIG    1       -2.786  -1.384   1.513  0.00  0.00    +0.380 C 
ATOM      4  O   LIG    1       -2.001  -2.503   1.049  0.00  0.00    -0.360 OA
ATOM      5  C   LIG    1       -1.444  -2.061  -0.209  0.00  0.00    +0.170 C 
ENDROOT
BRANCH   5   6
ATOM      6  C   LIG    1       -0.017  -2.588  -0.374  0.00  0.00    +0.160 C 
ATOM      7  O   LIG    1        0.768  -2.320   0.813  0.00  0.00    -0.360 OA
ATOM      8  C   LIG    1        1.789  -3.340   0.771  0.00  0.00    +0.390 C 
ATOM      9  O   LIG    1        1.140  -4.538   0.311  0.00  0.00    -0.370 OA
ATOM     10  C   LIG    1       -0.010  -4.130  -0.457  0.00  0.00    +0.160 C 
BRANCH  10  11
ATOM     11  C   LIG    1       -1.290  -4.701   0.157  0.00  0.00    +0.200 C 
BRANCH  11  12
ATOM     12  O   LIG    1       -1.285  -6.124   0.031  0.00  0.00    -0.570 OA
ATOM     13  H   LIG    1       -2.068  -6.554   0.401  0.00  0.00    +0.380 HD
ENDBRANCH  11  12
ENDBRANCH  10  11
ENDBRANCH   5   6
BRANCH   1  14
ATOM     14  C   LIG    1       -0.014   0.015  -0.225  0.00  0.00    +0.210 C 
BRANCH  14  15
ATOM     15  O   LIG    1       -0.045   1.443  -0.270  0.00  0.00    -0.570 OA
ATOM     16  H   LIG    1        0.829   1.853  -0.336  0.00  0.00    +0.380 HD
ENDBRANCH  14  15
ENDBRANCH   1  14
TORSDOF 5
ENDMDL
MODEL      261
REMARK  Name = ZINC000005047662
REMARK                            x       y       z     vdW  Elec       q    Type
REMARK                         _______ _______ _______ _____ _____    ______ ____
ROOT
ATOM      1  C   LIG    1       -1.433  -0.534   0.013  0.00  0.00    +0.160 C 
ATOM      2  O   LIG    1       -2.068  -0.236   1.274  0.00  0.00    -0.360 OA
ATOM      3  C   LIG    1       -2.881  -1.396   1.555  0.00  0.00    +0.390 C 
ATOM      4  O   LIG    1       -2.075  -2.518   1.135  0.00  0.00    -0.360 OA
ATOM      5  C   LIG    1       -1.438  -2.072  -0.084  0.00  0.00    +0.180 C 
ENDROOT
BRANCH   5   6
ATOM      6  C   LIG    1       -2.241  -2.532  -1.303  0.00  0.00    +0.140 C 
ATOM      7  O   LIG    1       -1.580  -2.138  -2.530  0.00  0.00    -0.370 OA
ATOM      8  C   LIG    1       -2.064  -3.102  -3.490  0.00  0.00    +0.390 C 
ATOM      9  O   LIG    1       -2.115  -4.363  -2.800  0.00  0.00    -0.370 OA
ATOM     10  C   LIG    1       -2.260  -4.073  -1.395  0.00  0.00    +0.180 C 
BRANCH  10  11
ATOM     11  C   LIG    1       -1.090  -4.667  -0.607  0.00  0.00    +0.190 C 
BRANCH  11  12
ATOM     12  O   LIG    1       -1.150  -6.093  -0.667  0.00  0.00    -0.560 OA
ATOM     13  H   LIG    1       -0.437  -6.537  -0.188  0.00  0.00    +0.380 HD
ENDBRANCH  11  12
ENDBRANCH  10  11
ENDBRANCH   5   6
BRANCH   1  14
ATOM     14  C   LIG    1        0.002  -0.004   0.002  0.00  0.00    +0.210 C 
BRANCH  14  15
ATOM     15  O   LIG    1       -0.017   1.425   0.010  0.00  0.00    -0.560 OA
ATOM     16  H   LIG    1        0.861   1.830   0.004  0.00  0.00    +0.390 HD
ENDBRANCH  14  15
ENDBRANCH   1  14
TORSDOF 5
ENDMDL
MODEL      262
REMARK  Name = ZINC000004353296
REMARK                            x       y       z     vdW  Elec       q    Type
REMARK                         _______ _______ _______ _____ _____    ______ ____
ROOT
ATOM      1  C   LIG    1       -1.433  -0.534   0.013  0.00  0.00    +0.230 C 
ATOM      2  O   LIG    1       -2.068  -0.186   1.251  0.00  0.00    -0.370 OA
ATOM      3  C   LIG    1       -1.465  -0.760   2.410  0.00  0.00    +0.400 C 
ATOM      4  O   LIG    1       -1.421  -2.187   2.296  0.00  0.00    -0.380 OA
ATOM      5  C   LIG    1       -0.716  -2.627   1.137  0.00  0.00    +0.110 C 
ATOM      6  C   LIG    1       -0.705  -4.151   1.021  0.00  0.00    +0.180 C 
ATOM      7  O   LIG    1       -0.072  -4.499  -0.217  0.00  0.00    -0.370 OA
ATOM      8  C   LIG    1       -0.675  -3.925  -1.378  0.00  0.00    +0.420 C 
ATOM      9  O   LIG    1       -0.717  -2.497  -1.263  0.00  0.00    -0.380 OA
ATOM     10  C   LIG    1       -1.422  -2.057  -0.104  0.00  0.00    +0.120 C 
ENDROOT
BRANCH   1  11
ATOM     11  C   LIG    1        0.002  -0.004   0.002  0.00  0.00    +0.170 C 
BRANCH  11  12
ATOM     12  O   LIG    1       -0.017   1.425   0.010  0.00  0.00    -0.560 OA
ATOM     13  H   LIG    1        0.861   1.830   0.004  0.00  0.00    +0.380 HD
ENDBRANCH  11  12
ENDBRANCH   1  11
BRANCH   6  14
ATOM     14  C   LIG    1        0.077  -4.754   2.189  0.00  0.00    +0.220 C 
BRANCH  14  15
ATOM     15  O   LIG    1        0.011  -6.180   2.121  0.00  0.00    -0.570 OA
ATOM     16  H   LIG    1        0.486  -6.630   2.833  0.00  0.00    +0.380 HD
ENDBRANCH  14  15
ENDBRANCH   6  14
TORSDOF 4
ENDMDL
MODEL      263
REMARK  Name = ZINC000018087233
REMARK                            x       y       z     vdW  Elec       q    Type
REMARK                         _______ _______ _______ _____ _____    ______ ____
ROOT
ATOM      1  C   LIG    1       -1.433  -0.534   0.013  0.00  0.00    +0.180 C 
ATOM      2  O   LIG    1       -2.092  -0.173  -1.209  0.00  0.00    -0.370 OA
ATOM      3  C   LIG    1       -3.419  -0.683  -1.342  0.00  0.00    +0.410 C 
ATOM      4  O   LIG    1       -3.420  -2.110  -1.218  0.00  0.00    -0.380 OA
ATOM      5  C   LIG    1       -2.870  -2.558   0.020  0.00  0.00    +0.120 C 
ATOM      6  C   LIG    1       -2.857  -4.082   0.119  0.00  0.00    +0.180 C 
ATOM      7  O   LIG    1       -2.198  -4.444   1.339  0.00  0.00    -0.370 OA
ATOM      8  C   LIG    1       -0.871  -3.934   1.474  0.00  0.00    +0.410 C 
ATOM      9  O   LIG    1       -0.871  -2.506   1.351  0.00  0.00    -0.380 OA
ATOM     10  C   LIG    1       -1.420  -2.058   0.113  0.00  0.00    +0.120 C 
ENDROOT
BRANCH   1  11
ATOM     11  C   LIG    1        0.002  -0.004   0.002  0.00  0.00    +0.220 C 
BRANCH  11  12
ATOM     12  O   LIG    1       -0.017   1.425   0.010  0.00  0.00    -0.570 OA
ATOM     13  H   LIG    1        0.861   1.830   0.004  0.00  0.00    +0.390 HD
ENDBRANCH  11  12
ENDBRANCH   1  11
BRANCH   6  14
ATOM     14  C   LIG    1       -4.292  -4.614   0.129  0.00  0.00    +0.220 C 
BRANCH  14  15
ATOM     15  O   LIG    1       -4.270  -6.043   0.135  0.00  0.00    -0.570 OA
ATOM     16  H   LIG    1       -5.147  -6.449   0.141  0.00  0.00    +0.380 HD
ENDBRANCH  14  15
ENDBRANCH   6  14
TORSDOF 4
ENDMDL
MODEL      264
REMARK  Name = ZINC000256014191
REMARK                            x       y       z     vdW  Elec       q    Type
REMARK                         _______ _______ _______ _____ _____    ______ ____
ROOT
ATOM      1  N   LIG    1       -2.630  -2.054   1.350  0.00  0.00    -0.520 N 
ATOM      2  C   LIG    1       -3.691  -1.247   1.056  0.00  0.00    +0.370 A 
ATOM      3  C   LIG    1       -4.913  -1.553   1.554  0.00  0.00    -0.090 A 
ATOM      4  C   LIG    1       -5.053  -2.702   2.362  0.00  0.00    +0.490 A 
ATOM      5  N   LIG    1       -3.993  -3.456   2.620  0.00  0.00    -0.590 NA
ATOM      6  F   LIG    1       -5.981  -0.773   1.279  0.00  0.00    -0.120 F 
ATOM      7  C   LIG    1       -2.799  -3.144   2.119  0.00  0.00    +0.650 A 
ATOM      8  O   LIG    1       -1.839  -3.855   2.371  0.00  0.00    -0.490 OA
ENDROOT
BRANCH   1  12
ATOM      9  C   LIG    1       -0.019   1.526   0.010  0.00  0.00    +0.060 C 
ATOM     10  C   LIG    1        0.002  -0.004   0.002  0.00  0.00    +0.140 C 
ATOM     11  O   LIG    1       -1.342  -0.511   0.052  0.00  0.00    -0.370 OA
ATOM     12  C   LIG    1       -1.302  -1.734   0.819  0.00  0.00    +0.430 C 
ATOM     13  C   LIG    1       -0.315  -1.409   1.968  0.00  0.00    +0.160 C 
ATOM     14  C   LIG    1        0.739  -0.525   1.251  0.00  0.00    +0.130 C 
BRANCH  13  15
ATOM     15  O   LIG    1        0.284  -2.602   2.479  0.00  0.00    -0.510 OA
ATOM     16  H   LIG    1        0.909  -2.450   3.201  0.00  0.00    +0.380 HD
ENDBRANCH  13  15
BRANCH  14  17
ATOM     17  O   LIG    1        1.877  -1.306   0.880  0.00  0.00    -0.540 OA
ATOM     18  H   LIG    1        2.568  -0.803   0.427  0.00  0.00    +0.380 HD
ENDBRANCH  14  17
ENDBRANCH   1  12
BRANCH   4  19
ATOM     19  N   LIG    1       -6.283  -3.037   2.880  0.00  0.00    -0.810 N 
ATOM     20  H   LIG    1       -6.377  -3.827   3.436  0.00  0.00    +0.420 HD
ATOM     21  H   LIG    1       -7.057  -2.484   2.690  0.00  0.00    +0.420 HD
ENDBRANCH   4  19
TORSDOF 4
ENDMDL
MODEL      265
REMARK  Name = ZINC000005047663
REMARK                            x       y       z     vdW  Elec       q    Type
REMARK                         _______ _______ _______ _____ _____    ______ ____
ROOT
ATOM      1  C   LIG    1       -1.433  -0.534   0.013  0.00  0.00    +0.180 C 
ATOM      2  O   LIG    1       -2.092  -0.223  -1.233  0.00  0.00    -0.360 OA
ATOM      3  C   LIG    1       -1.923  -1.408  -2.040  0.00  0.00    +0.370 C 
ATOM      4  O   LIG    1       -2.096  -2.506  -1.118  0.00  0.00    -0.360 OA
ATOM      5  C   LIG    1       -1.436  -2.073   0.093  0.00  0.00    +0.170 C 
ENDROOT
BRANCH   5   6
ATOM      6  C   LIG    1       -2.216  -2.546   1.322  0.00  0.00    +0.160 C 
ATOM      7  O   LIG    1       -3.562  -2.011   1.312  0.00  0.00    -0.360 OA
ATOM      8  C   LIG    1       -4.302  -2.964   2.104  0.00  0.00    +0.390 C 
ATOM      9  O   LIG    1       -3.793  -4.261   1.750  0.00  0.00    -0.370 OA
ATOM     10  C   LIG    1       -2.447  -4.072   1.269  0.00  0.00    +0.160 C 
BRANCH  10  11
ATOM     11  C   LIG    1       -2.320  -4.578  -0.169  0.00  0.00    +0.210 C 
BRANCH  11  12
ATOM     12  O   LIG    1       -2.492  -5.997  -0.192  0.00  0.00    -0.570 OA
ATOM     13  H   LIG    1       -2.424  -6.387  -1.074  0.00  0.00    +0.380 HD
ENDBRANCH  11  12
ENDBRANCH  10  11
ENDBRANCH   5   6
BRANCH   1  14
ATOM     14  C   LIG    1        0.002  -0.004   0.002  0.00  0.00    +0.170 C 
BRANCH  14  15
ATOM     15  O   LIG    1       -0.017   1.425   0.010  0.00  0.00    -0.560 OA
ATOM     16  H   LIG    1        0.861   1.830   0.004  0.00  0.00    +0.380 HD
ENDBRANCH  14  15
ENDBRANCH   1  14
TORSDOF 5
ENDMDL
MODEL      266
REMARK  Name = ZINC000258830401
REMARK                            x       y       z     vdW  Elec       q    Type
REMARK                         _______ _______ _______ _____ _____    ______ ____
ROOT
ATOM      1  C   LIG    1       -0.019   1.526   0.010  0.00  0.00    +0.070 C 
ATOM      2  C   LIG    1        0.002  -0.004   0.002  0.00  0.00    +0.130 C 
ATOM      3  O   LIG    1       -1.339  -0.499   0.013  0.00  0.00    -0.380 OA
ATOM      4  C   LIG    1       -1.435  -1.924  -0.020  0.00  0.00    +0.330 C 
ATOM      5  C   LIG    1       -0.753  -2.509   1.220  0.00  0.00    +0.160 C 
ATOM      6  C   LIG    1        0.706  -2.043   1.258  0.00  0.00    +0.210 C 
ATOM      7  C   LIG    1        0.742  -0.511   1.242  0.00  0.00    +0.170 C 
ENDROOT
BRANCH   6   8
ATOM      8  O   LIG    1        1.331  -2.525   2.449  0.00  0.00    -0.550 OA
ATOM      9  H   LIG    1        1.338  -3.489   2.527  0.00  0.00    +0.390 HD
ENDBRANCH   6   8
BRANCH   5  10
ATOM     10  O   LIG    1       -0.798  -3.936   1.161  0.00  0.00    -0.550 OA
ATOM     11  H   LIG    1       -1.693  -4.300   1.130  0.00  0.00    +0.390 HD
ENDBRANCH   5  10
BRANCH   7  12
ATOM     12  O   LIG    1        0.106  -0.007   2.419  0.00  0.00    -0.540 OA
ATOM     13  H   LIG    1        0.093   0.959   2.475  0.00  0.00    +0.380 HD
ENDBRANCH   7  12
BRANCH   4  14
ATOM     14  O   LIG    1       -0.790  -2.418  -1.196  0.00  0.00    -0.380 OA
BRANCH  14  15
ATOM     15  C   LIG    1       -1.421  -2.021  -2.415  0.00  0.00    +0.160 C 
BRANCH  15  16
ATOM     16  C   LIG    1       -0.651  -2.604  -3.602  0.00  0.00    +0.240 C 
ATOM     17  F   LIG    1       -0.742  -4.000  -3.576  0.00  0.00    -0.210 F 
ENDBRANCH  15  16
ENDBRANCH  14  15
ENDBRANCH   4  14
TORSDOF 6
ENDMDL
MODEL      267
REMARK  Name = ZINC000005411565
REMARK                            x       y       z     vdW  Elec       q    Type
REMARK                         _______ _______ _______ _____ _____    ______ ____
ROOT
ATOM      1  C   LIG    1       -1.433  -0.534   0.013  0.00  0.00    +0.200 C 
ATOM      2  O   LIG    1       -2.031  -0.238   1.290  0.00  0.00    -0.330 OA
ATOM      3  C   LIG    1       -1.369  -0.918   2.322  0.00  0.00    +0.340 C 
ATOM      4  N   LIG    1       -1.717  -0.764   3.715  0.00  0.00    -0.650 N 
ATOM      5  H   LIG    1       -1.974   0.060   4.158  0.00  0.00    +0.450 HD
ATOM      6  C   LIG    1       -1.618  -1.995   4.286  0.00  0.00    +0.490 C 
ATOM      7  O   LIG    1       -1.200  -2.941   3.396  0.00  0.00    -0.250 OA
ATOM      8  S   LIG    1       -1.976  -2.319   5.928  0.00  0.00    -0.450 S 
ATOM      9  C   LIG    1       -1.624  -2.439   2.118  0.00  0.00    +0.140 C 
ATOM     10  C   LIG    1       -0.824  -2.813   0.884  0.00  0.00    +0.210 C 
ATOM     11  C   LIG    1       -1.411  -2.031  -0.278  0.00  0.00    +0.140 C 
ENDROOT
BRANCH  10  12
ATOM     12  O   LIG    1       -0.936  -4.215   0.631  0.00  0.00    -0.540 OA
ATOM     13  H   LIG    1       -0.445  -4.514  -0.146  0.00  0.00    +0.400 HD
ENDBRANCH  10  12
BRANCH  11  14
ATOM     14  O   LIG    1       -0.621  -2.266  -1.445  0.00  0.00    -0.550 OA
ATOM     15  H   LIG    1       -0.933  -1.800  -2.232  0.00  0.00    +0.400 HD
ENDBRANCH  11  14
BRANCH   1  16
ATOM     16  C   LIG    1        0.002  -0.004   0.002  0.00  0.00    +0.170 C 
BRANCH  16  17
ATOM     17  O   LIG    1       -0.012   1.413   0.184  0.00  0.00    -0.560 OA
ATOM     18  H   LIG    1        0.867   1.818   0.187  0.00  0.00    +0.390 HD
ENDBRANCH  16  17
ENDBRANCH   1  16
TORSDOF 4
ENDMDL
MODEL      268
REMARK  Name = ZINC000001648246
REMARK                            x       y       z     vdW  Elec       q    Type
REMARK                         _______ _______ _______ _____ _____    ______ ____
ROOT
ATOM      1  N   LIG    1       -1.372  -0.511   0.012  0.00  0.00    -0.510 N 
ATOM      2  C   LIG    1       -2.099  -0.783   1.113  0.00  0.00    +0.670 A 
ATOM      3  N   LIG    1       -3.314  -1.229   0.735  0.00  0.00    -0.500 N 
ATOM      4  C   LIG    1       -3.347  -1.236  -0.663  0.00  0.00    -0.100 A 
ATOM      5  C   LIG    1       -4.327  -1.595  -1.610  0.00  0.00    +0.590 A 
ATOM      6  O   LIG    1       -5.416  -2.003  -1.246  0.00  0.00    -0.500 OA
ATOM      7  N   LIG    1       -4.044  -1.489  -2.925  0.00  0.00    -0.550 N 
ATOM      8  C   LIG    1       -5.054  -1.864  -3.918  0.00  0.00    +0.350 C 
ATOM      9  C   LIG    1       -2.844  -1.039  -3.333  0.00  0.00    +0.710 A 
ATOM     10  O   LIG    1       -2.614  -0.949  -4.524  0.00  0.00    -0.520 OA
ATOM     11  N   LIG    1       -1.892  -0.687  -2.449  0.00  0.00    -0.510 N 
ATOM     12  C   LIG    1       -0.595  -0.202  -2.927  0.00  0.00    +0.340 C 
ATOM     13  C   LIG    1       -4.403  -1.634   1.628  0.00  0.00    +0.360 C 
ATOM     14  O   LIG    1       -1.721  -0.647   2.262  0.00  0.00    -0.540 OA
ATOM     15  C   LIG    1       -2.132  -0.781  -1.097  0.00  0.00    +0.350 A 
ENDROOT
BRANCH   1  17
ATOM     16  C   LIG    1       -0.019   1.526   0.010  0.00  0.00    +0.040 C 
ATOM     17  C   LIG    1        0.002  -0.004   0.002  0.00  0.00    +0.310 C 
ENDBRANCH   1  17
TORSDOF 1
ENDMDL
MODEL      269
REMARK  Name = ZINC000005411555
REMARK                            x       y       z     vdW  Elec       q    Type
REMARK                         _______ _______ _______ _____ _____    ______ ____
ROOT
ATOM      1  C   LIG    1       -1.433  -0.534   0.013  0.00  0.00    +0.200 C 
ATOM      2  O   LIG    1       -2.031  -0.238   1.290  0.00  0.00    -0.330 OA
ATOM      3  C   LIG    1       -1.369  -0.918   2.322  0.00  0.00    +0.340 C 
ATOM      4  N   LIG    1       -1.717  -0.764   3.715  0.00  0.00    -0.660 N 
ATOM      5  H   LIG    1       -1.974   0.060   4.158  0.00  0.00    +0.450 HD
ATOM      6  C   LIG    1       -1.618  -1.995   4.286  0.00  0.00    +0.490 C 
ATOM      7  O   LIG    1       -1.200  -2.941   3.396  0.00  0.00    -0.260 OA
ATOM      8  S   LIG    1       -1.976  -2.319   5.928  0.00  0.00    -0.450 S 
ATOM      9  C   LIG    1       -1.624  -2.439   2.118  0.00  0.00    +0.150 C 
ATOM     10  C   LIG    1       -0.824  -2.813   0.884  0.00  0.00    +0.220 C 
ATOM     11  C   LIG    1       -1.411  -2.031  -0.278  0.00  0.00    +0.150 C 
ENDROOT
BRANCH  10  12
ATOM     12  O   LIG    1       -0.936  -4.215   0.631  0.00  0.00    -0.530 OA
ATOM     13  H   LIG    1       -0.445  -4.514  -0.146  0.00  0.00    +0.390 HD
ENDBRANCH  10  12
BRANCH  11  14
ATOM     14  O   LIG    1       -2.745  -2.483  -0.517  0.00  0.00    -0.540 OA
ATOM     15  H   LIG    1       -3.189  -2.030  -1.247  0.00  0.00    +0.390 HD
ENDBRANCH  11  14
BRANCH   1  16
ATOM     16  C   LIG    1        0.002  -0.004   0.002  0.00  0.00    +0.160 C 
BRANCH  16  17
ATOM     17  O   LIG    1       -0.012   1.413   0.182  0.00  0.00    -0.560 OA
ATOM     18  H   LIG    1        0.866   1.818   0.185  0.00  0.00    +0.390 HD
ENDBRANCH  16  17
ENDBRANCH   1  16
TORSDOF 4
ENDMDL
MODEL      270
REMARK  Name = ZINC000067896257
REMARK                            x       y       z     vdW  Elec       q    Type
REMARK                         _______ _______ _______ _____ _____    ______ ____
ROOT
ATOM      1  CA  LIG    1       -1.359  -1.976  -0.116  0.00  0.00    +0.070 C 
ENDROOT
BRANCH   1   2
ATOM      2  N   LIG    1       -1.376  -0.512   0.012  0.00  0.00    -0.480 N 
ATOM      3  H1  LIG    1       -1.888  -0.113  -0.760  0.00  0.00    +0.430 HD
ATOM      4  H2  LIG    1       -1.823  -0.256   0.880  0.00  0.00    +0.390 HD
BRANCH   2   6
ATOM      5  C   LIG    1       -0.019   1.526   0.010  0.00  0.00    +0.080 C 
ATOM      6  C   LIG    1        0.002  -0.004   0.002  0.00  0.00    +0.180 C 
ATOM      7  C   LIG    1        0.742  -0.511   1.242  0.00  0.00    +0.070 C 
ENDBRANCH   2   6
ENDBRANCH   1   2
BRANCH   1   8
ATOM      8  C   LIG    1       -0.804  -2.355  -1.465  0.00  0.00    +0.500 C 
ATOM      9  OXT LIG    1       -0.705  -3.530  -1.775  0.00  0.00    -0.630 OA
ATOM     10  O   LIG    1       -0.456  -1.487  -2.247  0.00  0.00    -0.660 OA
ENDBRANCH   1   8
BRANCH   1  11
ATOM     11  C   LIG    1       -2.784  -2.516   0.019  0.00  0.00    +0.380 C 
BRANCH  11  12
ATOM     12  N   LIG    1       -3.366  -2.047   1.280  0.00  0.00    -0.550 N 
ATOM     13  C   LIG    1       -3.212  -2.793   2.416  0.00  0.00    +0.350 A 
ATOM     14  C   LIG    1       -3.748  -2.361   3.578  0.00  0.00    -0.100 A 
ATOM     15  C   LIG    1       -4.462  -1.138   3.594  0.00  0.00    +0.540 A 
ATOM     16  N   LIG    1       -4.592  -0.433   2.452  0.00  0.00    -0.660 N 
ATOM     17  H   LIG    1       -5.080   0.406   2.455  0.00  0.00    +0.430 HD
ATOM     18  O   LIG    1       -4.954  -0.728   4.629  0.00  0.00    -0.500 OA
ATOM     19  C   LIG    1       -4.043  -0.885   1.309  0.00  0.00    +0.680 A 
ATOM     20  O   LIG    1       -4.168  -0.238   0.287  0.00  0.00    -0.540 OA
ENDBRANCH  11  12
ENDBRANCH   1  11
TORSDOF 5
ENDMDL
MODEL      271
REMARK  Name = ZINC000029250350
REMARK                            x       y       z     vdW  Elec       q    Type
REMARK                         _______ _______ _______ _____ _____    ______ ____
ROOT
ATOM      1  C   LIG    1       -0.018   1.503   0.010  0.00  0.00    +0.130 C 
ATOM      2  C   LIG    1        0.002  -0.004   0.002  0.00  0.00    -0.250 A 
ATOM      3  C   LIG    1       -1.153  -0.704   0.004  0.00  0.00    +0.350 A 
ATOM      4  N   LIG    1       -1.116  -2.072  -0.004  0.00  0.00    -0.530 N 
ATOM      5  C   LIG    1        0.060  -2.726  -0.013  0.00  0.00    +0.700 A 
ATOM      6  N   LIG    1        1.226  -2.053  -0.016  0.00  0.00    -0.660 N 
ATOM      7  H   LIG    1        2.064  -2.540  -0.023  0.00  0.00    +0.430 HD
ATOM      8  O   LIG    1        0.069  -3.942  -0.020  0.00  0.00    -0.520 OA
ATOM      9  C   LIG    1        1.232  -0.705  -0.013  0.00  0.00    +0.550 A 
ATOM     10  O   LIG    1        2.287  -0.095  -0.016  0.00  0.00    -0.510 OA
ENDROOT
BRANCH   4  11
ATOM     11  C   LIG    1       -2.369  -2.831  -0.002  0.00  0.00    +0.440 C 
ATOM     12  O   LIG    1       -2.363  -3.781   1.077  0.00  0.00    -0.350 OA
ATOM     13  C   LIG    1       -3.084  -4.945   0.617  0.00  0.00    +0.180 C 
ATOM     14  C   LIG    1       -2.619  -5.102  -0.853  0.00  0.00    +0.020 C 
ATOM     15  C   LIG    1       -2.502  -3.626  -1.316  0.00  0.00    +0.150 C 
BRANCH  15  16
ATOM     16  O   LIG    1       -3.675  -3.231  -2.030  0.00  0.00    -0.560 OA
ATOM     17  H   LIG    1       -3.836  -3.742  -2.835  0.00  0.00    +0.390 HD
ENDBRANCH  15  16
BRANCH  13  18
ATOM     18  C   LIG    1       -2.701  -6.176   1.441  0.00  0.00    +0.200 C 
BRANCH  18  19
ATOM     19  O   LIG    1       -3.154  -6.009   2.786  0.00  0.00    -0.570 OA
ATOM     20  H   LIG    1       -2.945  -6.753   3.367  0.00  0.00    +0.380 HD
ENDBRANCH  18  19
ENDBRANCH  13  18
ENDBRANCH   4  11
TORSDOF 4
ENDMDL
MODEL      272
REMARK  Name = ZINC000003159917
REMARK                            x       y       z     vdW  Elec       q    Type
REMARK                         _______ _______ _______ _____ _____    ______ ____
ROOT
ATOM      1  C   LIG    1        0.002  -0.004   0.002  0.00  0.00    +0.520 A 
ATOM      2  N   LIG    1       -1.042  -0.798   0.002  0.00  0.00    -0.310 NA
ATOM      3  N   LIG    1       -0.669  -2.029  -0.006  0.00  0.00    -0.210 NA
ATOM      4  C   LIG    1        0.636  -2.104  -0.012  0.00  0.00    +0.360 A 
ATOM      5  N   LIG    1        1.524  -3.154  -0.021  0.00  0.00    -0.430 N 
ATOM      6  C   LIG    1        1.388  -4.513  -0.018  0.00  0.00    +0.520 A 
ATOM      7  N   LIG    1        2.598  -5.020  -0.024  0.00  0.00    -0.310 NA
ATOM      8  N   LIG    1        3.477  -4.082  -0.027  0.00  0.00    -0.210 NA
ATOM      9  C   LIG    1        2.890  -2.914  -0.023  0.00  0.00    +0.360 A 
ATOM     10  N   LIG    1        3.355  -1.620  -0.024  0.00  0.00    -0.430 N 
ATOM     11  C   LIG    1        4.600  -1.058  -0.029  0.00  0.00    +0.520 A 
ATOM     12  N   LIG    1        4.434   0.243  -0.027  0.00  0.00    -0.310 NA
ATOM     13  N   LIG    1        3.183   0.536  -0.021  0.00  0.00    -0.210 NA
ATOM     14  C   LIG    1        2.465  -0.557  -0.019  0.00  0.00    +0.360 A 
ATOM     15  N   LIG    1        1.111  -0.801  -0.013  0.00  0.00    -0.430 N 
ENDROOT
BRANCH   1  16
ATOM     16  N   LIG    1       -0.017   1.384   0.010  0.00  0.00    -0.800 N 
ATOM     17  H   LIG    1       -0.863   1.857   0.016  0.00  0.00    +0.440 HD
ATOM     18  H   LIG    1        0.817   1.880   0.004  0.00  0.00    +0.430 HD
ENDBRANCH   1  16
BRANCH   6  19
ATOM     19  N   LIG    1        0.196  -5.223  -0.013  0.00  0.00    -0.800 N 
ATOM     20  H   LIG    1       -0.650  -4.749  -0.009  0.00  0.00    +0.430 HD
ATOM     21  H   LIG    1        0.209  -6.193  -0.015  0.00  0.00    +0.440 HD
ENDBRANCH   6  19
BRANCH  11  22
ATOM     22  N   LIG    1        5.811  -1.736  -0.036  0.00  0.00    -0.800 N 
ATOM     23  H   LIG    1        5.824  -2.705  -0.036  0.00  0.00    +0.430 HD
ATOM     24  H   LIG    1        6.645  -1.239  -0.040  0.00  0.00    +0.440 HD
ENDBRANCH  11  22
TORSDOF 3
ENDMDL
MODEL      273
REMARK  Name = ZINC000038763322
REMARK                            x       y       z     vdW  Elec       q    Type
REMARK                         _______ _______ _______ _____ _____    ______ ____
ROOT
ATOM      1  C   LIG    1       -0.018   1.503   0.010  0.00  0.00    +0.210 C 
ATOM      2  C   LIG    1        0.002  -0.004   0.002  0.00  0.00    +0.190 C 
ATOM      3  N   LIG    1       -1.036  -0.755   0.003  0.00  0.00    -0.470 NA
ATOM      4  C   LIG    1       -0.851  -2.189   0.070  0.00  0.00    +0.150 C 
ATOM      5  C   LIG    1        0.572  -2.569  -0.338  0.00  0.00    +0.230 C 
ATOM      6  O   LIG    1        0.652  -2.860  -1.732  0.00  0.00    -0.340 OA
ATOM      7  C   LIG    1       -0.238  -3.887  -2.169  0.00  0.00    +0.140 C 
ATOM      8  C   LIG    1       -1.674  -3.390  -2.008  0.00  0.00    +0.130 C 
ATOM      9  C   LIG    1       -1.934  -2.979  -0.606  0.00  0.00    +0.210 C 
ATOM     10  S   LIG    1        1.464  -1.002  -0.018  0.00  0.00    -0.160 S 
ENDROOT
BRANCH   8  11
ATOM     11  O   LIG    1       -2.578  -4.429  -2.390  0.00  0.00    -0.560 OA
ATOM     12  H   LIG    1       -2.476  -4.722  -3.306  0.00  0.00    +0.390 HD
ENDBRANCH   8  11
BRANCH   9  13
ATOM     13  O   LIG    1       -3.143  -2.218  -0.574  0.00  0.00    -0.540 OA
ATOM     14  H   LIG    1       -3.920  -2.700  -0.888  0.00  0.00    +0.380 HD
ENDBRANCH   9  13
BRANCH   7  15
ATOM     15  C   LIG    1        0.034  -4.213  -3.638  0.00  0.00    +0.210 C 
BRANCH  15  16
ATOM     16  O   LIG    1        1.344  -4.770  -3.768  0.00  0.00    -0.560 OA
ATOM     17  H   LIG    1        1.585  -5.001  -4.675  0.00  0.00    +0.390 HD
ENDBRANCH  15  16
ENDBRANCH   7  15
TORSDOF 4
ENDMDL
MODEL      274
REMARK  Name = ZINC000016051892
REMARK                            x       y       z     vdW  Elec       q    Type
REMARK                         _______ _______ _______ _____ _____    ______ ____
ROOT
ATOM      1  C   LIG    1       -0.018   1.503   0.010  0.00  0.00    +0.200 C 
ATOM      2  C   LIG    1        0.002  -0.004   0.002  0.00  0.00    +0.210 C 
ATOM      3  N   LIG    1       -1.032  -0.750   0.003  0.00  0.00    -0.510 NA
ATOM      4  C   LIG    1       -0.881  -2.201   0.021  0.00  0.00    +0.180 C 
ATOM      5  C   LIG    1        0.577  -2.584  -0.071  0.00  0.00    +0.260 C 
ATOM      6  O   LIG    1        1.108  -3.536   0.783  0.00  0.00    -0.320 OA
ATOM      7  C   LIG    1        0.476  -3.865   2.000  0.00  0.00    +0.140 C 
ATOM      8  C   LIG    1       -1.026  -4.000   1.815  0.00  0.00    +0.130 C 
ATOM      9  C   LIG    1       -1.617  -2.759   1.221  0.00  0.00    +0.200 C 
ATOM     10  S   LIG    1        1.464  -1.000  -0.018  0.00  0.00    -0.230 S 
ENDROOT
BRANCH   8  11
ATOM     11  O   LIG    1       -1.633  -4.252   3.084  0.00  0.00    -0.550 OA
ATOM     12  H   LIG    1       -1.322  -5.059   3.516  0.00  0.00    +0.390 HD
ENDBRANCH   8  11
BRANCH   9  13
ATOM     13  O   LIG    1       -2.963  -3.040   0.831  0.00  0.00    -0.550 OA
ATOM     14  H   LIG    1       -3.534  -3.318   1.560  0.00  0.00    +0.390 HD
ENDBRANCH   9  13
BRANCH   7  15
ATOM     15  C   LIG    1        1.038  -5.192   2.515  0.00  0.00    +0.210 C 
BRANCH  15  16
ATOM     16  O   LIG    1        2.421  -5.031   2.835  0.00  0.00    -0.560 OA
ATOM     17  H   LIG    1        2.844  -5.834   3.169  0.00  0.00    +0.390 HD
ENDBRANCH  15  16
ENDBRANCH   7  15
TORSDOF 4
ENDMDL
MODEL      275
REMARK  Name = ZINC000029060320
REMARK                            x       y       z     vdW  Elec       q    Type
REMARK                         _______ _______ _______ _____ _____    ______ ____
ROOT
ATOM      1  C   LIG    1       -0.018   1.503   0.010  0.00  0.00    +0.210 C 
ATOM      2  C   LIG    1        0.002  -0.004   0.002  0.00  0.00    +0.180 C 
ATOM      3  N   LIG    1       -1.048  -0.773   0.003  0.00  0.00    -0.470 NA
ATOM      4  C   LIG    1       -0.821  -2.165   0.006  0.00  0.00    +0.110 C 
ATOM      5  C   LIG    1        0.586  -2.521   0.523  0.00  0.00    +0.210 C 
ATOM      6  O   LIG    1        0.981  -3.690  -0.197  0.00  0.00    -0.320 OA
ATOM      7  C   LIG    1        0.128  -4.803   0.121  0.00  0.00    +0.140 C 
ATOM      8  C   LIG    1       -1.321  -4.541  -0.285  0.00  0.00    +0.130 C 
ATOM      9  C   LIG    1       -1.813  -3.226   0.340  0.00  0.00    +0.240 C 
ATOM     10  S   LIG    1        1.466  -1.016  -0.018  0.00  0.00    -0.150 S 
ENDROOT
BRANCH   8  11
ATOM     11  O   LIG    1       -2.142  -5.615   0.175  0.00  0.00    -0.550 OA
ATOM     12  H   LIG    1       -1.896  -6.479  -0.183  0.00  0.00    +0.390 HD
ENDBRANCH   8  11
BRANCH   9  13
ATOM     13  O   LIG    1       -3.084  -2.872  -0.211  0.00  0.00    -0.540 OA
ATOM     14  H   LIG    1       -3.775  -3.532  -0.061  0.00  0.00    +0.390 HD
ENDBRANCH   9  13
BRANCH   7  15
ATOM     15  C   LIG    1        0.634  -6.045  -0.616  0.00  0.00    +0.210 C 
BRANCH  15  16
ATOM     16  O   LIG    1        1.927  -6.399  -0.121  0.00  0.00    -0.560 OA
ATOM     17  H   LIG    1        2.310  -7.179  -0.544  0.00  0.00    +0.390 HD
ENDBRANCH  15  16
ENDBRANCH   7  15
TORSDOF 4
ENDMDL
MODEL      276
REMARK  Name = ZINC000038763320
REMARK                            x       y       z     vdW  Elec       q    Type
REMARK                         _______ _______ _______ _____ _____    ______ ____
ROOT
ATOM      1  C   LIG    1       -0.018   1.503   0.010  0.00  0.00    +0.210 C 
ATOM      2  C   LIG    1        0.002  -0.004   0.002  0.00  0.00    +0.180 C 
ATOM      3  N   LIG    1       -1.050  -0.765   0.003  0.00  0.00    -0.480 NA
ATOM      4  C   LIG    1       -0.823  -2.153   0.090  0.00  0.00    +0.130 C 
ATOM      5  C   LIG    1        0.583  -2.552  -0.390  0.00  0.00    +0.220 C 
ATOM      6  O   LIG    1        0.986  -3.649   0.427  0.00  0.00    -0.320 OA
ATOM      7  C   LIG    1        0.128  -4.785   0.249  0.00  0.00    +0.180 C 
ATOM      8  C   LIG    1       -1.317  -4.479   0.638  0.00  0.00    +0.140 C 
ATOM      9  C   LIG    1       -1.818  -3.242  -0.126  0.00  0.00    +0.240 C 
ATOM     10  S   LIG    1        1.469  -1.005  -0.018  0.00  0.00    -0.150 S 
ENDROOT
BRANCH   8  11
ATOM     11  O   LIG    1       -1.386  -4.226   2.042  0.00  0.00    -0.550 OA
ATOM     12  H   LIG    1       -1.093  -4.967   2.591  0.00  0.00    +0.390 HD
ENDBRANCH   8  11
BRANCH   9  13
ATOM     13  O   LIG    1       -1.920  -3.539  -1.520  0.00  0.00    -0.550 OA
ATOM     14  H   LIG    1       -2.529  -4.261  -1.725  0.00  0.00    +0.380 HD
ENDBRANCH   9  13
BRANCH   7  15
ATOM     15  C   LIG    1        0.166  -5.211  -1.220  0.00  0.00    +0.170 C 
BRANCH  15  16
ATOM     16  O   LIG    1        1.480  -5.667  -1.550  0.00  0.00    -0.560 OA
ATOM     17  H   LIG    1        1.577  -5.954  -2.469  0.00  0.00    +0.380 HD
ENDBRANCH  15  16
ENDBRANCH   7  15
TORSDOF 4
ENDMDL
MODEL      277
REMARK  Name = ZINC000005973801
REMARK                            x       y       z     vdW  Elec       q    Type
REMARK                         _______ _______ _______ _____ _____    ______ ____
ROOT
ATOM      1  C   LIG    1       -0.016  -4.213  -0.021  0.00  0.00    +0.270 C 
ATOM      2  O   LIG    1        0.786  -4.715   1.054  0.00  0.00    -0.340 OA
ATOM      3  C   LIG    1        1.881  -5.484   0.532  0.00  0.00    +0.160 C 
ATOM      4  C   LIG    1        1.407  -5.969  -0.861  0.00  0.00    +0.120 C 
ATOM      5  C   LIG    1        0.590  -4.737  -1.341  0.00  0.00    +0.190 C 
ENDROOT
BRANCH   1   9
ATOM      6  C   LIG    1        0.002  -0.004   0.002  0.00  0.00    +0.640 A 
ATOM      7  N   LIG    1       -1.137  -0.667   0.004  0.00  0.00    -0.590 NA
ATOM      8  C   LIG    1       -1.164  -1.998  -0.003  0.00  0.00    +0.390 A 
ATOM      9  C   LIG    1        0.003  -2.706  -0.013  0.00  0.00    -0.330 A 
ATOM     10  C   LIG    1        1.222  -2.006  -0.015  0.00  0.00    +0.550 A 
ATOM     11  O   LIG    1        2.284  -2.607  -0.024  0.00  0.00    -0.530 OA
ATOM     12  N   LIG    1        1.196  -0.656  -0.013  0.00  0.00    -0.650 N 
ATOM     13  H   LIG    1        2.025  -0.153  -0.014  0.00  0.00    +0.410 HD
BRANCH   6  14
ATOM     14  N   LIG    1       -0.017   1.365   0.009  0.00  0.00    -0.820 N 
ATOM     15  H   LIG    1       -0.863   1.838   0.016  0.00  0.00    +0.430 HD
ATOM     16  H   LIG    1        0.817   1.861   0.004  0.00  0.00    +0.420 HD
ENDBRANCH   6  14
ENDBRANCH   1   9
BRANCH   4  17
ATOM     17  O   LIG    1        0.575  -7.125  -0.749  0.00  0.00    -0.540 OA
ATOM     18  H   LIG    1        1.016  -7.890  -0.353  0.00  0.00    +0.380 HD
ENDBRANCH   4  17
BRANCH   5  19
ATOM     19  O   LIG    1       -0.434  -5.131  -2.257  0.00  0.00    -0.540 OA
ATOM     20  H   LIG    1       -0.101  -5.545  -3.065  0.00  0.00    +0.380 HD
ENDBRANCH   5  19
BRANCH   3  21
ATOM     21  C   LIG    1        2.172  -6.680   1.442  0.00  0.00    +0.190 C 
BRANCH  21  22
ATOM     22  O   LIG    1        2.656  -6.212   2.702  0.00  0.00    -0.560 OA
ATOM     23  H   LIG    1        2.862  -6.918   3.330  0.00  0.00    +0.380 HD
ENDBRANCH  21  22
ENDBRANCH   3  21
TORSDOF 6
ENDMDL
MODEL      278
REMARK  Name = ZINC000095095731
REMARK                            x       y       z     vdW  Elec       q    Type
REMARK                         _______ _______ _______ _____ _____    ______ ____
ROOT
ATOM      1  C   LIG    1       -1.412  -0.526   0.013  0.00  0.00    +0.190 A 
ATOM      2  N   LIG    1       -2.153  -0.795  -1.035  0.00  0.00    -0.470 NA
ATOM      3  C   LIG    1       -3.327  -1.230  -0.546  0.00  0.00    +0.180 A 
ATOM      4  N   LIG    1       -3.243  -1.204   0.751  0.00  0.00    -0.370 NA
ATOM      5  O   LIG    1       -2.148  -0.807   1.092  0.00  0.00    +0.100 OA
ENDROOT
BRANCH   1   6
ATOM      6  C   LIG    1        0.002  -0.004   0.002  0.00  0.00    +0.340 C 
BRANCH   6   7
ATOM      7  N   LIG    1       -0.018   1.465   0.010  0.00  0.00    -0.840 NA
ATOM      8  H   LIG    1       -0.556   1.823  -0.764  0.00  0.00    +0.350 HD
ATOM      9  H   LIG    1        0.919   1.839   0.003  0.00  0.00    +0.360 HD
ENDBRANCH   6   7
ENDBRANCH   1   6
BRANCH   3  10
ATOM     10  C   LIG    1       -4.522  -1.669  -1.352  0.00  0.00    +0.200 C 
BRANCH  10  11
ATOM     11  C   LIG    1       -4.429  -3.148  -1.626  0.00  0.00    +0.530 C 
ATOM     12  N   LIG    1       -5.394  -3.764  -2.336  0.00  0.00    -0.620 N 
ATOM     13  C   LIG    1       -6.546  -3.013  -2.860  0.00  0.00    +0.260 C 
ATOM     14  C   LIG    1       -6.696  -3.337  -4.351  0.00  0.00    +0.220 C 
ATOM     15  O   LIG    1       -6.732  -4.755  -4.523  0.00  0.00    -0.380 OA
ATOM     16  C   LIG    1       -5.537  -5.425  -4.113  0.00  0.00    +0.220 C 
ATOM     17  C   LIG    1       -5.324  -5.207  -2.615  0.00  0.00    +0.260 C 
ATOM     18  O   LIG    1       -3.485  -3.783  -1.206  0.00  0.00    -0.530 OA
ENDBRANCH  10  11
ENDBRANCH   3  10
TORSDOF 4
ENDMDL
MODEL      279
REMARK  Name = ZINC000005973797
REMARK                            x       y       z     vdW  Elec       q    Type
REMARK                         _______ _______ _______ _____ _____    ______ ____
ROOT
ATOM      1  C   LIG    1       -0.016  -4.213  -0.021  0.00  0.00    +0.240 C 
ATOM      2  O   LIG    1        0.805  -4.720  -1.096  0.00  0.00    -0.330 OA
ATOM      3  C   LIG    1        1.118  -6.080  -0.726  0.00  0.00    +0.130 C 
ATOM      4  C   LIG    1        1.397  -6.023   0.792  0.00  0.00    +0.120 C 
ATOM      5  C   LIG    1        0.631  -4.766   1.268  0.00  0.00    +0.170 C 
ENDROOT
BRANCH   1   9
ATOM      6  C   LIG    1        0.002  -0.004   0.002  0.00  0.00    +0.640 A 
ATOM      7  N   LIG    1       -1.137  -0.667   0.004  0.00  0.00    -0.600 NA
ATOM      8  C   LIG    1       -1.164  -1.998  -0.003  0.00  0.00    +0.360 A 
ATOM      9  C   LIG    1        0.003  -2.706  -0.013  0.00  0.00    -0.290 A 
ATOM     10  C   LIG    1        1.222  -2.006  -0.015  0.00  0.00    +0.560 A 
ATOM     11  O   LIG    1        2.284  -2.607  -0.024  0.00  0.00    -0.480 OA
ATOM     12  N   LIG    1        1.196  -0.656  -0.013  0.00  0.00    -0.660 N 
ATOM     13  H   LIG    1        2.025  -0.153  -0.014  0.00  0.00    +0.410 HD
BRANCH   6  14
ATOM     14  N   LIG    1       -0.017   1.365   0.009  0.00  0.00    -0.820 N 
ATOM     15  H   LIG    1       -0.863   1.838   0.016  0.00  0.00    +0.430 HD
ATOM     16  H   LIG    1        0.817   1.861   0.004  0.00  0.00    +0.410 HD
ENDBRANCH   6  14
ENDBRANCH   1   9
BRANCH   4  17
ATOM     17  O   LIG    1        2.797  -5.885   1.040  0.00  0.00    -0.540 OA
ATOM     18  H   LIG    1        3.330  -6.620   0.708  0.00  0.00    +0.380 HD
ENDBRANCH   4  17
BRANCH   5  19
ATOM     19  O   LIG    1        1.534  -3.810   1.826  0.00  0.00    -0.520 OA
ATOM     20  H   LIG    1        2.014  -4.129   2.603  0.00  0.00    +0.370 HD
ENDBRANCH   5  19
BRANCH   3  21
ATOM     21  C   LIG    1        2.359  -6.565  -1.479  0.00  0.00    +0.200 C 
BRANCH  21  22
ATOM     22  O   LIG    1        2.065  -6.652  -2.875  0.00  0.00    -0.560 OA
ATOM     23  H   LIG    1        2.808  -6.954  -3.416  0.00  0.00    +0.380 HD
ENDBRANCH  21  22
ENDBRANCH   3  21
TORSDOF 6
ENDMDL
MODEL      280
REMARK  Name = ZINC000005972854
REMARK                            x       y       z     vdW  Elec       q    Type
REMARK                         _______ _______ _______ _____ _____    ______ ____
ROOT
ATOM      1  C   LIG    1        1.385  -4.154   2.227  0.00  0.00    +0.250 C 
ATOM      2  C   LIG    1        2.567  -4.645   1.388  0.00  0.00    +0.320 C 
ATOM      3  O   LIG    1        2.619  -6.072   1.429  0.00  0.00    -0.390 OA
ATOM      4  C   LIG    1        2.807  -6.612   2.739  0.00  0.00    +0.150 C 
ATOM      5  C   LIG    1        1.634  -6.200   3.632  0.00  0.00    +0.130 C 
ATOM      6  C   LIG    1        1.534  -4.672   3.660  0.00  0.00    +0.180 C 
ENDROOT
BRANCH   1   8
ATOM      7  C   LIG    1        0.762  -2.018   1.233  0.00  0.00    +0.520 C 
ATOM      8  N   LIG    1        1.365  -2.689   2.235  0.00  0.00    -0.720 N 
ATOM      9  H   LIG    1        1.785  -2.202   2.961  0.00  0.00    +0.400 HD
ATOM     10  O   LIG    1        0.237  -2.626   0.325  0.00  0.00    -0.510 OA
BRANCH   7  11
ATOM     11  C   LIG    1        0.742  -0.511   1.242  0.00  0.00    +0.040 C 
BRANCH  11  13
ATOM     12  C   LIG    1       -0.019   1.526   0.010  0.00  0.00    +0.010 C 
ATOM     13  C   LIG    1        0.002  -0.004   0.002  0.00  0.00    +0.030 C 
ENDBRANCH  11  13
ENDBRANCH   7  11
ENDBRANCH   1   8
BRANCH   5  14
ATOM     14  O   LIG    1        1.847  -6.691   4.957  0.00  0.00    -0.560 OA
ATOM     15  H   LIG    1        1.923  -7.653   5.012  0.00  0.00    +0.390 HD
ENDBRANCH   5  14
BRANCH   2  16
ATOM     16  O   LIG    1        2.405  -4.212   0.035  0.00  0.00    -0.520 OA
ATOM     17  H   LIG    1        3.119  -4.488  -0.554  0.00  0.00    +0.390 HD
ENDBRANCH   2  16
BRANCH   6  18
ATOM     18  O   LIG    1        0.399  -4.281   4.435  0.00  0.00    -0.550 OA
ATOM     19  H   LIG    1        0.426  -4.582   5.353  0.00  0.00    +0.390 HD
ENDBRANCH   6  18
BRANCH   4  20
ATOM     20  C   LIG    1        2.875  -8.138   2.657  0.00  0.00    +0.200 C 
BRANCH  20  21
ATOM     21  O   LIG    1        4.036  -8.525   1.919  0.00  0.00    -0.560 OA
ATOM     22  H   LIG    1        4.143  -9.481   1.827  0.00  0.00    +0.390 HD
ENDBRANCH  20  21
ENDBRANCH   4  20
TORSDOF 8
ENDMDL
MODEL      281
REMARK  Name = ZINC000096675093
REMARK                            x       y       z     vdW  Elec       q    Type
REMARK                         _______ _______ _______ _____ _____    ______ ____
ROOT
ATOM      1  C   LIG    1       -2.581  -2.859   3.945  0.00  0.00    +0.580 C 
ENDROOT
BRANCH   1   5
ATOM      2  N   LIG    1       -0.222  -0.580   2.283  0.00  0.00    -0.760 N 
ATOM      3  H   LIG    1       -0.285   0.207   2.845  0.00  0.00    +0.400 HD
ATOM      4  C   LIG    1       -0.958  -1.673   2.568  0.00  0.00    +0.710 C 
ATOM      5  N   LIG    1       -1.781  -1.671   3.635  0.00  0.00    -0.750 N 
ATOM      6  H   LIG    1       -1.845  -0.884   4.197  0.00  0.00    +0.400 HD
ATOM      7  O   LIG    1       -0.878  -2.661   1.863  0.00  0.00    -0.580 OA
BRANCH   2   8
ATOM      8  C   LIG    1        0.673  -0.582   1.123  0.00  0.00    +0.490 C 
BRANCH   8  10
ATOM      9  C   LIG    1       -0.017   1.425   0.010  0.00  0.00    +0.210 C 
ATOM     10  O   LIG    1        0.002  -0.004   0.002  0.00  0.00    -0.390 OA
ENDBRANCH   8  10
ENDBRANCH   2   8
ENDBRANCH   1   5
BRANCH   1  11
ATOM     11  N   LIG    1       -1.874  -3.679   4.932  0.00  0.00    -0.750 N 
ATOM     12  H   LIG    1       -1.206  -4.319   4.641  0.00  0.00    +0.400 HD
ATOM     13  C   LIG    1       -2.153  -3.545   6.244  0.00  0.00    +0.710 C 
ATOM     14  N   LIG    1       -1.503  -4.299   7.152  0.00  0.00    -0.760 N 
ATOM     15  H   LIG    1       -0.835  -4.939   6.861  0.00  0.00    +0.400 HD
ATOM     16  O   LIG    1       -2.991  -2.742   6.608  0.00  0.00    -0.580 OA
BRANCH  14  17
ATOM     17  C   LIG    1       -1.806  -4.152   8.578  0.00  0.00    +0.490 C 
BRANCH  17  18
ATOM     18  O   LIG    1       -2.774  -5.131   8.962  0.00  0.00    -0.390 OA
ATOM     19  C   LIG    1       -2.227  -6.431   9.191  0.00  0.00    +0.210 C 
ENDBRANCH  17  18
ENDBRANCH  14  17
ENDBRANCH   1  11
TORSDOF 6
ENDMDL
MODEL      282
REMARK  Name = ZINC000043509321
REMARK                            x       y       z     vdW  Elec       q    Type
REMARK                         _______ _______ _______ _____ _____    ______ ____
ROOT
ATOM      1  C   LIG    1       -0.019   1.526   0.010  0.00  0.00    +0.020 C 
ATOM      2  C   LIG    1        0.002  -0.004   0.002  0.00  0.00    +0.090 C 
ATOM      3  C   LIG    1       -1.434  -0.535   0.021  0.00  0.00    +0.340 C 
ATOM      4  O   LIG    1       -1.411  -1.963   0.071  0.00  0.00    -0.370 OA
ATOM      5  C   LIG    1       -0.773  -2.496   1.234  0.00  0.00    +0.160 C 
ATOM      6  C   LIG    1        0.690  -2.043   1.264  0.00  0.00    +0.130 C 
ATOM      7  C   LIG    1        1.359  -2.561   2.538  0.00  0.00    +0.030 C 
ATOM      8  C   LIG    1        0.743  -0.513   1.243  0.00  0.00    +0.170 C 
ATOM      9  C   LIG    1        2.201  -0.052   1.193  0.00  0.00    +0.040 C 
ENDROOT
BRANCH   6  10
ATOM     10  O   LIG    1        1.373  -2.562   0.121  0.00  0.00    -0.520 OA
ATOM     11  H   LIG    1        1.375  -3.528   0.068  0.00  0.00    +0.370 HD
ENDBRANCH   6  10
BRANCH   3  12
ATOM     12  O   LIG    1       -2.114  -0.028   1.170  0.00  0.00    -0.560 OA
ATOM     13  H   LIG    1       -3.032  -0.325   1.247  0.00  0.00    +0.380 HD
ENDBRANCH   3  12
BRANCH   2  14
ATOM     14  O   LIG    1        0.668  -0.466  -1.175  0.00  0.00    -0.510 OA
ATOM     15  H   LIG    1        0.251  -0.182  -2.000  0.00  0.00    +0.370 HD
ENDBRANCH   2  14
BRANCH   8  16
ATOM     16  O   LIG    1        0.116   0.004   2.419  0.00  0.00    -0.530 OA
ATOM     17  H   LIG    1        0.114   0.969   2.471  0.00  0.00    +0.380 HD
ENDBRANCH   8  16
BRANCH   5  18
ATOM     18  C   LIG    1       -0.834  -4.024   1.194  0.00  0.00    +0.200 C 
BRANCH  18  19
ATOM     19  O   LIG    1       -2.195  -4.449   1.282  0.00  0.00    -0.560 OA
ATOM     20  H   LIG    1       -2.309  -5.409   1.263  0.00  0.00    +0.380 HD
ENDBRANCH  18  19
ENDBRANCH   5  18
TORSDOF 6
ENDMDL
MODEL      283
REMARK  Name = ZINC000026468763
REMARK                            x       y       z     vdW  Elec       q    Type
REMARK                         _______ _______ _______ _____ _____    ______ ____
ROOT
ATOM      1  N   LIG    1       -2.953   1.936   2.770  0.00  0.00    -0.490 N 
ATOM      2  H   LIG    1       -2.972   2.944   2.785  0.00  0.00    +0.430 HD
ATOM      3  H   LIG    1       -2.451   1.596   3.576  0.00  0.00    +0.430 HD
ENDROOT
BRANCH   1   4
ATOM      4  C   LIG    1       -4.328   1.419   2.795  0.00  0.00    +0.190 C 
ATOM      5  C   LIG    1       -5.155   2.067   1.671  0.00  0.00    +0.100 C 
ATOM      6  C   LIG    1       -6.648   1.778   1.925  0.00  0.00    -0.280 C 
ATOM      7  S   LIG    1       -6.794   1.591   3.739  0.00  0.00    +2.410 S 
ATOM      8  O   LIG    1       -7.189   0.261   4.045  0.00  0.00    -0.910 OA
ATOM      9  O   LIG    1       -7.527   2.687   4.269  0.00  0.00    -0.910 OA
ATOM     10  C   LIG    1       -5.015   1.803   4.130  0.00  0.00    -0.320 C 
ENDBRANCH   1   4
BRANCH   1  11
ATOM     11  C   LIG    1       -2.280   1.478   1.546  0.00  0.00    +0.300 C 
BRANCH  11  12
ATOM     12  C   LIG    1       -0.848   2.016   1.520  0.00  0.00    -0.460 C 
BRANCH  12  14
ATOM     13  O   LIG    1        0.002  -0.004   0.002  0.00  0.00    -1.040 OA
ATOM     14  S   LIG    1       -0.018   1.450   0.010  0.00  0.00    +2.630 S 
ATOM     15  O   LIG    1       -0.752   1.947  -1.143  0.00  0.00    -1.040 OA
ATOM     16  O   LIG    1        1.341   1.970  -0.000  0.00  0.00    -1.030 OA
ENDBRANCH  12  14
ENDBRANCH  11  12
ENDBRANCH   1  11
TORSDOF 4
ENDMDL
MODEL      284
REMARK  Name = ZINC000026468770
REMARK                            x       y       z     vdW  Elec       q    Type
REMARK                         _______ _______ _______ _____ _____    ______ ____
ROOT
ATOM      1  N   LIG    1       -2.953   1.936   2.770  0.00  0.00    -0.500 N 
ATOM      2  H   LIG    1       -2.972   2.944   2.785  0.00  0.00    +0.430 HD
ATOM      3  H   LIG    1       -2.451   1.596   3.576  0.00  0.00    +0.430 HD
ENDROOT
BRANCH   1   4
ATOM      4  C   LIG    1       -4.328   1.419   2.795  0.00  0.00    +0.200 C 
ATOM      5  C   LIG    1       -4.303  -0.114   2.926  0.00  0.00    +0.090 C 
ATOM      6  C   LIG    1       -5.747  -0.553   3.278  0.00  0.00    -0.270 C 
ATOM      7  S   LIG    1       -6.254   0.700   4.516  0.00  0.00    +2.410 S 
ATOM      8  O   LIG    1       -5.915   0.240   5.817  0.00  0.00    -0.910 OA
ATOM      9  O   LIG    1       -7.582   1.125   4.239  0.00  0.00    -0.910 OA
ATOM     10  C   LIG    1       -5.079   2.004   4.008  0.00  0.00    -0.320 C 
ENDBRANCH   1   4
BRANCH   1  11
ATOM     11  C   LIG    1       -2.280   1.478   1.546  0.00  0.00    +0.300 C 
BRANCH  11  12
ATOM     12  C   LIG    1       -0.848   2.016   1.520  0.00  0.00    -0.460 C 
BRANCH  12  14
ATOM     13  O   LIG    1        0.002  -0.004   0.002  0.00  0.00    -1.040 OA
ATOM     14  S   LIG    1       -0.018   1.450   0.010  0.00  0.00    +2.630 S 
ATOM     15  O   LIG    1       -0.752   1.947  -1.143  0.00  0.00    -1.040 OA
ATOM     16  O   LIG    1        1.341   1.970  -0.000  0.00  0.00    -1.030 OA
ENDBRANCH  12  14
ENDBRANCH  11  12
ENDBRANCH   1  11
TORSDOF 4
ENDMDL
MODEL      285
REMARK  Name = ZINC000043509354
REMARK                            x       y       z     vdW  Elec       q    Type
REMARK                         _______ _______ _______ _____ _____    ______ ____
ROOT
ATOM      1  C   LIG    1        0.128   1.182  -0.490  0.00  0.00    +0.060 C 
ATOM      2  C   LIG    1        0.128  -0.309  -0.145  0.00  0.00    +0.260 C 
ATOM      3  O   LIG    1        0.897  -1.023  -1.115  0.00  0.00    -0.370 OA
ATOM      4  C   LIG    1        0.942  -2.435  -0.900  0.00  0.00    +0.160 C 
ATOM      5  C   LIG    1        1.589  -2.723   0.457  0.00  0.00    +0.080 C 
ATOM      6  C   LIG    1        0.794  -2.010   1.555  0.00  0.00    +0.170 C 
ATOM      7  C   LIG    1        1.478  -2.228   2.906  0.00  0.00    +0.030 C 
ATOM      8  C   LIG    1        1.582  -4.231   0.718  0.00  0.00    +0.030 C 
ATOM      9  C   LIG    1        0.743  -0.511   1.242  0.00  0.00    +0.150 C 
ATOM     10  C   LIG    1        2.160   0.064   1.262  0.00  0.00    +0.050 C 
ENDROOT
BRANCH   6  11
ATOM     11  O   LIG    1       -0.534  -2.536   1.602  0.00  0.00    -0.520 OA
ATOM     12  H   LIG    1       -0.575  -3.484   1.790  0.00  0.00    +0.370 HD
ENDBRANCH   6  11
BRANCH   5  13
ATOM     13  O   LIG    1        2.936  -2.245   0.455  0.00  0.00    -0.540 OA
ATOM     14  H   LIG    1        3.496  -2.652  -0.220  0.00  0.00    +0.370 HD
ENDBRANCH   5  13
BRANCH   2  15
ATOM     15  O   LIG    1       -1.215  -0.798  -0.148  0.00  0.00    -0.540 OA
ATOM     16  H   LIG    1       -1.667  -0.702  -0.997  0.00  0.00    +0.370 HD
ENDBRANCH   2  15
BRANCH   9  17
ATOM     17  O   LIG    1       -0.058   0.154   2.221  0.00  0.00    -0.530 OA
ATOM     18  H   LIG    1       -0.135   1.108   2.084  0.00  0.00    +0.370 HD
ENDBRANCH   9  17
BRANCH   4  19
ATOM     19  C   LIG    1        1.765  -3.094  -2.008  0.00  0.00    +0.200 C 
BRANCH  19  20
ATOM     20  O   LIG    1        1.099  -2.923  -3.261  0.00  0.00    -0.560 OA
ATOM     21  H   LIG    1        1.566  -3.317  -4.011  0.00  0.00    +0.380 HD
ENDBRANCH  19  20
ENDBRANCH   4  19
TORSDOF 6
ENDMDL
MODEL      286
REMARK  Name = ZINC000079419876
REMARK                            x       y       z     vdW  Elec       q    Type
REMARK                         _______ _______ _______ _____ _____    ______ ____
ROOT
ATOM      1  C   LIG    1       -1.244  -2.137   0.003  0.00  0.00    +0.270 C 
ATOM      2  C   LIG    1       -0.888  -2.689   1.387  0.00  0.00    +0.210 C 
ATOM      3  N   LIG    1       -1.092  -4.144   1.398  0.00  0.00    -0.520 NA
ATOM      4  C   LIG    1       -2.502  -4.487   1.172  0.00  0.00    +0.170 C 
ATOM      5  C   LIG    1       -2.924  -4.008  -0.221  0.00  0.00    +0.300 C 
ATOM      6  N   LIG    1       -2.604  -2.577  -0.345  0.00  0.00    -0.610 N 
ATOM      7  C   LIG    1       -3.533  -1.694  -0.759  0.00  0.00    +0.510 C 
ATOM      8  O   LIG    1       -3.227  -0.536  -0.950  0.00  0.00    -0.520 OA
ATOM      9  C   LIG    1       -4.954  -2.144  -0.985  0.00  0.00    +0.110 C 
ENDROOT
BRANCH   1  10
ATOM     10  C   LIG    1       -1.191  -0.631   0.029  0.00  0.00    +0.470 C 
ATOM     11  O   LIG    1       -2.052  -0.006   0.602  0.00  0.00    -0.470 OA
BRANCH  10  13
ATOM     12  C   LIG    1       -0.201   1.466  -0.518  0.00  0.00    +0.270 C 
ATOM     13  O   LIG    1       -0.188   0.016  -0.584  0.00  0.00    -0.360 OA
ENDBRANCH  10  13
ENDBRANCH   1  10
BRANCH   3  14
ATOM     14  C   LIG    1       -0.600  -4.735   2.649  0.00  0.00    +0.190 C 
BRANCH  14  15
ATOM     15  C   LIG    1       -0.597  -6.260   2.526  0.00  0.00    +0.180 C 
BRANCH  15  16
ATOM     16  O   LIG    1        0.344  -6.655   1.526  0.00  0.00    -0.560 OA
ATOM     17  H   LIG    1        0.400  -7.612   1.394  0.00  0.00    +0.380 HD
ENDBRANCH  15  16
ENDBRANCH  14  15
ENDBRANCH   3  14
TORSDOF 5
ENDMDL
MODEL      287
REMARK  Name = ZINC000043509421
REMARK                            x       y       z     vdW  Elec       q    Type
REMARK                         _______ _______ _______ _____ _____    ______ ____
ROOT
ATOM      1  C   LIG    1       -0.019   1.525   0.010  0.00  0.00    +0.020 C 
ATOM      2  C   LIG    1        0.002  -0.004   0.002  0.00  0.00    +0.180 C 
ATOM      3  O   LIG    1        0.574  -0.509  -1.184  0.00  0.00    -0.360 OA
ATOM      4  C   LIG    1        1.984  -0.532  -1.319  0.00  0.00    +0.280 C 
ATOM      5  C   LIG    1        2.631  -1.241  -0.133  0.00  0.00    +0.140 C 
ATOM      6  C   LIG    1        2.152  -0.680   1.200  0.00  0.00    +0.170 C 
ATOM      7  C   LIG    1        2.828   0.661   1.496  0.00  0.00    +0.050 C 
ATOM      8  C   LIG    1        4.156  -1.080  -0.228  0.00  0.00    +0.040 C 
ATOM      9  C   LIG    1        0.637  -0.553   1.269  0.00  0.00    +0.080 C 
ATOM     10  C   LIG    1        0.272   0.368   2.447  0.00  0.00    +0.030 C 
ENDROOT
BRANCH   6  11
ATOM     11  O   LIG    1        2.563  -1.602   2.235  0.00  0.00    -0.530 OA
ATOM     12  H   LIG    1        2.303  -1.333   3.127  0.00  0.00    +0.370 HD
ENDBRANCH   6  11
BRANCH   5  13
ATOM     13  O   LIG    1        2.320  -2.640  -0.198  0.00  0.00    -0.520 OA
ATOM     14  H   LIG    1        2.635  -3.076  -1.002  0.00  0.00    +0.370 HD
ENDBRANCH   5  13
BRANCH   4  15
ATOM     15  O   LIG    1        2.507   0.789  -1.458  0.00  0.00    -0.560 OA
ATOM     16  H   LIG    1        2.169   1.268  -2.228  0.00  0.00    +0.390 HD
ENDBRANCH   4  15
BRANCH   9  17
ATOM     17  O   LIG    1        0.077  -1.850   1.541  0.00  0.00    -0.530 OA
ATOM     18  H   LIG    1       -0.888  -1.857   1.601  0.00  0.00    +0.370 HD
ENDBRANCH   9  17
BRANCH   4  19
ATOM     19  C   LIG    1        2.337  -1.316  -2.598  0.00  0.00    +0.180 C 
BRANCH  19  20
ATOM     20  O   LIG    1        1.747  -0.672  -3.730  0.00  0.00    -0.560 OA
ATOM     21  H   LIG    1        1.928  -1.113  -4.571  0.00  0.00    +0.390 HD
ENDBRANCH  19  20
ENDBRANCH   4  19
TORSDOF 6
ENDMDL
MODEL      288
REMARK  Name = ZINC000043509357
REMARK                            x       y       z     vdW  Elec       q    Type
REMARK                         _______ _______ _______ _____ _____    ______ ____
ROOT
ATOM      1  C   LIG    1       -0.019   1.526   0.010  0.00  0.00    +0.050 C 
ATOM      2  C   LIG    1        0.002  -0.004   0.002  0.00  0.00    +0.260 C 
ATOM      3  O   LIG    1        0.672  -0.465  -1.173  0.00  0.00    -0.370 OA
ATOM      4  C   LIG    1        0.726  -1.888  -1.294  0.00  0.00    +0.160 C 
ATOM      5  C   LIG    1        1.495  -2.471  -0.106  0.00  0.00    +0.090 C 
ATOM      6  C   LIG    1        0.811  -2.041   1.196  0.00  0.00    +0.170 C 
ATOM      7  C   LIG    1        1.618  -2.553   2.391  0.00  0.00    +0.050 C 
ATOM      8  C   LIG    1        1.500  -3.998  -0.200  0.00  0.00    +0.030 C 
ATOM      9  C   LIG    1        0.743  -0.511   1.242  0.00  0.00    +0.150 C 
ATOM     10  C   LIG    1       -0.007  -0.071   2.501  0.00  0.00    +0.040 C 
ENDROOT
BRANCH   6  11
ATOM     11  O   LIG    1       -0.510  -2.583   1.244  0.00  0.00    -0.530 OA
ATOM     12  H   LIG    1       -0.541  -3.549   1.212  0.00  0.00    +0.370 HD
ENDBRANCH   6  11
BRANCH   5  13
ATOM     13  O   LIG    1        2.839  -1.987  -0.123  0.00  0.00    -0.520 OA
ATOM     14  H   LIG    1        3.331  -2.220  -0.923  0.00  0.00    +0.370 HD
ENDBRANCH   5  13
BRANCH   2  15
ATOM     15  O   LIG    1       -1.339  -0.499   0.012  0.00  0.00    -0.550 OA
ATOM     16  H   LIG    1       -1.867  -0.217  -0.747  0.00  0.00    +0.380 HD
ENDBRANCH   2  15
BRANCH   9  17
ATOM     17  O   LIG    1        2.066   0.026   1.261  0.00  0.00    -0.520 OA
ATOM     18  H   LIG    1        2.098   0.992   1.290  0.00  0.00    +0.370 HD
ENDBRANCH   9  17
BRANCH   4  19
ATOM     19  C   LIG    1        1.436  -2.263  -2.596  0.00  0.00    +0.200 C 
BRANCH  19  20
ATOM     20  O   LIG    1        0.658  -1.819  -3.708  0.00  0.00    -0.560 OA
ATOM     21  H   LIG    1        1.049  -2.023  -4.569  0.00  0.00    +0.380 HD
ENDBRANCH  19  20
ENDBRANCH   4  19
TORSDOF 6
ENDMDL
MODEL      289
REMARK  Name = ZINC000000369435
REMARK                            x       y       z     vdW  Elec       q    Type
REMARK                         _______ _______ _______ _____ _____    ______ ____
ROOT
ATOM      1  N   LIG    1        0.688  -0.476  -1.203  0.00  0.00    -0.490 N 
ATOM      2  C   LIG    1        0.102  -0.746  -2.429  0.00  0.00    +0.520 A 
ATOM      3  N   LIG    1        1.103  -1.167  -3.290  0.00  0.00    -0.640 N 
ATOM      4  H   LIG    1        0.982  -1.423  -4.218  0.00  0.00    +0.430 HD
ATOM      5  C   LIG    1        2.295  -1.160  -2.611  0.00  0.00    +0.360 A 
ATOM      6  N   LIG    1        3.579  -1.484  -2.990  0.00  0.00    -0.520 N 
ATOM      7  C   LIG    1        3.843  -1.940  -4.357  0.00  0.00    +0.350 C 
ATOM      8  C   LIG    1        4.591  -1.390  -2.108  0.00  0.00    +0.710 A 
ATOM      9  O   LIG    1        5.718  -1.684  -2.459  0.00  0.00    -0.530 OA
ATOM     10  N   LIG    1        4.380  -0.974  -0.846  0.00  0.00    -0.650 N 
ATOM     11  H   LIG    1        5.126  -0.912  -0.229  0.00  0.00    +0.440 HD
ATOM     12  C   LIG    1        3.141  -0.643  -0.432  0.00  0.00    +0.590 A 
ATOM     13  O   LIG    1        2.955  -0.267   0.713  0.00  0.00    -0.510 OA
ATOM     14  N   LIG    1       -1.161  -0.625  -2.721  0.00  0.00    -0.330 NA
ATOM     15  C   LIG    1        2.063  -0.735  -1.333  0.00  0.00    -0.080 A 
ENDROOT
BRANCH  14  16
ATOM     16  N   LIG    1       -1.615  -0.935  -4.009  0.00  0.00    -0.790 N 
ATOM     17  H   LIG    1       -2.556  -0.845  -4.226  0.00  0.00    +0.420 HD
ATOM     18  H   LIG    1       -0.989  -1.239  -4.684  0.00  0.00    +0.360 HD
ENDBRANCH  14  16
BRANCH   1  20
ATOM     19  C   LIG    1       -0.019   1.526   0.010  0.00  0.00    +0.020 C 
ATOM     20  C   LIG    1        0.002  -0.004   0.002  0.00  0.00    +0.330 C 
ENDBRANCH   1  20
TORSDOF 2
ENDMDL
MODEL      290
REMARK  Name = ZINC000029786466
REMARK                            x       y       z     vdW  Elec       q    Type
REMARK                         _______ _______ _______ _____ _____    ______ ____
ROOT
ATOM      1  C   LIG    1       -0.086  -2.050  -1.174  0.00  0.00    +0.600 C 
ATOM      2  N   LIG    1       -0.078  -2.642  -2.321  0.00  0.00    -0.520 NA
ATOM      3  C   LIG    1       -0.165  -4.106  -2.416  0.00  0.00    +0.410 C 
ATOM      4  C   LIG    1       -0.282  -4.874  -1.073  0.00  0.00    +0.150 C 
ATOM      5  C   LIG    1       -0.313  -4.012   0.174  0.00  0.00    +0.560 C 
ATOM      6  O   LIG    1       -0.403  -4.516   1.273  0.00  0.00    -0.470 OA
ATOM      7  N   LIG    1        0.950  -5.672  -1.019  0.00  0.00    -0.510 NA
ATOM      8  C   LIG    1        1.665  -5.462  -2.060  0.00  0.00    +0.560 C 
ATOM      9  N   LIG    1        1.119  -4.569  -2.967  0.00  0.00    -0.590 N 
ATOM     10  C   LIG    1        1.679  -4.188  -4.132  0.00  0.00    +0.530 C 
ATOM     11  O   LIG    1        1.105  -3.396  -4.850  0.00  0.00    -0.470 OA
ATOM     12  C   LIG    1        3.017  -4.745  -4.543  0.00  0.00    +0.110 C 
ATOM     13  N   LIG    1       -0.166  -2.680   0.039  0.00  0.00    -0.690 N 
ATOM     14  H   LIG    1       -0.186  -2.132   0.839  0.00  0.00    +0.410 HD
ENDROOT
BRANCH   1  17
ATOM     15  C   LIG    1       -0.041   1.516  -2.324  0.00  0.00    +0.110 C 
ATOM     16  C   LIG    1       -0.018   0.009  -2.332  0.00  0.00    +0.500 C 
ATOM     17  N   LIG    1        0.000  -0.672  -1.169  0.00  0.00    -0.670 N 
ATOM     18  H   LIG    1        0.073  -0.193  -0.328  0.00  0.00    +0.420 HD
ATOM     19  O   LIG    1       -0.016  -0.592  -3.386  0.00  0.00    -0.440 OA
ENDBRANCH   1  17
TORSDOF 1
ENDMDL
MODEL      291
REMARK  Name = ZINC000029786470
REMARK                            x       y       z     vdW  Elec       q    Type
REMARK                         _______ _______ _______ _____ _____    ______ ____
ROOT
ATOM      1  C   LIG    1       -0.086  -2.050  -1.174  0.00  0.00    +0.580 C 
ATOM      2  N   LIG    1       -0.081  -2.696  -2.323  0.00  0.00    -0.490 NA
ATOM      3  C   LIG    1       -0.154  -4.135  -2.226  0.00  0.00    +0.370 C 
ATOM      4  C   LIG    1        0.897  -4.534  -1.136  0.00  0.00    +0.110 C 
ATOM      5  C   LIG    1        0.359  -3.985   0.141  0.00  0.00    +0.560 C 
ATOM      6  O   LIG    1        0.385  -4.598   1.187  0.00  0.00    -0.460 OA
ATOM      7  N   LIG    1        0.973  -5.962  -1.366  0.00  0.00    -0.480 NA
ATOM      8  C   LIG    1        0.672  -6.171  -2.623  0.00  0.00    +0.560 C 
ATOM      9  N   LIG    1        0.336  -4.986  -3.305  0.00  0.00    -0.590 N 
ATOM     10  C   LIG    1        0.464  -4.705  -4.617  0.00  0.00    +0.530 C 
ATOM     11  O   LIG    1        0.120  -3.622  -5.042  0.00  0.00    -0.470 OA
ATOM     12  C   LIG    1        1.032  -5.737  -5.557  0.00  0.00    +0.110 C 
ATOM     13  N   LIG    1       -0.169  -2.732   0.031  0.00  0.00    -0.700 N 
ATOM     14  H   LIG    1       -0.602  -2.318   0.793  0.00  0.00    +0.420 HD
ENDROOT
BRANCH   1  17
ATOM     15  C   LIG    1       -0.039   1.516  -2.324  0.00  0.00    +0.110 C 
ATOM     16  C   LIG    1       -0.017   0.009  -2.332  0.00  0.00    +0.500 C 
ATOM     17  N   LIG    1        0.000  -0.672  -1.169  0.00  0.00    -0.650 N 
ATOM     18  H   LIG    1        0.072  -0.193  -0.328  0.00  0.00    +0.420 HD
ATOM     19  O   LIG    1       -0.013  -0.592  -3.386  0.00  0.00    -0.440 OA
ENDBRANCH   1  17
TORSDOF 1
ENDMDL
MODEL      292
REMARK  Name = ZINC000029786468
REMARK                            x       y       z     vdW  Elec       q    Type
REMARK                         _______ _______ _______ _____ _____    ______ ____
ROOT
ATOM      1  C   LIG    1       -0.086  -2.050  -1.174  0.00  0.00    +0.580 C 
ATOM      2  N   LIG    1       -0.081  -2.696  -2.323  0.00  0.00    -0.490 NA
ATOM      3  C   LIG    1       -0.194  -4.133  -2.227  0.00  0.00    +0.370 C 
ATOM      4  C   LIG    1       -1.366  -4.394  -1.223  0.00  0.00    +0.110 C 
ATOM      5  C   LIG    1       -0.864  -3.910   0.094  0.00  0.00    +0.560 C 
ATOM      6  O   LIG    1       -1.045  -4.510   1.132  0.00  0.00    -0.460 OA
ATOM      7  N   LIG    1       -1.600  -5.803  -1.465  0.00  0.00    -0.480 NA
ATOM      8  C   LIG    1       -1.232  -6.053  -2.696  0.00  0.00    +0.570 C 
ATOM      9  N   LIG    1       -0.701  -4.921  -3.345  0.00  0.00    -0.590 N 
ATOM     10  C   LIG    1       -0.692  -4.633  -4.662  0.00  0.00    +0.530 C 
ATOM     11  O   LIG    1       -0.188  -3.602  -5.053  0.00  0.00    -0.470 OA
ATOM     12  C   LIG    1       -1.309  -5.592  -5.647  0.00  0.00    +0.110 C 
ATOM     13  N   LIG    1       -0.169  -2.732   0.031  0.00  0.00    -0.710 N 
ATOM     14  H   LIG    1        0.253  -2.373   0.827  0.00  0.00    +0.420 HD
ENDROOT
BRANCH   1  17
ATOM     15  C   LIG    1       -0.039   1.516  -2.324  0.00  0.00    +0.110 C 
ATOM     16  C   LIG    1       -0.017   0.009  -2.332  0.00  0.00    +0.500 C 
ATOM     17  N   LIG    1        0.000  -0.672  -1.169  0.00  0.00    -0.650 N 
ATOM     18  H   LIG    1        0.072  -0.193  -0.328  0.00  0.00    +0.420 HD
ATOM     19  O   LIG    1       -0.013  -0.592  -3.386  0.00  0.00    -0.440 OA
ENDBRANCH   1  17
TORSDOF 1
ENDMDL
MODEL      293
REMARK  Name = ZINC000029786472
REMARK                            x       y       z     vdW  Elec       q    Type
REMARK                         _______ _______ _______ _____ _____    ______ ____
ROOT
ATOM      1  C   LIG    1       -0.086  -2.050  -1.174  0.00  0.00    +0.600 C 
ATOM      2  N   LIG    1       -0.078  -2.642  -2.321  0.00  0.00    -0.520 NA
ATOM      3  C   LIG    1       -0.166  -4.106  -2.416  0.00  0.00    +0.410 C 
ATOM      4  C   LIG    1       -0.247  -4.877  -1.071  0.00  0.00    +0.150 C 
ATOM      5  C   LIG    1       -0.206  -4.019   0.178  0.00  0.00    +0.560 C 
ATOM      6  O   LIG    1       -0.262  -4.525   1.278  0.00  0.00    -0.470 OA
ATOM      7  N   LIG    1       -1.568  -5.516  -1.115  0.00  0.00    -0.510 NA
ATOM      8  C   LIG    1       -2.170  -5.224  -2.207  0.00  0.00    +0.560 C 
ATOM      9  N   LIG    1       -1.451  -4.410  -3.066  0.00  0.00    -0.590 N 
ATOM     10  C   LIG    1       -1.869  -3.967  -4.268  0.00  0.00    +0.530 C 
ATOM     11  O   LIG    1       -1.150  -3.255  -4.936  0.00  0.00    -0.470 OA
ATOM     12  C   LIG    1       -3.230  -4.358  -4.783  0.00  0.00    +0.110 C 
ATOM     13  N   LIG    1       -0.166  -2.680   0.039  0.00  0.00    -0.690 N 
ATOM     14  H   LIG    1       -0.139  -2.135   0.841  0.00  0.00    +0.410 HD
ENDROOT
BRANCH   1  17
ATOM     15  C   LIG    1       -0.040   1.516  -2.324  0.00  0.00    +0.110 C 
ATOM     16  C   LIG    1       -0.017   0.009  -2.332  0.00  0.00    +0.500 C 
ATOM     17  N   LIG    1        0.000  -0.672  -1.169  0.00  0.00    -0.670 N 
ATOM     18  H   LIG    1        0.072  -0.193  -0.328  0.00  0.00    +0.420 HD
ATOM     19  O   LIG    1       -0.014  -0.592  -3.386  0.00  0.00    -0.440 OA
ENDBRANCH   1  17
TORSDOF 1
ENDMDL
MODEL      294
REMARK  Name = ZINC000079431551
REMARK                            x       y       z     vdW  Elec       q    Type
REMARK                         _______ _______ _______ _____ _____    ______ ____
ROOT
ATOM      1  C   LIG    1       -1.042  -1.908  -0.107  0.00  0.00    +0.270 C 
ATOM      2  C   LIG    1       -0.776  -2.386  -1.539  0.00  0.00    +0.220 C 
ATOM      3  N   LIG    1       -1.052  -3.826  -1.630  0.00  0.00    -0.530 NA
ATOM      4  C   LIG    1       -2.466  -4.116  -1.359  0.00  0.00    +0.170 C 
ATOM      5  C   LIG    1       -2.801  -3.709   0.080  0.00  0.00    +0.290 C 
ATOM      6  N   LIG    1       -2.405  -2.305   0.277  0.00  0.00    -0.610 N 
ATOM      7  C   LIG    1       -3.270  -1.408   0.788  0.00  0.00    +0.510 C 
ATOM      8  O   LIG    1       -2.899  -0.279   1.033  0.00  0.00    -0.520 OA
ATOM      9  C   LIG    1       -4.699  -1.806   1.056  0.00  0.00    +0.110 C 
ENDROOT
BRANCH   1  10
ATOM     10  C   LIG    1       -0.915  -0.408  -0.043  0.00  0.00    +0.470 C 
ATOM     11  O   LIG    1       -1.750   0.292  -0.567  0.00  0.00    -0.480 OA
BRANCH  10  13
ATOM     12  C   LIG    1        0.182   1.602   0.617  0.00  0.00    +0.260 C 
ATOM     13  O   LIG    1        0.124   0.151   0.596  0.00  0.00    -0.360 OA
ENDBRANCH  10  13
ENDBRANCH   1  10
BRANCH   3  14
ATOM     14  C   LIG    1       -0.646  -4.358  -2.937  0.00  0.00    +0.250 C 
BRANCH  14  15
ATOM     15  C   LIG    1       -1.539  -3.764  -4.029  0.00  0.00    +0.130 C 
BRANCH  15  16
ATOM     16  O   LIG    1       -1.286  -2.362  -4.139  0.00  0.00    -0.570 OA
ATOM     17  H   LIG    1       -1.818  -1.918  -4.814  0.00  0.00    +0.380 HD
ENDBRANCH  15  16
ENDBRANCH  14  15
ENDBRANCH   3  14
TORSDOF 5
ENDMDL
MODEL      295
REMARK  Name = ZINC000019371501
REMARK                            x       y       z     vdW  Elec       q    Type
REMARK                         _______ _______ _______ _____ _____    ______ ____
ROOT
ATOM      1  O   LIG    1       -0.016  -0.156   0.275  0.00  0.00    -0.920 OA
ATOM      2  S   LIG    1       -0.158   1.256   0.197  0.00  0.00    +2.390 S 
ATOM      3  C   LIG    1       -0.456   1.939   1.878  0.00  0.00    -0.280 C 
ATOM      4  C   LIG    1        0.973   1.895   2.478  0.00  0.00    +0.150 C 
ATOM      5  C   LIG    1        1.967   2.359   1.412  0.00  0.00    +0.180 C 
ATOM      6  O   LIG    1       -1.074   1.829  -0.725  0.00  0.00    -0.930 OA
ATOM      7  C   LIG    1        1.490   2.029  -0.011  0.00  0.00    -0.340 C 
ENDROOT
BRANCH   5   8
ATOM      8  N   LIG    1        3.258   1.699   1.644  0.00  0.00    -0.440 NA
ATOM      9  C   LIG    1        3.348   0.439   0.894  0.00  0.00    +0.150 C 
ATOM     10  C   LIG    1        4.077   1.700   0.425  0.00  0.00    +0.170 C 
ENDBRANCH   5   8
BRANCH   4  11
ATOM     11  N   LIG    1        1.048   2.789   3.642  0.00  0.00    -0.440 NA
ATOM     12  C   LIG    1        0.952   2.030   4.896  0.00  0.00    +0.140 C 
ATOM     13  C   LIG    1        2.291   2.574   4.393  0.00  0.00    +0.180 C 
ENDBRANCH   4  11
TORSDOF 2
ENDMDL
MODEL      296
REMARK  Name = ZINC000263615888
REMARK                            x       y       z     vdW  Elec       q    Type
REMARK                         _______ _______ _______ _____ _____    ______ ____
ROOT
ATOM      1  O   LIG    1        0.002  -0.004   0.002  0.00  0.00    -0.520 OA
ATOM      2  C   LIG    1       -0.014   1.211   0.009  0.00  0.00    +0.660 C 
ATOM      3  N   LIG    1       -1.200   1.828   0.029  0.00  0.00    -0.730 N 
ATOM      4  H   LIG    1       -2.008   1.295  -0.035  0.00  0.00    +0.420 HD
ATOM      5  C   LIG    1       -1.320   3.285   0.143  0.00  0.00    +0.260 C 
ATOM      6  C   LIG    1       -0.048   3.933  -0.421  0.00  0.00    +0.060 C 
ATOM      7  C   LIG    1        1.158   3.283   0.265  0.00  0.00    +0.130 C 
ATOM      8  C   LIG    1        1.085   3.510   1.772  0.00  0.00    +0.190 C 
ATOM      9  C   LIG    1       -0.220   2.948   2.336  0.00  0.00    +0.110 C 
ATOM     10  C   LIG    1       -1.416   3.630   1.639  0.00  0.00    +0.140 C 
ATOM     11  O   LIG    1        1.157   1.862   0.001  0.00  0.00    -0.310 OA
ENDROOT
BRANCH   9  12
ATOM     12  O   LIG    1       -0.290   3.225   3.736  0.00  0.00    -0.560 OA
ATOM     13  H   LIG    1       -1.094   2.897   4.162  0.00  0.00    +0.390 HD
ENDBRANCH   9  12
BRANCH   8  14
ATOM     14  O   LIG    1        2.189   2.857   2.401  0.00  0.00    -0.520 OA
ATOM     15  H   LIG    1        2.210   2.957   3.362  0.00  0.00    +0.380 HD
ENDBRANCH   8  14
BRANCH  10  16
ATOM     16  O   LIG    1       -1.356   5.042   1.849  0.00  0.00    -0.550 OA
ATOM     17  H   LIG    1       -1.385   5.303   2.780  0.00  0.00    +0.390 HD
ENDBRANCH  10  16
BRANCH   7  18
ATOM     18  C   LIG    1        2.445   3.909  -0.277  0.00  0.00    +0.220 C 
BRANCH  18  19
ATOM     19  O   LIG    1        3.573   3.306   0.360  0.00  0.00    -0.540 OA
ATOM     20  H   LIG    1        4.425   3.655   0.064  0.00  0.00    +0.380 HD
ENDBRANCH  18  19
ENDBRANCH   7  18
TORSDOF 5
ENDMDL
MODEL      297
REMARK  Name = ZINC000071255883
REMARK                            x       y       z     vdW  Elec       q    Type
REMARK                         _______ _______ _______ _____ _____    ______ ____
ROOT
ATOM      1  N   VAL A  1       -1.413  -2.002   0.005  0.00  0.00    -0.480 N 
ATOM      2  H1  VAL A  1       -0.856  -2.336   0.777  0.00  0.00    +0.410 HD
ATOM      3  H2  VAL A  1       -1.015  -2.329  -0.863  0.00  0.00    +0.420 HD
ENDROOT
BRANCH   1   4
ATOM      4  CA  VAL A  1       -1.433  -0.534   0.013  0.00  0.00    +0.080 C 
BRANCH   4   6
ATOM      5  CG1 VAL A  1       -0.019   1.526   0.010  0.00  0.00    +0.060 C 
ATOM      6  CB  VAL A  1        0.002  -0.004   0.002  0.00  0.00    -0.020 C 
ATOM      7  CG2 VAL A  1        0.742  -0.511   1.242  0.00  0.00    +0.040 C 
ENDBRANCH   4   6
BRANCH   4   8
ATOM      8  C   VAL A  1       -2.162  -0.034  -1.208  0.00  0.00    +0.490 C 
ATOM      9  OXT VAL A  1       -2.452   1.146  -1.305  0.00  0.00    -0.630 OA
ATOM     10  O   VAL A  1       -2.462  -0.811  -2.099  0.00  0.00    -0.670 OA
ENDBRANCH   4   8
ENDBRANCH   1   4
BRANCH   1  11
ATOM     11  C   UNK A  0       -2.785  -2.511   0.136  0.00  0.00    +0.250 C 
BRANCH  11  12
ATOM     12  C   UNK A  0       -2.764  -4.041   0.128  0.00  0.00    +0.190 C 
BRANCH  12  13
ATOM     13  O   UNK A  0       -2.073  -4.515   1.285  0.00  0.00    -0.550 OA
ATOM     14  H   UNK A  0       -2.473  -4.239   2.122  0.00  0.00    +0.390 HD
ENDBRANCH  12  13
BRANCH  12  15
ATOM     15  C   UNK A  0       -4.200  -4.571   0.138  0.00  0.00    +0.200 C 
BRANCH  15  16
ATOM     16  O   UNK A  0       -4.891  -4.098  -1.019  0.00  0.00    -0.540 OA
ATOM     17  H   UNK A  0       -4.492  -4.373  -1.856  0.00  0.00    +0.380 HD
ENDBRANCH  15  16
BRANCH  15  18
ATOM     18  C   UNK A  0       -4.179  -6.101   0.130  0.00  0.00    +0.160 C 
BRANCH  18  19
ATOM     19  O   UNK A  0       -5.513  -6.596   0.257  0.00  0.00    -0.560 OA
ATOM     20  H   UNK A  0       -5.576  -7.561   0.260  0.00  0.00    +0.390 HD
ENDBRANCH  18  19
ENDBRANCH  15  18
ENDBRANCH  12  15
ENDBRANCH  11  12
ENDBRANCH   1  11
TORSDOF 10
ENDMDL
MODEL      298
REMARK  Name = ZINC000071255881
REMARK                            x       y       z     vdW  Elec       q    Type
REMARK                         _______ _______ _______ _____ _____    ______ ____
ROOT
ATOM      1  N   VAL A  1       -1.413  -2.002   0.005  0.00  0.00    -0.480 N 
ATOM      2  H1  VAL A  1       -0.856  -2.336   0.777  0.00  0.00    +0.400 HD
ATOM      3  H2  VAL A  1       -1.015  -2.329  -0.863  0.00  0.00    +0.430 HD
ENDROOT
BRANCH   1   4
ATOM      4  CA  VAL A  1       -1.433  -0.534   0.013  0.00  0.00    +0.080 C 
BRANCH   4   6
ATOM      5  CG1 VAL A  1       -0.019   1.526   0.010  0.00  0.00    +0.060 C 
ATOM      6  CB  VAL A  1        0.002  -0.004   0.002  0.00  0.00    -0.020 C 
ATOM      7  CG2 VAL A  1        0.742  -0.511   1.242  0.00  0.00    +0.030 C 
ENDBRANCH   4   6
BRANCH   4   8
ATOM      8  C   VAL A  1       -2.162  -0.034  -1.208  0.00  0.00    +0.500 C 
ATOM      9  OXT VAL A  1       -2.452   1.146  -1.305  0.00  0.00    -0.630 OA
ATOM     10  O   VAL A  1       -2.462  -0.811  -2.099  0.00  0.00    -0.670 OA
ENDBRANCH   4   8
ENDBRANCH   1   4
BRANCH   1  11
ATOM     11  C   UNK A  0       -2.785  -2.511   0.136  0.00  0.00    +0.250 C 
BRANCH  11  12
ATOM     12  C   UNK A  0       -2.764  -4.041   0.128  0.00  0.00    +0.180 C 
BRANCH  12  13
ATOM     13  O   UNK A  0       -2.200  -4.503  -1.101  0.00  0.00    -0.550 OA
ATOM     14  H   UNK A  0       -2.686  -4.220  -1.888  0.00  0.00    +0.390 HD
ENDBRANCH  12  13
BRANCH  12  15
ATOM     15  C   UNK A  0       -4.193  -4.572   0.264  0.00  0.00    +0.200 C 
BRANCH  15  16
ATOM     16  O   UNK A  0       -5.011  -4.007  -0.763  0.00  0.00    -0.540 OA
ATOM     17  H   UNK A  0       -4.714  -4.214  -1.660  0.00  0.00    +0.380 HD
ENDBRANCH  15  16
BRANCH  15  18
ATOM     18  C   UNK A  0       -4.186  -6.096   0.131  0.00  0.00    +0.170 C 
BRANCH  18  19
ATOM     19  O   UNK A  0       -5.501  -6.601   0.374  0.00  0.00    -0.560 OA
ATOM     20  H   UNK A  0       -5.571  -7.563   0.306  0.00  0.00    +0.390 HD
ENDBRANCH  18  19
ENDBRANCH  15  18
ENDBRANCH  12  15
ENDBRANCH  11  12
ENDBRANCH   1  11
TORSDOF 10
ENDMDL
MODEL      299
REMARK  Name = ZINC000005352949
REMARK                            x       y       z     vdW  Elec       q    Type
REMARK                         _______ _______ _______ _____ _____    ______ ____
ROOT
ATOM      1  C   LIG    1       -1.433  -0.534   0.013  0.00  0.00    +0.178 C 
ATOM      2  O   LIG    1       -2.089  -0.158  -1.200  0.00  0.00    -0.340 OA
ATOM      3  C   LIG    1       -3.451  -0.583  -1.283  0.00  0.00    +0.286 C 
ATOM      4  C   LIG    1       -3.512  -2.111  -1.218  0.00  0.00    +0.196 C 
ATOM      5  C   LIG    1       -2.851  -2.587   0.079  0.00  0.00    +0.186 C 
ATOM      6 CL   LIG    1       -2.639  -2.810  -2.633  0.00  0.00    -0.093 Cl
ATOM      7 CL   LIG    1       -5.233  -2.647  -1.249  0.00  0.00    -0.093 Cl
ATOM      8  C   LIG    1       -1.413  -2.060   0.130  0.00  0.00    +0.177 C 
ENDROOT
BRANCH   5   9
ATOM      9  O   LIG    1       -2.840  -4.015   0.114  0.00  0.00    -0.386 OA
ATOM     10  H   LIG    1       -3.719  -4.417   0.079  0.00  0.00    +0.210 HD
ENDBRANCH   5   9
BRANCH   3  11
ATOM     11  O   LIG    1       -4.016  -0.135  -2.517  0.00  0.00    -0.365 OA
ATOM     12  H   LIG    1       -4.010   0.826  -2.626  0.00  0.00    +0.213 HD
ENDBRANCH   3  11
BRANCH   8  13
ATOM     13  O   LIG    1       -0.664  -2.613  -0.954  0.00  0.00    -0.386 OA
ATOM     14  H   LIG    1       -0.614  -3.579  -0.945  0.00  0.00    +0.210 HD
ENDBRANCH   8  13
BRANCH   1  15
ATOM     15  C   LIG    1        0.002  -0.004   0.002  0.00  0.00    +0.190 C 
BRANCH  15  16
ATOM     16  O   LIG    1       -0.017   1.425   0.010  0.00  0.00    -0.392 OA
ATOM     17  H   LIG    1        0.861   1.830   0.004  0.00  0.00    +0.210 HD
ENDBRANCH  15  16
ENDBRANCH   1  15
TORSDOF 5
ENDMDL
MODEL      300
REMARK  Name = ZINC000005411412
REMARK                            x       y       z     vdW  Elec       q    Type
REMARK                         _______ _______ _______ _____ _____    ______ ____
ROOT
ATOM      1  C   LIG    1       -1.433  -0.534   0.013  0.00  0.00    +0.177 C 
ATOM      2  O   LIG    1       -2.093  -0.123  -1.201  0.00  0.00    -0.347 OA
ATOM      3  C   LIG    1       -3.395  -0.639  -1.262  0.00  0.00    +0.250 C 
ATOM      4  N   LIG    1       -4.308  -0.341  -2.340  0.00  0.00    -0.281 N 
ATOM      5  H   LIG    1       -4.417   0.515  -2.785  0.00  0.00    +0.152 HD
ATOM      6  C   LIG    1       -4.986  -1.488  -2.613  0.00  0.00    +0.231 C 
ATOM      7  O   LIG    1       -4.622  -2.508  -1.783  0.00  0.00    -0.464 OA
ATOM      8  S   LIG    1       -6.158  -1.635  -3.852  0.00  0.00    +0.006 S 
ATOM      9  C   LIG    1       -3.279  -2.184  -1.389  0.00  0.00    +0.253 C 
ATOM     10  C   LIG    1       -2.780  -2.657  -0.036  0.00  0.00    +0.190 C 
ATOM     11  C   LIG    1       -1.400  -2.052   0.163  0.00  0.00    +0.178 C 
ENDROOT
BRANCH  10  12
ATOM     12  O   LIG    1       -2.690  -4.083  -0.015  0.00  0.00    -0.385 OA
ATOM     13  H   LIG    1       -2.377  -4.445   0.825  0.00  0.00    +0.210 HD
ENDBRANCH  10  12
BRANCH  11  14
ATOM     14  O   LIG    1       -0.931  -2.378   1.472  0.00  0.00    -0.386 OA
ATOM     15  H   LIG    1       -0.053  -2.026   1.675  0.00  0.00    +0.210 HD
ENDBRANCH  11  14
BRANCH   1  16
ATOM     16  C   LIG    1        0.002  -0.004   0.002  0.00  0.00    +0.190 C 
BRANCH  16  17
ATOM     17  O   LIG    1       -0.017   1.425   0.010  0.00  0.00    -0.392 OA
ATOM     18  H   LIG    1        0.861   1.830   0.004  0.00  0.00    +0.210 HD
ENDBRANCH  16  17
ENDBRANCH   1  16
TORSDOF 4
ENDMDL
MODEL      301
REMARK  Name = ZINC000005411393
REMARK                            x       y       z     vdW  Elec       q    Type
REMARK                         _______ _______ _______ _____ _____    ______ ____
ROOT
ATOM      1  C   LIG    1       -1.433  -0.534   0.013  0.00  0.00    +0.177 C 
ATOM      2  O   LIG    1       -2.093  -0.123  -1.201  0.00  0.00    -0.347 OA
ATOM      3  C   LIG    1       -3.395  -0.639  -1.262  0.00  0.00    +0.250 C 
ATOM      4  N   LIG    1       -4.308  -0.341  -2.340  0.00  0.00    -0.281 N 
ATOM      5  H   LIG    1       -4.417   0.515  -2.785  0.00  0.00    +0.152 HD
ATOM      6  C   LIG    1       -4.986  -1.488  -2.613  0.00  0.00    +0.231 C 
ATOM      7  O   LIG    1       -4.622  -2.508  -1.783  0.00  0.00    -0.464 OA
ATOM      8  S   LIG    1       -6.158  -1.635  -3.852  0.00  0.00    +0.006 S 
ATOM      9  C   LIG    1       -3.279  -2.184  -1.389  0.00  0.00    +0.253 C 
ATOM     10  C   LIG    1       -2.780  -2.657  -0.036  0.00  0.00    +0.190 C 
ATOM     11  C   LIG    1       -1.400  -2.052   0.163  0.00  0.00    +0.178 C 
ENDROOT
BRANCH  10  12
ATOM     12  O   LIG    1       -2.690  -4.083  -0.015  0.00  0.00    -0.385 OA
ATOM     13  H   LIG    1       -2.377  -4.445   0.825  0.00  0.00    +0.210 HD
ENDBRANCH  10  12
BRANCH  11  14
ATOM     14  O   LIG    1       -0.505  -2.602  -0.806  0.00  0.00    -0.386 OA
ATOM     15  H   LIG    1        0.399  -2.264  -0.744  0.00  0.00    +0.210 HD
ENDBRANCH  11  14
BRANCH   1  16
ATOM     16  C   LIG    1        0.002  -0.004   0.002  0.00  0.00    +0.190 C 
BRANCH  16  17
ATOM     17  O   LIG    1       -0.017   1.425   0.010  0.00  0.00    -0.392 OA
ATOM     18  H   LIG    1        0.861   1.830   0.004  0.00  0.00    +0.210 HD
ENDBRANCH  16  17
ENDBRANCH   1  16
TORSDOF 4
ENDMDL
MODEL      302
REMARK  Name = ZINC000005352954
REMARK                            x       y       z     vdW  Elec       q    Type
REMARK                         _______ _______ _______ _____ _____    ______ ____
ROOT
ATOM      1  C   LIG    1       -1.433  -0.534   0.013  0.00  0.00    +0.178 C 
ATOM      2  O   LIG    1       -2.089  -0.158  -1.200  0.00  0.00    -0.340 OA
ATOM      3  C   LIG    1       -3.451  -0.583  -1.283  0.00  0.00    +0.286 C 
ATOM      4  C   LIG    1       -3.512  -2.111  -1.218  0.00  0.00    +0.196 C 
ATOM      5  C   LIG    1       -2.851  -2.587   0.079  0.00  0.00    +0.186 C 
ATOM      6 CL   LIG    1       -2.639  -2.810  -2.633  0.00  0.00    -0.093 Cl
ATOM      7 CL   LIG    1       -5.233  -2.647  -1.249  0.00  0.00    -0.093 Cl
ATOM      8  C   LIG    1       -1.413  -2.060   0.130  0.00  0.00    +0.177 C 
ENDROOT
BRANCH   5   9
ATOM      9  O   LIG    1       -2.840  -4.015   0.114  0.00  0.00    -0.386 OA
ATOM     10  H   LIG    1       -3.719  -4.417   0.079  0.00  0.00    +0.210 HD
ENDBRANCH   5   9
BRANCH   3  11
ATOM     11  O   LIG    1       -4.016  -0.135  -2.517  0.00  0.00    -0.365 OA
ATOM     12  H   LIG    1       -4.010   0.826  -2.626  0.00  0.00    +0.213 HD
ENDBRANCH   3  11
BRANCH   8  13
ATOM     13  O   LIG    1       -0.810  -2.438   1.369  0.00  0.00    -0.386 OA
ATOM     14  H   LIG    1       -0.768  -3.393   1.510  0.00  0.00    +0.210 HD
ENDBRANCH   8  13
BRANCH   1  15
ATOM     15  C   LIG    1        0.002  -0.004   0.002  0.00  0.00    +0.190 C 
BRANCH  15  16
ATOM     16  O   LIG    1       -0.017   1.425   0.010  0.00  0.00    -0.392 OA
ATOM     17  H   LIG    1        0.861   1.830   0.004  0.00  0.00    +0.210 HD
ENDBRANCH  15  16
ENDBRANCH   1  15
TORSDOF 5
ENDMDL
MODEL      303
REMARK  Name = ZINC000002169822
REMARK                            x       y       z     vdW  Elec       q    Type
REMARK                         _______ _______ _______ _____ _____    ______ ____
ROOT
ATOM      1  C   LIG    1       -0.019   1.526   0.010  0.00  0.00    +0.074 C 
ATOM      2  C   LIG    1        0.002  -0.004   0.002  0.00  0.00    +0.168 C 
ATOM      3  O   LIG    1        0.714  -0.480  -1.175  0.00  0.00    -0.318 OA
ATOM      4  C   LIG    1        1.689  -1.331  -0.675  0.00  0.00    +0.285 C 
ATOM      5  O   LIG    1        2.946  -1.699  -1.138  0.00  0.00    -0.340 OA
ATOM      6  C   LIG    1        3.570  -2.362   0.003  0.00  0.00    +0.183 C 
ATOM      7  C   LIG    1        2.915  -1.763   1.281  0.00  0.00    +0.180 C 
ATOM      8  C   LIG    1        2.035  -0.654   0.704  0.00  0.00    +0.208 C 
ATOM      9  C   LIG    1       -1.431  -0.541  -0.006  0.00  0.00    +0.074 C 
ATOM     10  O   LIG    1        0.706  -0.494   1.180  0.00  0.00    -0.338 OA
ENDROOT
BRANCH   7  11
ATOM     11  O   LIG    1        3.908  -1.206   2.145  0.00  0.00    -0.386 OA
ATOM     12  H   LIG    1        4.554  -1.849   2.467  0.00  0.00    +0.210 HD
ENDBRANCH   7  11
BRANCH   6  13
ATOM     13  C   LIG    1        5.076  -2.089   0.008  0.00  0.00    +0.171 C 
BRANCH  13  14
ATOM     14  O   LIG    1        5.306  -0.690   0.183  0.00  0.00    -0.387 OA
ATOM     15  H   LIG    1        4.918  -0.138  -0.510  0.00  0.00    +0.210 HD
ENDBRANCH  13  14
BRANCH  13  16
ATOM     16  C   LIG    1        5.681  -2.544  -1.321  0.00  0.00    +0.189 C 
BRANCH  16  17
ATOM     17  O   LIG    1        7.101  -2.397  -1.273  0.00  0.00    -0.392 OA
ATOM     18  H   LIG    1        7.553  -2.667  -2.085  0.00  0.00    +0.210 HD
ENDBRANCH  16  17
ENDBRANCH  13  16
ENDBRANCH   6  13
TORSDOF 5
ENDMDL
MODEL      304
REMARK  Name = ZINC000006599454
REMARK                            x       y       z     vdW  Elec       q    Type
REMARK                         _______ _______ _______ _____ _____    ______ ____
ROOT
ATOM      1  O   LIG    1        0.002  -0.004   0.002  0.00  0.00    -0.460 OA
ATOM      2  C   LIG    1       -0.014   1.210   0.009  0.00  0.00    +0.520 C 
ATOM      3  N   LIG    1        1.143   1.899   0.001  0.00  0.00    -0.600 N 
ATOM      4  H   LIG    1        1.130   2.869   0.007  0.00  0.00    +0.440 HD
ENDROOT
BRANCH   3   5
ATOM      5  C   LIG    1        2.362   1.218  -0.014  0.00  0.00    +0.440 A 
ATOM      6  N   LIG    1        2.508  -0.086  -0.028  0.00  0.00    -0.290 NA
ATOM      7  N   LIG    1        3.890  -0.339  -0.041  0.00  0.00    -0.480 N 
ATOM      8  H   LIG    1        4.321  -1.208  -0.053  0.00  0.00    +0.450 HD
ATOM      9  C   LIG    1        4.496   0.860  -0.034  0.00  0.00    +0.520 A 
ATOM     10  N   LIG    1        3.572   1.786  -0.022  0.00  0.00    -0.550 NA
ENDBRANCH   3   5
BRANCH   2  11
ATOM     11  C   LIG    1       -1.317   1.938   0.019  0.00  0.00    +0.520 C 
ATOM     12  N   LIG    1       -2.475   1.249   0.021  0.00  0.00    -0.600 N 
ATOM     13  H   LIG    1       -2.462   0.279   0.015  0.00  0.00    +0.440 HD
ATOM     14  O   LIG    1       -1.333   3.152   0.025  0.00  0.00    -0.460 OA
BRANCH  12  15
ATOM     15  C   LIG    1       -3.694   1.930   0.030  0.00  0.00    +0.440 A 
ATOM     16  N   LIG    1       -3.840   3.234   0.032  0.00  0.00    -0.290 NA
ATOM     17  N   LIG    1       -5.221   3.487   0.042  0.00  0.00    -0.480 N 
ATOM     18  H   LIG    1       -5.652   4.356   0.045  0.00  0.00    +0.450 HD
ATOM     19  C   LIG    1       -5.828   2.288   0.045  0.00  0.00    +0.520 A 
ATOM     20  N   LIG    1       -4.903   1.362   0.033  0.00  0.00    -0.550 NA
ENDBRANCH  12  15
ENDBRANCH   2  11
TORSDOF 3
ENDMDL
MODEL      305
REMARK  Name = ZINC000085397273
REMARK                            x       y       z     vdW  Elec       q    Type
REMARK                         _______ _______ _______ _____ _____    ______ ____
ROOT
ATOM      1  C   LIG    1       -2.796  -0.762  -1.428  0.00  0.00    -0.940 A 
ATOM      2  C   LIG    1       -2.284  -1.429  -2.507  0.00  0.00    +0.590 A 
ATOM      3  N   LIG    1       -2.383  -0.867  -3.756  0.00  0.00    -0.540 N 
ATOM      4  C   LIG    1       -2.978   0.329  -3.920  0.00  0.00    +0.710 A 
ATOM      5  N   LIG    1       -3.488   0.998  -2.869  0.00  0.00    -0.560 N 
ATOM      6  C   LIG    1       -4.131   2.298  -3.079  0.00  0.00    +0.340 C 
ATOM      7  O   LIG    1       -3.057   0.812  -5.033  0.00  0.00    -0.520 OA
ATOM      8  C   LIG    1       -1.838  -1.573  -4.918  0.00  0.00    +0.350 C 
ATOM      9  C   LIG    1       -3.417   0.481  -1.627  0.00  0.00    +0.600 A 
ATOM     10  O   LIG    1       -3.881   1.093  -0.680  0.00  0.00    -0.490 OA
ENDROOT
BRANCH   1  11
ATOM     11  S   LIG    1       -2.684  -1.457   0.187  0.00  0.00    +2.730 S 
ATOM     12  O   LIG    1       -3.746  -0.890   0.942  0.00  0.00    -0.920 OA
ATOM     13  O   LIG    1       -2.518  -2.857   0.011  0.00  0.00    -0.970 OA
BRANCH  11  15
ATOM     14  C   LIG    1       -1.118   0.529   1.145  0.00  0.00    +0.300 C 
ATOM     15  N   LIG    1       -1.280  -0.900   0.864  0.00  0.00    -1.120 NA
ATOM     16  H   LIG    1       -0.564  -1.520   1.075  0.00  0.00    +0.420 HD
ENDBRANCH  11  15
ENDBRANCH   1  11
BRANCH   2  17
ATOM     17  N   LIG    1       -1.677  -2.647  -2.342  0.00  0.00    -0.820 N 
ATOM     18  H   LIG    1       -1.643  -3.276  -3.081  0.00  0.00    +0.420 HD
ATOM     19  H   LIG    1       -1.282  -2.881  -1.488  0.00  0.00    +0.430 HD
ENDBRANCH   2  17
TORSDOF 3
ENDMDL
MODEL      306
REMARK  Name = ZINC000040168132
REMARK                            x       y       z     vdW  Elec       q    Type
REMARK                         _______ _______ _______ _____ _____    ______ ____
ROOT
ATOM      1  O   LIG    1        0.002  -0.004   0.002  0.00  0.00    -0.910 OA
ATOM      2  S   LIG    1       -0.017   1.417   0.010  0.00  0.00    +2.420 S 
ATOM      3  C   LIG    1       -0.458   2.011   1.692  0.00  0.00    -0.280 C 
ATOM      4  C   LIG    1        0.925   2.127   2.358  0.00  0.00    +0.210 C 
ATOM      5  N   LIG    1        0.924   2.954   3.560  0.00  0.00    -0.660 N 
ATOM      6  H   LIG    1        0.124   3.055   4.099  0.00  0.00    +0.450 HD
ATOM      7  C   LIG    1        2.081   3.574   3.895  0.00  0.00    +0.550 C 
ATOM      8  N   LIG    1        3.181   3.491   3.126  0.00  0.00    -0.520 N 
ATOM      9  H   LIG    1        4.012   3.879   3.443  0.00  0.00    +0.470 HD
ATOM     10  O   LIG    1        3.153   2.847   1.856  0.00  0.00    -0.130 OA
ATOM     11  S   LIG    1        2.143   4.490   5.340  0.00  0.00    -0.580 S 
ATOM     12  C   LIG    1        1.839   2.808   1.318  0.00  0.00    +0.150 C 
ATOM     13  O   LIG    1       -0.784   2.120  -0.958  0.00  0.00    -0.910 OA
ATOM     14  C   LIG    1        1.705   2.049  -0.003  0.00  0.00    -0.260 C 
ENDROOT
TORSDOF 0
ENDMDL
MODEL      307
REMARK  Name = ZINC000040168129
REMARK                            x       y       z     vdW  Elec       q    Type
REMARK                         _______ _______ _______ _____ _____    ______ ____
ROOT
ATOM      1  O   LIG    1        0.002  -0.004   0.002  0.00  0.00    -0.920 OA
ATOM      2  S   LIG    1       -0.017   1.417   0.010  0.00  0.00    +2.410 S 
ATOM      3  C   LIG    1       -0.461   2.009   1.687  0.00  0.00    -0.300 C 
ATOM      4  C   LIG    1        0.922   2.143   2.370  0.00  0.00    +0.240 C 
ATOM      5  N   LIG    1        0.808   2.983   3.557  0.00  0.00    -0.660 N 
ATOM      6  H   LIG    1        0.559   2.578   4.402  0.00  0.00    +0.440 HD
ATOM      7  C   LIG    1        1.039   4.306   3.505  0.00  0.00    +0.560 C 
ATOM      8  N   LIG    1        1.394   4.903   2.354  0.00  0.00    -0.520 N 
ATOM      9  H   LIG    1        1.586   5.854   2.345  0.00  0.00    +0.470 HD
ATOM     10  O   LIG    1        1.488   4.158   1.156  0.00  0.00    -0.150 OA
ATOM     11  S   LIG    1        0.881   5.245   4.928  0.00  0.00    -0.580 S 
ATOM     12  C   LIG    1        1.867   2.785   1.342  0.00  0.00    +0.180 C 
ATOM     13  O   LIG    1       -0.784   2.119  -0.959  0.00  0.00    -0.910 OA
ATOM     14  C   LIG    1        1.700   2.046  -0.003  0.00  0.00    -0.260 C 
ENDROOT
TORSDOF 0
ENDMDL
MODEL      308
REMARK  Name = ZINC000040168127
REMARK                            x       y       z     vdW  Elec       q    Type
REMARK                         _______ _______ _______ _____ _____    ______ ____
ROOT
ATOM      1  O   LIG    1        0.002  -0.004   0.002  0.00  0.00    -0.910 OA
ATOM      2  S   LIG    1       -0.017   1.417   0.010  0.00  0.00    +2.420 S 
ATOM      3  C   LIG    1       -0.458   2.010   1.689  0.00  0.00    -0.280 C 
ATOM      4  C   LIG    1        0.776   2.789   2.150  0.00  0.00    +0.220 C 
ATOM      5  N   LIG    1        0.991   2.778   3.591  0.00  0.00    -0.660 N 
ATOM      6  H   LIG    1        0.259   2.620   4.208  0.00  0.00    +0.440 HD
ATOM      7  C   LIG    1        2.251   2.998   4.038  0.00  0.00    +0.550 C 
ATOM      8  N   LIG    1        3.284   3.163   3.192  0.00  0.00    -0.530 N 
ATOM      9  H   LIG    1        4.154   3.402   3.548  0.00  0.00    +0.460 HD
ATOM     10  O   LIG    1        3.130   2.996   1.786  0.00  0.00    -0.120 OA
ATOM     11  S   LIG    1        2.536   3.067   5.724  0.00  0.00    -0.580 S 
ATOM     12  C   LIG    1        2.020   2.146   1.502  0.00  0.00    +0.160 C 
ATOM     13  O   LIG    1       -0.784   2.120  -0.958  0.00  0.00    -0.910 OA
ATOM     14  C   LIG    1        1.709   2.050  -0.003  0.00  0.00    -0.260 C 
ENDROOT
TORSDOF 0
ENDMDL
MODEL      309
REMARK  Name = ZINC000584578376
REMARK                            x       y       z     vdW  Elec       q    Type
REMARK                         _______ _______ _______ _____ _____    ______ ____
ROOT
ATOM      1  C   LIG    1       -0.018   1.503   0.010  0.00  0.00    +0.140 C 
ATOM      2  C   LIG    1        0.002  -0.004   0.002  0.00  0.00    -0.260 A 
ATOM      3  C   LIG    1       -1.153  -0.704   0.004  0.00  0.00    +0.360 A 
ATOM      4  N   LIG    1       -1.116  -2.072  -0.004  0.00  0.00    -0.530 N 
ATOM      5  C   LIG    1        0.060  -2.726  -0.013  0.00  0.00    +0.710 A 
ATOM      6  N   LIG    1        1.226  -2.053  -0.016  0.00  0.00    -0.660 N 
ATOM      7  H   LIG    1        2.064  -2.540  -0.023  0.00  0.00    +0.430 HD
ATOM      8  O   LIG    1        0.069  -3.942  -0.020  0.00  0.00    -0.540 OA
ATOM      9  C   LIG    1        1.232  -0.705  -0.013  0.00  0.00    +0.550 A 
ATOM     10  O   LIG    1        2.287  -0.095  -0.016  0.00  0.00    -0.510 OA
ENDROOT
BRANCH   4  11
ATOM     11  C   LIG    1       -2.369  -2.831  -0.002  0.00  0.00    +0.460 C 
ATOM     12  O   LIG    1       -3.500  -1.935  -0.062  0.00  0.00    -0.350 OA
ATOM     13  C   LIG    1       -4.597  -2.740  -0.547  0.00  0.00    +0.210 C 
ATOM     14  C   LIG    1       -3.978  -3.629  -1.647  0.00  0.00    +0.140 C 
ATOM     15  O   LIG    1       -2.985  -3.052  -2.497  0.00  0.00    -0.310 OA
ATOM     16  C   LIG    1       -2.477  -3.693  -1.280  0.00  0.00    +0.120 C 
BRANCH  13  17
ATOM     17  C   LIG    1       -5.693  -1.847  -1.133  0.00  0.00    +0.210 C 
BRANCH  17  18
ATOM     18  O   LIG    1       -6.280  -1.066  -0.090  0.00  0.00    -0.570 OA
ATOM     19  H   LIG    1       -6.985  -0.476  -0.391  0.00  0.00    +0.390 HD
ENDBRANCH  17  18
ENDBRANCH  13  17
ENDBRANCH   4  11
TORSDOF 3
ENDMDL
MODEL      310
REMARK  Name = ZINC000051884337
REMARK                            x       y       z     vdW  Elec       q    Type
REMARK                         _______ _______ _______ _____ _____    ______ ____
ROOT
ATOM      1  O   LIG    1        0.002  -0.004   0.002  0.00  0.00    -0.500 OA
ATOM      2  C   LIG    1       -0.014   1.209   0.009  0.00  0.00    +0.520 C 
ATOM      3  N   LIG    1       -1.191   1.867   0.018  0.00  0.00    -0.610 N 
ATOM      4  C   LIG    1       -1.355   3.328   0.020  0.00  0.00    +0.250 C 
ATOM      5  C   LIG    1       -2.871   3.618   0.003  0.00  0.00    +0.050 C 
ATOM      6  C   LIG    1       -3.469   2.310  -0.579  0.00  0.00    -0.010 C 
ATOM      7  C   LIG    1       -2.525   1.240   0.021  0.00  0.00    +0.280 C 
ENDROOT
BRANCH   6   8
ATOM      8  C   LIG    1       -4.908   2.105  -0.102  0.00  0.00    +0.190 C 
BRANCH   8   9
ATOM      9  O   LIG    1       -5.742   3.126  -0.654  0.00  0.00    -0.570 OA
ATOM     10  H   LIG    1       -6.671   3.058  -0.393  0.00  0.00    +0.390 HD
ENDBRANCH   8   9
ENDBRANCH   6   8
BRANCH   2  11
ATOM     11  C   LIG    1        1.280   1.980   0.001  0.00  0.00    +0.380 C 
BRANCH  11  12
ATOM     12  N   LIG    1        2.407   1.043  -0.015  0.00  0.00    -0.310 N 
ATOM     13  C   LIG    1        3.413   1.018  -0.909  0.00  0.00    +0.400 A 
ATOM     14  N   LIG    1        4.201   0.030  -0.560  0.00  0.00    -0.300 NA
ATOM     15  N   LIG    1        3.705  -0.522   0.493  0.00  0.00    -0.070 NA
ATOM     16  N   LIG    1        2.623   0.091   0.828  0.00  0.00    -0.060 NA
ENDBRANCH  11  12
ENDBRANCH   2  11
TORSDOF 4
ENDMDL
MODEL      311
REMARK  Name = ZINC000051884294
REMARK                            x       y       z     vdW  Elec       q    Type
REMARK                         _______ _______ _______ _____ _____    ______ ____
ROOT
ATOM      1  C   LIG    1       -2.550  -2.680   0.012  0.00  0.00    +0.530 C 
ATOM      2  N   LIG    1       -2.778  -4.008   0.007  0.00  0.00    -0.620 N 
ATOM      3  C   LIG    1       -1.746  -5.055  -0.002  0.00  0.00    +0.250 C 
ATOM      4  C   LIG    1       -2.473  -6.416  -0.031  0.00  0.00    +0.050 C 
ATOM      5  C   LIG    1       -3.867  -6.053  -0.608  0.00  0.00    -0.010 C 
ATOM      6  C   LIG    1       -4.104  -4.652   0.016  0.00  0.00    +0.260 C 
ATOM      7  O   LIG    1       -3.482  -1.905   0.025  0.00  0.00    -0.540 OA
ENDROOT
BRANCH   1   8
ATOM      8  C   LIG    1       -1.136  -2.159   0.001  0.00  0.00    +0.300 C 
BRANCH   8  11
ATOM      9  C   LIG    1       -0.018   1.503   0.010  0.00  0.00    +0.110 C 
ATOM     10  C   LIG    1        0.002  -0.004   0.002  0.00  0.00    +0.510 C 
ATOM     11  N   LIG    1       -1.156  -0.694   0.009  0.00  0.00    -0.720 N 
ATOM     12  H   LIG    1       -2.002  -0.220   0.020  0.00  0.00    +0.410 HD
ATOM     13  O   LIG    1        1.060  -0.596  -0.011  0.00  0.00    -0.550 OA
ENDBRANCH   8  11
ENDBRANCH   1   8
BRANCH   5  14
ATOM     14  C   LIG    1       -4.931  -7.048  -0.140  0.00  0.00    +0.190 C 
BRANCH  14  15
ATOM     15  O   LIG    1       -4.663  -8.332  -0.705  0.00  0.00    -0.570 OA
ATOM     16  H   LIG    1       -5.299  -9.015  -0.450  0.00  0.00    +0.380 HD
ENDBRANCH  14  15
ENDBRANCH   5  14
TORSDOF 4
ENDMDL
MODEL      312
REMARK  Name = ZINC000051884293
REMARK                            x       y       z     vdW  Elec       q    Type
REMARK                         _______ _______ _______ _____ _____    ______ ____
ROOT
ATOM      1  C   LIG    1       -2.550  -2.680   0.012  0.00  0.00    +0.530 C 
ATOM      2  N   LIG    1       -2.778  -4.008   0.007  0.00  0.00    -0.620 N 
ATOM      3  C   LIG    1       -1.746  -5.055  -0.002  0.00  0.00    +0.250 C 
ATOM      4  C   LIG    1       -2.473  -6.416   0.023  0.00  0.00    +0.050 C 
ATOM      5  C   LIG    1       -3.861  -6.058   0.616  0.00  0.00    -0.010 C 
ATOM      6  C   LIG    1       -4.104  -4.652   0.016  0.00  0.00    +0.260 C 
ATOM      7  O   LIG    1       -3.482  -1.905   0.025  0.00  0.00    -0.540 OA
ENDROOT
BRANCH   1   8
ATOM      8  C   LIG    1       -1.136  -2.159   0.001  0.00  0.00    +0.300 C 
BRANCH   8  11
ATOM      9  C   LIG    1       -0.018   1.503   0.010  0.00  0.00    +0.110 C 
ATOM     10  C   LIG    1        0.002  -0.004   0.002  0.00  0.00    +0.510 C 
ATOM     11  N   LIG    1       -1.156  -0.694   0.009  0.00  0.00    -0.720 N 
ATOM     12  H   LIG    1       -2.002  -0.220   0.020  0.00  0.00    +0.410 HD
ATOM     13  O   LIG    1        1.060  -0.596  -0.011  0.00  0.00    -0.550 OA
ENDBRANCH   8  11
ENDBRANCH   1   8
BRANCH   5  14
ATOM     14  C   LIG    1       -4.929  -7.049   0.150  0.00  0.00    +0.190 C 
BRANCH  14  15
ATOM     15  O   LIG    1       -4.656  -8.338   0.702  0.00  0.00    -0.570 OA
ATOM     16  H   LIG    1       -5.295  -9.018   0.448  0.00  0.00    +0.380 HD
ENDBRANCH  14  15
ENDBRANCH   5  14
TORSDOF 4
ENDMDL
MODEL      313
REMARK  Name = ZINC000051884338
REMARK                            x       y       z     vdW  Elec       q    Type
REMARK                         _______ _______ _______ _____ _____    ______ ____
ROOT
ATOM      1  O   LIG    1        0.002  -0.004   0.002  0.00  0.00    -0.500 OA
ATOM      2  C   LIG    1       -0.014   1.209   0.009  0.00  0.00    +0.520 C 
ATOM      3  N   LIG    1       -1.191   1.867   0.018  0.00  0.00    -0.610 N 
ATOM      4  C   LIG    1       -1.355   3.328   0.020  0.00  0.00    +0.250 C 
ATOM      5  C   LIG    1       -2.870   3.618   0.058  0.00  0.00    +0.050 C 
ATOM      6  C   LIG    1       -3.461   2.309   0.646  0.00  0.00    +0.000 C 
ATOM      7  C   LIG    1       -2.525   1.240   0.021  0.00  0.00    +0.280 C 
ENDROOT
BRANCH   6   8
ATOM      8  C   LIG    1       -4.906   2.105   0.188  0.00  0.00    +0.190 C 
BRANCH   8   9
ATOM      9  O   LIG    1       -5.733   3.125   0.753  0.00  0.00    -0.570 OA
ATOM     10  H   LIG    1       -6.665   3.058   0.504  0.00  0.00    +0.390 HD
ENDBRANCH   8   9
ENDBRANCH   6   8
BRANCH   2  11
ATOM     11  C   LIG    1        1.280   1.980   0.001  0.00  0.00    +0.380 C 
BRANCH  11  12
ATOM     12  N   LIG    1        2.407   1.043  -0.015  0.00  0.00    -0.310 N 
ATOM     13  C   LIG    1        3.413   1.018  -0.909  0.00  0.00    +0.400 A 
ATOM     14  N   LIG    1        4.201   0.030  -0.560  0.00  0.00    -0.300 NA
ATOM     15  N   LIG    1        3.705  -0.522   0.493  0.00  0.00    -0.070 NA
ATOM     16  N   LIG    1        2.623   0.091   0.828  0.00  0.00    -0.060 NA
ENDBRANCH  11  12
ENDBRANCH   2  11
TORSDOF 4
ENDMDL
MODEL      314
REMARK  Name = ZINC000070797900
REMARK                            x       y       z     vdW  Elec       q    Type
REMARK                         _______ _______ _______ _____ _____    ______ ____
ROOT
ATOM      1  N   LIG    1       -2.408  -4.226   0.002  0.00  0.00    -0.730 N 
ATOM      2  H   LIG    1       -1.526  -4.632  -0.008  0.00  0.00    +0.400 HD
ATOM      3  C   LIG    1       -3.507  -5.005   0.009  0.00  0.00    +0.510 C 
ATOM      4  O   LIG    1       -4.609  -4.499   0.022  0.00  0.00    -0.520 OA
ENDROOT
BRANCH   1   5
ATOM      5  C   LIG    1       -2.543  -2.768   0.011  0.00  0.00    +0.260 C 
BRANCH   5   6
ATOM      6  C   LIG    1       -1.154  -2.126   0.002  0.00  0.00    +0.030 C 
BRANCH   6   7
ATOM      7  C   LIG    1       -1.295  -0.603   0.011  0.00  0.00    +0.160 C 
BRANCH   7   9
ATOM      8  C   LIG    1       -0.017   1.425   0.010  0.00  0.00    +0.200 C 
ATOM      9  O   LIG    1        0.002  -0.004   0.002  0.00  0.00    -0.390 OA
ENDBRANCH   7   9
ENDBRANCH   6   7
ENDBRANCH   5   6
ENDBRANCH   1   5
BRANCH   3  10
ATOM     10  C   LIG    1       -3.368  -6.506  -0.001  0.00  0.00    +0.180 C 
BRANCH  10  11
ATOM     11  N   LIG    1       -4.702  -7.122   0.009  0.00  0.00    -0.440 NA
ATOM     12  C   LIG    1       -5.328  -7.006   1.339  0.00  0.00    +0.190 C 
ATOM     13  C   LIG    1       -5.827  -8.448   1.168  0.00  0.00    +0.160 C 
ATOM     14  C   LIG    1       -4.611  -8.575   0.239  0.00  0.00    +0.130 C 
BRANCH  13  15
ATOM     15  O   LIG    1       -7.086  -8.556   0.501  0.00  0.00    -0.540 OA
ATOM     16  H   LIG    1       -7.398  -9.465   0.395  0.00  0.00    +0.380 HD
ENDBRANCH  13  15
ENDBRANCH  10  11
ENDBRANCH   3  10
TORSDOF 7
ENDMDL
MODEL      315
REMARK  Name = ZINC000005051641
REMARK                            x       y       z     vdW  Elec       q    Type
REMARK                         _______ _______ _______ _____ _____    ______ ____
ROOT
ATOM      1  C   LIG    1       -0.019   1.526   0.010  0.00  0.00    +0.130 C 
ATOM      2  C   LIG    1        0.002  -0.004   0.002  0.00  0.00    +0.140 C 
ATOM      3  C   LIG    1       -1.355  -0.744   0.153  0.00  0.00    -0.010 C 
ATOM      4  C   LIG    1       -1.029  -1.986   0.480  0.00  0.00    +0.000 C 
ATOM      5  C   LIG    1        0.481  -2.076   0.652  0.00  0.00    +0.170 C 
ATOM      6  C   LIG    1        1.256  -1.927  -0.587  0.00  0.00    -0.080 C 
ATOM      7  C   LIG    1        1.892  -2.529  -1.724  0.00  0.00    +0.590 C 
ATOM      8  N   LIG    1        2.308  -1.441  -2.467  0.00  0.00    -0.720 N 
ATOM      9  H   LIG    1        2.931  -1.499  -3.208  0.00  0.00    +0.420 HD
ATOM     10  C   LIG    1        1.736  -0.265  -2.034  0.00  0.00    +0.560 C 
ATOM     11  O   LIG    1        2.130   0.868  -2.209  0.00  0.00    -0.440 OA
ATOM     12  O   LIG    1        2.031  -3.707  -1.972  0.00  0.00    -0.450 OA
ATOM     13  C   LIG    1        0.512  -0.688  -1.288  0.00  0.00    -0.010 C 
ATOM     14  O   LIG    1        0.699  -0.667   1.118  0.00  0.00    -0.350 OA
ENDROOT
BRANCH   5  15
ATOM     15  C   LIG    1        0.960  -3.189   1.586  0.00  0.00    +0.240 C 
BRANCH  15  16
ATOM     16  O   LIG    1        0.291  -3.076   2.844  0.00  0.00    -0.560 OA
ATOM     17  H   LIG    1        0.546  -3.752   3.487  0.00  0.00    +0.390 HD
ENDBRANCH  15  16
ENDBRANCH   5  15
TORSDOF 2
ENDMDL
MODEL      316
REMARK  Name = ZINC000070839699
REMARK                            x       y       z     vdW  Elec       q    Type
REMARK                         _______ _______ _______ _____ _____    ______ ____
ROOT
ATOM      1  O   LIG    1        0.002  -0.004   0.002  0.00  0.00    -0.520 OA
ATOM      2  C   LIG    1       -0.014   1.209   0.009  0.00  0.00    +0.510 C 
ATOM      3  N   LIG    1       -1.191   1.867   0.018  0.00  0.00    -0.730 N 
ATOM      4  H   LIG    1       -1.204   2.837   0.023  0.00  0.00    +0.400 HD
ENDROOT
BRANCH   3   5
ATOM      5  C   LIG    1       -2.449   1.117   0.020  0.00  0.00    +0.260 C 
BRANCH   5   6
ATOM      6  C   LIG    1       -3.626   2.095   0.031  0.00  0.00    +0.160 C 
ATOM      7  C   LIG    1       -4.953   1.317   0.155  0.00  0.00    +0.020 C 
ATOM      8  C   LIG    1       -5.889   2.108  -0.799  0.00  0.00    +0.010 C 
ATOM      9  C   LIG    1       -4.889   2.544  -1.899  0.00  0.00    +0.200 C 
ATOM     10  O   LIG    1       -3.663   2.824  -1.202  0.00  0.00    -0.380 OA
ENDBRANCH   5   6
ENDBRANCH   3   5
BRANCH   2  11
ATOM     11  C   LIG    1        1.280   1.980   0.001  0.00  0.00    +0.180 C 
BRANCH  11  12
ATOM     12  N   LIG    1        2.410   1.040  -0.015  0.00  0.00    -0.440 NA
ATOM     13  C   LIG    1        2.586   0.404   1.303  0.00  0.00    +0.190 C 
ATOM     14  C   LIG    1        4.101   0.576   1.121  0.00  0.00    +0.160 C 
ATOM     15  C   LIG    1        3.685   1.744   0.215  0.00  0.00    +0.130 C 
BRANCH  14  16
ATOM     16  O   LIG    1        4.734  -0.503   0.432  0.00  0.00    -0.540 OA
ATOM     17  H   LIG    1        5.688  -0.392   0.319  0.00  0.00    +0.380 HD
ENDBRANCH  14  16
ENDBRANCH  11  12
ENDBRANCH   2  11
TORSDOF 5
ENDMDL
MODEL      317
REMARK  Name = ZINC000070839910
REMARK                            x       y       z     vdW  Elec       q    Type
REMARK                         _______ _______ _______ _____ _____    ______ ____
ROOT
ATOM      1  O   LIG    1        0.002  -0.004   0.002  0.00  0.00    -0.510 OA
ATOM      2  C   LIG    1       -0.014   1.209   0.009  0.00  0.00    +0.520 C 
ATOM      3  N   LIG    1       -1.191   1.867   0.018  0.00  0.00    -0.620 N 
ATOM      4  C   LIG    1       -1.236   3.337   0.020  0.00  0.00    +0.240 C 
ATOM      5  C   LIG    1       -2.182   3.793  -1.096  0.00  0.00    +0.220 C 
ATOM      6  O   LIG    1       -3.435   3.120  -0.956  0.00  0.00    -0.380 OA
ATOM      7  C   LIG    1       -3.354   1.699  -1.091  0.00  0.00    +0.220 C 
ATOM      8  C   LIG    1       -2.468   1.135   0.020  0.00  0.00    +0.260 C 
ENDROOT
BRANCH   2   9
ATOM      9  C   LIG    1        1.280   1.980   0.001  0.00  0.00    +0.180 C 
BRANCH   9  10
ATOM     10  N   LIG    1        2.410   1.040  -0.015  0.00  0.00    -0.440 NA
ATOM     11  C   LIG    1        2.586   0.404   1.303  0.00  0.00    +0.190 C 
ATOM     12  C   LIG    1        4.101   0.576   1.121  0.00  0.00    +0.160 C 
ATOM     13  C   LIG    1        3.685   1.744   0.215  0.00  0.00    +0.130 C 
BRANCH  12  14
ATOM     14  O   LIG    1        4.734  -0.503   0.432  0.00  0.00    -0.530 OA
ATOM     15  H   LIG    1        5.688  -0.392   0.319  0.00  0.00    +0.380 HD
ENDBRANCH  12  14
ENDBRANCH   9  10
ENDBRANCH   2   9
TORSDOF 3
ENDMDL
MODEL      318
REMARK  Name = ZINC000070839693
REMARK                            x       y       z     vdW  Elec       q    Type
REMARK                         _______ _______ _______ _____ _____    ______ ____
ROOT
ATOM      1  O   LIG    1        0.002  -0.004   0.002  0.00  0.00    -0.520 OA
ATOM      2  C   LIG    1       -0.014   1.209   0.009  0.00  0.00    +0.510 C 
ATOM      3  N   LIG    1       -1.191   1.867   0.018  0.00  0.00    -0.730 N 
ATOM      4  H   LIG    1       -1.204   2.837   0.023  0.00  0.00    +0.400 HD
ENDROOT
BRANCH   3   5
ATOM      5  C   LIG    1       -2.449   1.117   0.020  0.00  0.00    +0.270 C 
BRANCH   5   6
ATOM      6  C   LIG    1       -3.626   2.095   0.031  0.00  0.00    +0.150 C 
ATOM      7  C   LIG    1       -4.968   1.322   0.068  0.00  0.00    +0.020 C 
ATOM      8  C   LIG    1       -5.902   2.384   0.709  0.00  0.00    +0.010 C 
ATOM      9  C   LIG    1       -4.951   3.112   1.683  0.00  0.00    +0.190 C 
ATOM     10  O   LIG    1       -3.609   2.881   1.233  0.00  0.00    -0.380 OA
ENDBRANCH   5   6
ENDBRANCH   3   5
BRANCH   2  11
ATOM     11  C   LIG    1        1.280   1.980   0.001  0.00  0.00    +0.180 C 
BRANCH  11  12
ATOM     12  N   LIG    1        2.410   1.040  -0.015  0.00  0.00    -0.440 NA
ATOM     13  C   LIG    1        2.586   0.404   1.303  0.00  0.00    +0.190 C 
ATOM     14  C   LIG    1        4.101   0.576   1.121  0.00  0.00    +0.160 C 
ATOM     15  C   LIG    1        3.685   1.744   0.215  0.00  0.00    +0.130 C 
BRANCH  14  16
ATOM     16  O   LIG    1        4.734  -0.503   0.432  0.00  0.00    -0.540 OA
ATOM     17  H   LIG    1        5.688  -0.392   0.319  0.00  0.00    +0.380 HD
ENDBRANCH  14  16
ENDBRANCH  11  12
ENDBRANCH   2  11
TORSDOF 5
ENDMDL
MODEL      319
REMARK  Name = ZINC000217342023
REMARK                            x       y       z     vdW  Elec       q    Type
REMARK                         _______ _______ _______ _____ _____    ______ ____
ROOT
ATOM      1  O   LIG    1        0.002  -0.004   0.002  0.00  0.00    -0.420 OA
ATOM      2  C   LIG    1       -0.014   1.204   0.009  0.00  0.00    +0.480 C 
ATOM      3  C   LIG    1       -1.315   1.975   0.032  0.00  0.00    +0.320 C 
ATOM      4  N   LIG    1       -1.210   3.117  -0.876  0.00  0.00    -0.590 N 
ATOM      5  C   LIG    1       -0.044   3.543  -1.370  0.00  0.00    +0.490 C 
ATOM      6  C   LIG    1        1.260   2.838  -1.129  0.00  0.00    +0.340 C 
ATOM      7  O   LIG    1       -0.038   4.550  -2.047  0.00  0.00    -0.510 OA
ATOM      8  O   LIG    1        1.130   1.925   0.002  0.00  0.00    -0.370 OA
ENDROOT
BRANCH   4   9
ATOM      9  C   LIG    1       -2.436   3.823  -1.260  0.00  0.00    +0.270 C 
ATOM     10  C   LIG    1       -2.596   3.807  -2.790  0.00  0.00    +0.070 C 
ATOM     11  C   LIG    1       -3.682   4.828  -3.184  0.00  0.00    -0.310 C 
ATOM     12  S   LIG    1       -3.641   6.098  -1.868  0.00  0.00    +2.400 S 
ATOM     13  O   LIG    1       -4.876   6.087  -1.165  0.00  0.00    -0.930 OA
ATOM     14  O   LIG    1       -3.142   7.316  -2.404  0.00  0.00    -0.930 OA
ATOM     15  C   LIG    1       -2.345   5.312  -0.837  0.00  0.00    -0.320 C 
ENDBRANCH   4   9
TORSDOF 1
ENDMDL
MODEL      320
REMARK  Name = ZINC000217342111
REMARK                            x       y       z     vdW  Elec       q    Type
REMARK                         _______ _______ _______ _____ _____    ______ ____
ROOT
ATOM      1  O   LIG    1        0.002  -0.004   0.002  0.00  0.00    -0.420 OA
ATOM      2  C   LIG    1       -0.014   1.204   0.009  0.00  0.00    +0.480 C 
ATOM      3  C   LIG    1       -1.315   1.975   0.032  0.00  0.00    +0.310 C 
ATOM      4  N   LIG    1       -1.210   3.117  -0.876  0.00  0.00    -0.600 N 
ATOM      5  C   LIG    1       -0.044   3.543  -1.370  0.00  0.00    +0.480 C 
ATOM      6  C   LIG    1        1.260   2.838  -1.129  0.00  0.00    +0.340 C 
ATOM      7  O   LIG    1       -0.038   4.550  -2.047  0.00  0.00    -0.510 OA
ATOM      8  O   LIG    1        1.130   1.925   0.002  0.00  0.00    -0.370 OA
ENDROOT
BRANCH   4   9
ATOM      9  C   LIG    1       -2.436   3.823  -1.260  0.00  0.00    +0.280 C 
ATOM     10  C   LIG    1       -2.332   5.301  -0.847  0.00  0.00    +0.080 C 
ATOM     11  C   LIG    1       -3.487   6.045  -1.565  0.00  0.00    -0.300 C 
ATOM     12  S   LIG    1       -3.449   5.314  -3.245  0.00  0.00    +2.400 S 
ATOM     13  O   LIG    1       -2.587   6.082  -4.073  0.00  0.00    -0.920 OA
ATOM     14  O   LIG    1       -4.777   5.037  -3.669  0.00  0.00    -0.930 OA
ATOM     15  C   LIG    1       -2.618   3.751  -2.789  0.00  0.00    -0.330 C 
ENDBRANCH   4   9
TORSDOF 1
ENDMDL
MODEL      321
REMARK  Name = ZINC000225381194
REMARK                            x       y       z     vdW  Elec       q    Type
REMARK                         _______ _______ _______ _____ _____    ______ ____
ROOT
ATOM      1  C   LIG    1       -0.018   1.465   0.010  0.00  0.00    +0.190 C 
ATOM      2  N   LIG    1        0.002  -0.004   0.002  0.00  0.00    -0.470 NA
ATOM      3  C   LIG    1       -1.246  -0.553   0.568  0.00  0.00    +0.170 C 
ATOM      4  C   LIG    1       -0.389  -1.584   1.299  0.00  0.00    +0.060 C 
ATOM      5  C   LIG    1       -0.834  -1.862   2.716  0.00  0.00    +0.550 C 
ATOM      6  N   LIG    1       -1.345  -3.069   3.041  0.00  0.00    -0.570 N 
ATOM      7  C   LIG    1       -1.591  -4.013   2.101  0.00  0.00    +0.550 C 
ATOM      8  C   LIG    1       -1.388  -3.649   0.664  0.00  0.00    +0.130 C 
ATOM      9  C   LIG    1       -1.107  -4.820  -0.278  0.00  0.00    +0.050 C 
ATOM     10  C   LIG    1       -0.133  -4.229  -1.331  0.00  0.00    +0.180 C 
ATOM     11  C   LIG    1        0.132  -2.773  -0.857  0.00  0.00    +0.250 C 
ATOM     12  O   LIG    1       -1.967  -5.123   2.415  0.00  0.00    -0.480 OA
ATOM     13  C   LIG    1       -1.642  -3.365   4.445  0.00  0.00    +0.310 C 
ATOM     14  O   LIG    1       -0.733  -1.000   3.562  0.00  0.00    -0.480 OA
ATOM     15  N   LIG    1       -0.150  -2.821   0.585  0.00  0.00    -0.490 NA
ATOM     16  C   LIG    1        0.710  -0.530   1.186  0.00  0.00    +0.240 C 
ENDROOT
BRANCH  10  17
ATOM     17  O   LIG    1       -0.739  -4.229  -2.625  0.00  0.00    -0.560 OA
ATOM     18  H   LIG    1       -0.970  -5.110  -2.951  0.00  0.00    +0.390 HD
ENDBRANCH  10  17
TORSDOF 1
ENDMDL
MODEL      322
REMARK  Name = ZINC000014638260
REMARK                            x       y       z     vdW  Elec       q    Type
REMARK                         _______ _______ _______ _____ _____    ______ ____
ROOT
ATOM      1  C   LIG    1        0.059  -4.184  -0.075  0.00  0.00    +0.270 C 
ENDROOT
BRANCH   1   6
ATOM      2  C   LIG    1       -0.018   1.503   0.010  0.00  0.00    +0.150 C 
ATOM      3  C   LIG    1        0.002  -0.004   0.002  0.00  0.00    +0.080 A 
ATOM      4  C   LIG    1        0.006  -0.689  -1.200  0.00  0.00    +0.230 A 
ATOM      5  N   LIG    1        0.024  -2.011  -1.207  0.00  0.00    -0.430 NA
ATOM      6  C   LIG    1        0.038  -2.677  -0.067  0.00  0.00    +0.040 A 
ATOM      7  C   LIG    1        0.034  -1.992   1.136  0.00  0.00    +0.250 A 
ATOM      8  N   LIG    1        0.022  -0.671   1.143  0.00  0.00    -0.440 NA
ENDBRANCH   1   6
BRANCH   1   9
ATOM      9  O   LIG    1        1.284  -4.640  -0.653  0.00  0.00    -0.540 OA
ATOM     10  H   LIG    1        1.422  -4.348  -1.564  0.00  0.00    +0.380 HD
ENDBRANCH   1   9
BRANCH   1  11
ATOM     11  C   LIG    1       -1.119  -4.706  -0.900  0.00  0.00    +0.170 C 
BRANCH  11  12
ATOM     12  O   LIG    1       -2.344  -4.250  -0.322  0.00  0.00    -0.550 OA
ATOM     13  H   LIG    1       -2.482  -4.542   0.589  0.00  0.00    +0.370 HD
ENDBRANCH  11  12
BRANCH  11  14
ATOM     14  C   LIG    1       -1.098  -6.236  -0.908  0.00  0.00    +0.200 C 
BRANCH  14  15
ATOM     15  O   LIG    1       -1.085  -6.720   0.436  0.00  0.00    -0.540 OA
ATOM     16  H   LIG    1       -1.852  -6.448   0.959  0.00  0.00    +0.370 HD
ENDBRANCH  14  15
BRANCH  14  17
ATOM     17  C   LIG    1       -2.343  -6.759  -1.627  0.00  0.00    +0.170 C 
BRANCH  17  18
ATOM     18  O   LIG    1       -2.267  -8.182  -1.738  0.00  0.00    -0.570 OA
ATOM     19  H   LIG    1       -3.025  -8.583  -2.184  0.00  0.00    +0.380 HD
ENDBRANCH  17  18
ENDBRANCH  14  17
ENDBRANCH  11  14
ENDBRANCH   1  11
TORSDOF 8
ENDMDL
MODEL      323
REMARK  Name = ZINC000001576563
REMARK                            x       y       z     vdW  Elec       q    Type
REMARK                         _______ _______ _______ _____ _____    ______ ____
ROOT
ATOM      1  C   LIG    1       -4.396  -4.349   0.021  0.00  0.00    +0.400 C 
ENDROOT
BRANCH   1   2
ATOM      2  C   LIG    1       -4.296  -5.853   0.012  0.00  0.00    -0.140 A 
ATOM      3  C   LIG    1       -4.247  -6.663  -1.078  0.00  0.00    +0.290 A 
ATOM      4  N   LIG    1       -4.162  -7.918  -0.614  0.00  0.00    -0.310 NA
ATOM      5  N   LIG    1       -4.159  -7.891   0.671  0.00  0.00    -0.040 NA
ATOM      6  N   LIG    1       -4.232  -6.678   1.095  0.00  0.00    -0.270 N 
ATOM      7  C   LIG    1       -4.253  -6.256   2.498  0.00  0.00    +0.380 C 
BRANCH   3   8
ATOM      8  N   LIG    1       -4.278  -6.265  -2.424  0.00  0.00    -0.840 N 
ATOM      9  H   LIG    1       -4.237  -6.931  -3.128  0.00  0.00    +0.410 HD
ATOM     10  H   LIG    1       -4.341  -5.324  -2.650  0.00  0.00    +0.410 HD
ENDBRANCH   3   8
ENDBRANCH   1   2
BRANCH   1  12
ATOM     11  C   LIG    1       -2.891  -2.433   0.017  0.00  0.00    +0.530 C 
ATOM     12  N   LIG    1       -3.050  -3.771   0.011  0.00  0.00    -0.700 N 
ATOM     13  H   LIG    1       -2.272  -4.351   0.000  0.00  0.00    +0.420 HD
ATOM     14  O   LIG    1       -3.864  -1.707   0.030  0.00  0.00    -0.480 OA
BRANCH  11  15
ATOM     15  C   LIG    1       -1.518  -1.843   0.007  0.00  0.00    +0.460 C 
ATOM     16  O   LIG    1       -0.547  -2.568  -0.006  0.00  0.00    -0.480 OA
BRANCH  15  17
ATOM     17  O   LIG    1       -1.360  -0.507   0.012  0.00  0.00    -0.330 OA
BRANCH  17  19
ATOM     18  C   LIG    1       -0.019   1.526   0.010  0.00  0.00    +0.080 C 
ATOM     19  C   LIG    1        0.002  -0.004   0.002  0.00  0.00    +0.220 C 
ENDBRANCH  17  19
ENDBRANCH  15  17
ENDBRANCH  11  15
ENDBRANCH   1  12
TORSDOF 6
ENDMDL
MODEL      324
REMARK  Name = ZINC000033832784
REMARK                            x       y       z     vdW  Elec       q    Type
REMARK                         _______ _______ _______ _____ _____    ______ ____
ROOT
ATOM      1  C   LIG    1        0.059  -4.184  -0.075  0.00  0.00    +0.270 C 
ENDROOT
BRANCH   1   6
ATOM      2  C   LIG    1       -0.018   1.503   0.010  0.00  0.00    +0.150 C 
ATOM      3  C   LIG    1        0.002  -0.004   0.002  0.00  0.00    +0.080 A 
ATOM      4  C   LIG    1        0.006  -0.689  -1.200  0.00  0.00    +0.230 A 
ATOM      5  N   LIG    1        0.024  -2.011  -1.207  0.00  0.00    -0.430 NA
ATOM      6  C   LIG    1        0.038  -2.677  -0.067  0.00  0.00    +0.040 A 
ATOM      7  C   LIG    1        0.034  -1.992   1.136  0.00  0.00    +0.240 A 
ATOM      8  N   LIG    1        0.022  -0.671   1.143  0.00  0.00    -0.440 NA
ENDBRANCH   1   6
BRANCH   1   9
ATOM      9  O   LIG    1        1.284  -4.640  -0.653  0.00  0.00    -0.520 OA
ATOM     10  H   LIG    1        1.422  -4.348  -1.564  0.00  0.00    +0.380 HD
ENDBRANCH   1   9
BRANCH   1  11
ATOM     11  C   LIG    1       -1.119  -4.706  -0.900  0.00  0.00    +0.160 C 
BRANCH  11  12
ATOM     12  O   LIG    1       -2.344  -4.250  -0.322  0.00  0.00    -0.550 OA
ATOM     13  H   LIG    1       -2.482  -4.542   0.589  0.00  0.00    +0.380 HD
ENDBRANCH  11  12
BRANCH  11  14
ATOM     14  C   LIG    1       -1.098  -6.236  -0.908  0.00  0.00    +0.190 C 
BRANCH  14  15
ATOM     15  O   LIG    1        0.127  -6.692  -1.486  0.00  0.00    -0.530 OA
ATOM     16  H   LIG    1        0.265  -6.400  -2.397  0.00  0.00    +0.370 HD
ENDBRANCH  14  15
BRANCH  14  17
ATOM     17  C   LIG    1       -2.276  -6.758  -1.733  0.00  0.00    +0.160 C 
BRANCH  17  18
ATOM     18  O   LIG    1       -2.325  -8.183  -1.646  0.00  0.00    -0.570 OA
ATOM     19  H   LIG    1       -3.049  -8.584  -2.146  0.00  0.00    +0.380 HD
ENDBRANCH  17  18
ENDBRANCH  14  17
ENDBRANCH  11  14
ENDBRANCH   1  11
TORSDOF 8
ENDMDL
MODEL      325
REMARK  Name = ZINC000001559201
REMARK                            x       y       z     vdW  Elec       q    Type
REMARK                         _______ _______ _______ _____ _____    ______ ____
ROOT
ATOM      1  C   LIG    1        1.489  -3.805  -2.785  0.00  0.00    -0.350 A 
ATOM      2  C   LIG    1        2.124  -4.348  -3.893  0.00  0.00    +0.470 A 
ATOM      3  N   LIG    1        2.119  -5.686  -4.069  0.00  0.00    -0.520 N 
ATOM      4  C   LIG    1        1.514  -6.508  -3.198  0.00  0.00    +0.690 A 
ATOM      5  N   LIG    1        0.880  -6.053  -2.103  0.00  0.00    -0.550 N 
ATOM      6  C   LIG    1        0.237  -7.000  -1.188  0.00  0.00    +0.360 C 
ATOM      7  O   LIG    1        1.540  -7.706  -3.405  0.00  0.00    -0.520 OA
ATOM      8  C   LIG    1        2.791  -6.256  -5.239  0.00  0.00    +0.350 C 
ATOM      9  C   LIG    1        0.836  -4.730  -1.840  0.00  0.00    +0.560 A 
ATOM     10  O   LIG    1        0.264  -4.311  -0.852  0.00  0.00    -0.470 OA
ENDROOT
BRANCH   1  11
ATOM     11  C   LIG    1        1.472  -2.359  -2.557  0.00  0.00    +0.430 C 
ATOM     12  O   LIG    1        1.014  -1.911  -1.525  0.00  0.00    -0.370 OA
BRANCH  11  13
ATOM     13  C   LIG    1        2.018  -1.434  -3.594  0.00  0.00    +0.450 C 
ATOM     14  O   LIG    1        2.562  -1.883  -4.581  0.00  0.00    -0.490 OA
BRANCH  13  15
ATOM     15  O   LIG    1        1.906  -0.103  -3.434  0.00  0.00    -0.330 OA
BRANCH  15  17
ATOM     16  C   LIG    1        2.239   2.208  -4.127  0.00  0.00    +0.070 C 
ATOM     17  C   LIG    1        2.459   0.736  -4.482  0.00  0.00    +0.220 C 
ENDBRANCH  15  17
ENDBRANCH  13  15
ENDBRANCH  11  13
ENDBRANCH   1  11
TORSDOF 4
ENDMDL
MODEL      326
REMARK  Name = ZINC000031750813
REMARK                            x       y       z     vdW  Elec       q    Type
REMARK                         _______ _______ _______ _____ _____    ______ ____
ROOT
ATOM      1  C   LIG    1        3.485   0.656  -0.027  0.00  0.00    +0.410 A 
ATOM      2  N   LIG    1        4.147  -0.464  -0.045  0.00  0.00    -0.240 NA
ATOM      3  N   LIG    1        5.550  -0.436  -0.057  0.00  0.00    -0.590 N 
ATOM      4  H   LIG    1        6.052  -1.236  -0.275  0.00  0.00    +0.450 HD
ATOM      5  C   LIG    1        6.222   0.761   0.249  0.00  0.00    +0.410 A 
ATOM      6  N   LIG    1        5.560   1.881   0.266  0.00  0.00    -0.240 NA
ATOM      7  N   LIG    1        4.187   1.875  -0.028  0.00  0.00    -0.590 N 
ATOM      8  H   LIG    1        3.726   2.706  -0.221  0.00  0.00    +0.450 HD
ENDROOT
BRANCH   1  11
ATOM      9  N   LIG    1       -0.015   1.283   0.009  0.00  0.00    -0.030 NA
ATOM     10  N   LIG    1        1.198   1.720  -0.000  0.00  0.00    -0.250 NA
ATOM     11  C   LIG    1        2.007   0.648  -0.014  0.00  0.00    +0.220 A 
ATOM     12  N   LIG    1        1.223  -0.415  -0.012  0.00  0.00    -0.240 NA
ATOM     13  N   LIG    1        0.002  -0.004   0.002  0.00  0.00    -0.220 N 
ATOM     14  H   LIG    1       -0.782  -0.576   0.006  0.00  0.00    +0.480 HD
ENDBRANCH   1  11
BRANCH   5  15
ATOM     15  C   LIG    1        7.670   0.747   0.549  0.00  0.00    +0.220 A 
ATOM     16  N   LIG    1        8.423   1.787   0.855  0.00  0.00    -0.240 NA
ATOM     17  N   LIG    1        9.624   1.361   1.045  0.00  0.00    -0.220 N 
ATOM     18  H   LIG    1       10.385   1.915   1.283  0.00  0.00    +0.480 HD
ATOM     19  N   LIG    1        9.659   0.086   0.869  0.00  0.00    -0.030 NA
ATOM     20  N   LIG    1        8.475  -0.328   0.568  0.00  0.00    -0.250 NA
ENDBRANCH   5  15
TORSDOF 2
ENDMDL
MODEL      327
REMARK  Name = ZINC000038717967
REMARK                            x       y       z     vdW  Elec       q    Type
REMARK                         _______ _______ _______ _____ _____    ______ ____
ROOT
ATOM      1  C   LIG    1       -1.319   1.939   0.019  0.00  0.00    +0.510 C 
ATOM      2  N   LIG    1       -2.477   1.249   0.021  0.00  0.00    -0.700 N 
ATOM      3  H   LIG    1       -2.463   0.279   0.015  0.00  0.00    +0.410 HD
ATOM      4  O   LIG    1       -1.335   3.152   0.025  0.00  0.00    -0.520 OA
ENDROOT
BRANCH   1   6
ATOM      5  O   LIG    1        0.002  -0.004   0.002  0.00  0.00    -0.520 OA
ATOM      6  C   LIG    1       -0.014   1.209   0.009  0.00  0.00    +0.510 C 
ATOM      7  N   LIG    1        1.143   1.899   0.001  0.00  0.00    -0.690 N 
ATOM      8  H   LIG    1        1.130   2.869   0.007  0.00  0.00    +0.420 HD
BRANCH   7   9
ATOM      9  C   LIG    1        2.422   1.184  -0.015  0.00  0.00    +0.290 C 
BRANCH   9  10
ATOM     10  C   LIG    1        3.571   2.194  -0.020  0.00  0.00    +0.190 C 
BRANCH  10  11
ATOM     11  O   LIG    1        3.565   2.929   1.205  0.00  0.00    -0.570 OA
ATOM     12  H   LIG    1        4.268   3.590   1.271  0.00  0.00    +0.390 HD
ENDBRANCH  10  11
ENDBRANCH   9  10
ENDBRANCH   7   9
ENDBRANCH   1   6
BRANCH   2  13
ATOM     13  C   LIG    1       -3.755   1.964   0.030  0.00  0.00    +0.280 C 
BRANCH  13  14
ATOM     14  C   LIG    1       -4.904   0.954   0.030  0.00  0.00    +0.180 C 
BRANCH  14  15
ATOM     15  N   LIG    1       -6.186   1.672   0.041  0.00  0.00    -0.530 NA
ATOM     16  C   LIG    1       -6.179   2.750   1.040  0.00  0.00    +0.150 C 
ATOM     17  C   LIG    1       -7.508   3.507   0.975  0.00  0.00    +0.220 C 
ATOM     18  O   LIG    1       -8.585   2.588   1.178  0.00  0.00    -0.380 OA
ATOM     19  C   LIG    1       -8.623   1.525   0.222  0.00  0.00    +0.220 C 
ATOM     20  C   LIG    1       -7.305   0.748   0.279  0.00  0.00    +0.160 C 
ENDBRANCH  14  15
ENDBRANCH  13  14
ENDBRANCH   2  13
TORSDOF 7
ENDMDL
MODEL      328
REMARK  Name = ZINC000001530510
REMARK                            x       y       z     vdW  Elec       q    Type
REMARK                         _______ _______ _______ _____ _____    ______ ____
ROOT
ATOM      1  CB  ARG A  1       -4.936  -0.252   0.048  0.00  0.00    +0.080 C 
ENDROOT
BRANCH   1   2
ATOM      2  CG  ARG A  1       -3.601  -0.999   0.031  0.00  0.00    +0.020 C 
BRANCH   2   3
ATOM      3  CD  ARG A  1       -2.452   0.011   0.025  0.00  0.00    +0.290 C 
BRANCH   3   4
ATOM      4  NE  ARG A  1       -1.173  -0.704   0.009  0.00  0.00    -0.690 N 
ATOM      5  HE  ARG A  1       -1.160  -1.674   0.004  0.00  0.00    +0.440 HD
BRANCH   4   9
ATOM      6  NH1 ARG A  1       -0.016   1.328   0.009  0.00  0.00    -0.790 N 
ATOM      7 HH11 ARG A  1       -0.863   1.801   0.016  0.00  0.00    +0.440 HD
ATOM      8 HH12 ARG A  1        0.817   1.824   0.004  0.00  0.00    +0.440 HD
ATOM      9  CZ  ARG A  1        0.002  -0.004   0.002  0.00  0.00    +0.740 C 
BRANCH   9  10
ATOM     10  NH2 ARG A  1        1.165  -0.654  -0.013  0.00  0.00    -0.800 N 
ATOM     11 HH21 ARG A  1        1.178  -1.624  -0.018  0.00  0.00    +0.440 HD
ATOM     12 HH22 ARG A  1        1.998  -0.158  -0.018  0.00  0.00    +0.440 HD
ENDBRANCH   9  10
ENDBRANCH   4   9
ENDBRANCH   3   4
ENDBRANCH   2   3
ENDBRANCH   1   2
BRANCH   1  13
ATOM     13  CA  ARG A  1       -6.085  -1.262   0.053  0.00  0.00    +0.080 C 
BRANCH  13  14
ATOM     14  C   ARG A  1       -7.396  -0.531   0.194  0.00  0.00    +0.490 C 
ATOM     15  OXT ARG A  1       -7.855  -0.310   1.301  0.00  0.00    -0.640 OA
ATOM     16  O   ARG A  1       -7.997  -0.161  -0.800  0.00  0.00    -0.660 OA
ENDBRANCH  13  14
BRANCH  13  17
ATOM     17  N   ARG A  1       -6.079  -2.018  -1.206  0.00  0.00    -0.490 N 
ATOM     18  H1  ARG A  1       -5.172  -2.441  -1.340  0.00  0.00    +0.390 HD
ATOM     19  H2  ARG A  1       -6.276  -1.394  -1.974  0.00  0.00    +0.420 HD
BRANCH  17  20
ATOM     20  C   UNK A  0       -7.105  -3.067  -1.152  0.00  0.00    +0.280 C 
BRANCH  20  21
ATOM     21  C   UNK A  0       -7.098  -3.855  -2.464  0.00  0.00    -0.060 C 
BRANCH  21  22
ATOM     22  C   UNK A  0       -8.152  -4.932  -2.409  0.00  0.00    +0.500 C 
ATOM     23  O   UNK A  0       -8.312  -5.677  -3.361  0.00  0.00    -0.680 OA
ATOM     24  O   UNK A  0       -8.844  -5.057  -1.413  0.00  0.00    -0.680 OA
ENDBRANCH  21  22
ENDBRANCH  20  21
ENDBRANCH  17  20
ENDBRANCH  13  17
ENDBRANCH   1  13
TORSDOF 11
ENDMDL
MODEL      329
REMARK  Name = ZINC000067897684
REMARK                            x       y       z     vdW  Elec       q    Type
REMARK                         _______ _______ _______ _____ _____    ______ ____
ROOT
ATOM      1  C   LIG    1       -0.018   1.465   0.010  0.00  0.00    +0.190 C 
ATOM      2  N   LIG    1        0.002  -0.004   0.002  0.00  0.00    -0.520 NA
ATOM      3  C   LIG    1       -1.368  -0.551  -0.011  0.00  0.00    +0.180 C 
ATOM      4  C   LIG    1       -1.492  -1.493   1.200  0.00  0.00    +0.200 C 
ATOM      5  C   LIG    1       -0.031  -1.847   1.544  0.00  0.00    +0.170 C 
ATOM      6  O   LIG    1        0.431  -2.874   0.663  0.00  0.00    -0.350 OA
ATOM      7  C   LIG    1       -0.253  -4.119   0.810  0.00  0.00    +0.280 C 
ATOM      8  C   LIG    1       -1.735  -3.887   0.686  0.00  0.00    +0.500 C 
ATOM      9  O   LIG    1       -2.461  -4.819   0.411  0.00  0.00    -0.530 OA
ATOM     10  N   LIG    1       -2.276  -2.666   0.864  0.00  0.00    -0.580 N 
ATOM     11  C   LIG    1        0.708  -0.531   1.189  0.00  0.00    +0.220 C 
ENDROOT
BRANCH  10  12
ATOM     12  C   LIG    1       -3.729  -2.530   0.733  0.00  0.00    +0.320 C 
BRANCH  12  13
ATOM     13  C   LIG    1       -4.377  -2.751   2.075  0.00  0.00    +0.500 C 
ATOM     14  O   LIG    1       -3.693  -2.998   3.045  0.00  0.00    -0.540 OA
ATOM     15  N   LIG    1       -5.717  -2.674   2.197  0.00  0.00    -0.850 N 
ATOM     16  H   LIG    1       -6.135  -2.816   3.061  0.00  0.00    +0.400 HD
ATOM     17  H   LIG    1       -6.264  -2.476   1.421  0.00  0.00    +0.400 HD
ENDBRANCH  12  13
ENDBRANCH  10  12
TORSDOF 2
ENDMDL
MODEL      330
REMARK  Name = ZINC000408722758
REMARK                            x       y       z     vdW  Elec       q    Type
REMARK                         _______ _______ _______ _____ _____    ______ ____
ROOT
ATOM      1  C   LIG    1       -2.851  -2.587  -0.110  0.00  0.00    +0.160 C 
ENDROOT
BRANCH   1   2
ATOM      2  O   LIG    1       -3.483  -2.224   1.119  0.00  0.00    -0.530 OA
ATOM      3  H   LIG    1       -3.044  -2.575   1.906  0.00  0.00    +0.370 HD
ENDBRANCH   1   2
BRANCH   1   4
ATOM      4  C   LIG    1       -1.416  -2.058  -0.121  0.00  0.00    +0.170 C 
BRANCH   4   5
ATOM      5  O   LIG    1       -0.783  -2.420  -1.350  0.00  0.00    -0.540 OA
ATOM      6  H   LIG    1       -1.223  -2.070  -2.137  0.00  0.00    +0.380 HD
ENDBRANCH   4   5
BRANCH   4   7
ATOM      7  C   LIG    1       -1.433  -0.534   0.013  0.00  0.00    +0.180 C 
BRANCH   7   8
ATOM      8  O   LIG    1       -2.066  -0.171   1.242  0.00  0.00    -0.530 OA
ATOM      9  H   LIG    1       -1.626  -0.521   2.029  0.00  0.00    +0.370 HD
ENDBRANCH   7   8
BRANCH   7  10
ATOM     10  C   LIG    1        0.002  -0.004   0.002  0.00  0.00    +0.150 C 
BRANCH  10  11
ATOM     11  O   LIG    1       -0.017   1.425   0.010  0.00  0.00    -0.570 OA
ATOM     12  H   LIG    1        0.861   1.830   0.004  0.00  0.00    +0.380 HD
ENDBRANCH  10  11
ENDBRANCH   7  10
ENDBRANCH   4   7
ENDBRANCH   1   4
BRANCH   1  13
ATOM     13  C   LIG    1       -2.833  -4.111  -0.244  0.00  0.00    +0.210 C 
BRANCH  13  14
ATOM     14  C   LIG    1       -4.258  -4.652  -0.109  0.00  0.00    +0.290 C 
ATOM     15  N   LIG    1       -5.103  -4.074  -1.162  0.00  0.00    -0.710 NA
ATOM     16  H   LIG    1       -5.066  -3.066  -1.143  0.00  0.00    +0.350 HD
ATOM     17  C   LIG    1       -6.488  -4.552  -1.048  0.00  0.00    +0.170 C 
ATOM     18  C   LIG    1       -6.505  -6.079  -1.164  0.00  0.00    -0.020 C 
ATOM     19  C   LIG    1       -5.592  -6.673  -0.087  0.00  0.00    +0.200 C 
ATOM     20  N   LIG    1       -4.241  -6.115  -0.237  0.00  0.00    -0.660 NA
ATOM     21  H   LIG    1       -3.829  -6.396  -1.115  0.00  0.00    +0.350 HD
ENDBRANCH  13  14
BRANCH  13  22
ATOM     22  O   LIG    1       -2.012  -4.670   0.783  0.00  0.00    -0.540 OA
ATOM     23  H   LIG    1       -2.310  -4.466   1.679  0.00  0.00    +0.370 HD
ENDBRANCH  13  22
ENDBRANCH   1  13
TORSDOF 10
ENDMDL
MODEL      331
REMARK  Name = ZINC000408722763
REMARK                            x       y       z     vdW  Elec       q    Type
REMARK                         _______ _______ _______ _____ _____    ______ ____
ROOT
ATOM      1  C   LIG    1       -2.877  -2.567  -0.302  0.00  0.00    +0.190 C 
ENDROOT
BRANCH   1   2
ATOM      2  O   LIG    1       -3.663  -2.062  -1.384  0.00  0.00    -0.540 OA
ATOM      3  H   LIG    1       -3.327  -2.301  -2.259  0.00  0.00    +0.370 HD
ENDBRANCH   1   2
BRANCH   1   4
ATOM      4  C   LIG    1       -1.453  -2.018  -0.406  0.00  0.00    +0.160 C 
BRANCH   4   5
ATOM      5  O   LIG    1       -0.833  -2.522  -1.591  0.00  0.00    -0.550 OA
ATOM      6  H   LIG    1       -1.292  -2.281  -2.408  0.00  0.00    +0.370 HD
ENDBRANCH   4   5
BRANCH   4   7
ATOM      7  C   LIG    1       -1.499  -0.489  -0.465  0.00  0.00    +0.190 C 
BRANCH   7   8
ATOM      8  O   LIG    1       -2.118   0.014   0.720  0.00  0.00    -0.540 OA
ATOM      9  H   LIG    1       -1.659  -0.226   1.536  0.00  0.00    +0.370 HD
ENDBRANCH   7   8
BRANCH   7  10
ATOM     10  C   LIG    1       -0.074   0.060  -0.569  0.00  0.00    +0.150 C 
BRANCH  10  11
ATOM     11  O   LIG    1       -0.122   1.478  -0.741  0.00  0.00    -0.570 OA
ATOM     12  H   LIG    1        0.747   1.895  -0.814  0.00  0.00    +0.380 HD
ENDBRANCH  10  11
ENDBRANCH   7  10
ENDBRANCH   4   7
ENDBRANCH   1   4
BRANCH   1  13
ATOM     13  C   LIG    1       -2.840  -4.095  -0.369  0.00  0.00    +0.200 C 
BRANCH  13  14
ATOM     14  C   LIG    1       -4.261  -4.646  -0.235  0.00  0.00    +0.290 C 
ATOM     15  N   LIG    1       -4.234  -6.108  -0.368  0.00  0.00    -0.710 NA
ATOM     16  H   LIG    1       -3.789  -6.384  -1.231  0.00  0.00    +0.350 HD
ATOM     17  C   LIG    1       -5.588  -6.672  -0.270  0.00  0.00    +0.170 C 
ATOM     18  C   LIG    1       -6.192  -6.297   1.087  0.00  0.00    -0.020 C 
ATOM     19  C   LIG    1       -6.181  -4.772   1.236  0.00  0.00    +0.200 C 
ATOM     20  N   LIG    1       -4.805  -4.281   1.080  0.00  0.00    -0.670 NA
ATOM     21  H   LIG    1       -4.213  -4.620   1.823  0.00  0.00    +0.340 HD
ENDBRANCH  13  14
BRANCH  13  22
ATOM     22  O   LIG    1       -2.032  -4.599   0.696  0.00  0.00    -0.540 OA
ATOM     23  H   LIG    1       -2.349  -4.360   1.578  0.00  0.00    +0.370 HD
ENDBRANCH  13  22
ENDBRANCH   1  13
TORSDOF 10
ENDMDL
MODEL      332
REMARK  Name = ZINC000013808154
REMARK                            x       y       z     vdW  Elec       q    Type
REMARK                         _______ _______ _______ _____ _____    ______ ____
ROOT
ATOM      1  S   LIG    1       -3.759  -0.832   0.034  0.00  0.00    +2.730 S 
ATOM      2  O   LIG    1       -3.700  -1.728  -1.068  0.00  0.00    -0.950 OA
ATOM      3  O   LIG    1       -4.796   0.125   0.202  0.00  0.00    -0.960 OA
ENDROOT
BRANCH   1   4
ATOM      4  C   LIG    1       -3.763  -1.830   1.486  0.00  0.00    -0.720 A 
ATOM      5  C   LIG    1       -3.234  -3.107   1.447  0.00  0.00    +0.180 A 
ATOM      6  C   LIG    1       -3.235  -3.892   2.583  0.00  0.00    -0.090 A 
ATOM      7  C   LIG    1       -3.768  -3.397   3.767  0.00  0.00    +0.270 A 
ATOM      8  C   LIG    1       -4.299  -2.114   3.802  0.00  0.00    -0.090 A 
ATOM      9  C   LIG    1       -4.290  -1.332   2.663  0.00  0.00    +0.170 A 
BRANCH   7  10
ATOM     10  N   LIG    1       -3.771  -4.188   4.918  0.00  0.00    -0.870 N 
ATOM     11  H   LIG    1       -4.144  -3.841   5.744  0.00  0.00    +0.400 HD
ATOM     12  H   LIG    1       -3.400  -5.083   4.892  0.00  0.00    +0.400 HD
ENDBRANCH   7  10
ENDBRANCH   1   4
BRANCH   1  13
ATOM     13  N   LIG    1       -2.337   0.015   0.024  0.00  0.00    -0.960 N 
ATOM     14  H   LIG    1       -2.350   0.985   0.030  0.00  0.00    +0.390 HD
BRANCH  13  16
ATOM     15  C   LIG    1        0.002  -0.004   0.002  0.00  0.00    +0.590 C 
ATOM     16  N   LIG    1       -1.114  -0.669   0.009  0.00  0.00    -0.380 NA
BRANCH  15  17
ATOM     17  N   LIG    1       -0.017   1.384   0.010  0.00  0.00    -0.890 N 
ATOM     18  H   LIG    1       -0.863   1.857   0.016  0.00  0.00    +0.410 HD
ATOM     19  H   LIG    1        0.817   1.880   0.004  0.00  0.00    +0.400 HD
ENDBRANCH  15  17
BRANCH  15  20
ATOM     20  N   LIG    1        1.214  -0.682  -0.013  0.00  0.00    -0.840 N 
ATOM     21  H   LIG    1        1.227  -1.652  -0.018  0.00  0.00    +0.420 HD
ATOM     22  H   LIG    1        2.047  -0.185  -0.018  0.00  0.00    +0.410 HD
ENDBRANCH  15  20
ENDBRANCH  13  16
ENDBRANCH   1  13
TORSDOF 6
ENDMDL
MODEL      333
REMARK  Name = ZINC000408722647
REMARK                            x       y       z     vdW  Elec       q    Type
REMARK                         _______ _______ _______ _____ _____    ______ ____
ROOT
ATOM      1  C   LIG    1       -1.416  -2.058  -0.121  0.00  0.00    +0.270 C 
ENDROOT
BRANCH   1   2
ATOM      2  O   LIG    1       -0.594  -2.617   0.906  0.00  0.00    -0.540 OA
ATOM      3  H   LIG    1       -0.893  -2.413   1.803  0.00  0.00    +0.390 HD
ENDBRANCH   1   2
BRANCH   1   4
ATOM      4  O   LIG    1       -0.890  -2.417  -1.400  0.00  0.00    -0.520 OA
ATOM      5  H   LIG    1       -1.399  -2.071  -2.146  0.00  0.00    +0.400 HD
ENDBRANCH   1   4
BRANCH   1   6
ATOM      6  C   LIG    1       -1.433  -0.534   0.013  0.00  0.00    +0.180 C 
BRANCH   6   7
ATOM      7  O   LIG    1       -2.066  -0.171   1.242  0.00  0.00    -0.520 OA
ATOM      8  H   LIG    1       -1.626  -0.521   2.029  0.00  0.00    +0.360 HD
ENDBRANCH   6   7
BRANCH   6   9
ATOM      9  C   LIG    1        0.002  -0.004   0.002  0.00  0.00    +0.160 C 
BRANCH   9  10
ATOM     10  O   LIG    1       -0.017   1.425   0.010  0.00  0.00    -0.570 OA
ATOM     11  H   LIG    1        0.861   1.830   0.004  0.00  0.00    +0.380 HD
ENDBRANCH   9  10
ENDBRANCH   6   9
ENDBRANCH   1   6
BRANCH   1  12
ATOM     12  C   LIG    1       -2.841  -2.598   0.015  0.00  0.00    +0.220 C 
BRANCH  12  13
ATOM     13  C   LIG    1       -2.809  -4.128   0.005  0.00  0.00    +0.170 C 
ATOM     14  N   LIG    1       -4.188  -4.688   0.068  0.00  0.00    -0.670 NA
ATOM     15  H   LIG    1       -4.565  -4.618   1.001  0.00  0.00    +0.350 HD
ATOM     16  C   LIG    1       -4.150  -6.092  -0.384  0.00  0.00    +0.190 C 
ATOM     17  C   LIG    1       -3.367  -6.179  -1.715  0.00  0.00    +0.100 C 
ATOM     18  S   LIG    1       -2.202  -4.760  -1.608  0.00  0.00    -0.200 S 
ENDBRANCH  12  13
BRANCH  12  19
ATOM     19  O   LIG    1       -3.408  -2.141   1.244  0.00  0.00    -0.520 OA
ATOM     20  H   LIG    1       -2.921  -2.421   2.030  0.00  0.00    +0.360 HD
ENDBRANCH  12  19
ENDBRANCH   1  12
TORSDOF 9
ENDMDL
MODEL      334
REMARK  Name = ZINC000408722650
REMARK                            x       y       z     vdW  Elec       q    Type
REMARK                         _______ _______ _______ _____ _____    ______ ____
ROOT
ATOM      1  C   LIG    1       -1.416  -2.058  -0.121  0.00  0.00    +0.270 C 
ENDROOT
BRANCH   1   2
ATOM      2  O   LIG    1       -0.594  -2.617   0.906  0.00  0.00    -0.540 OA
ATOM      3  H   LIG    1       -0.893  -2.413   1.803  0.00  0.00    +0.400 HD
ENDBRANCH   1   2
BRANCH   1   4
ATOM      4  O   LIG    1       -0.890  -2.417  -1.400  0.00  0.00    -0.520 OA
ATOM      5  H   LIG    1       -1.399  -2.071  -2.146  0.00  0.00    +0.400 HD
ENDBRANCH   1   4
BRANCH   1   6
ATOM      6  C   LIG    1       -1.433  -0.534   0.013  0.00  0.00    +0.190 C 
BRANCH   6   7
ATOM      7  O   LIG    1       -2.066  -0.171   1.242  0.00  0.00    -0.540 OA
ATOM      8  H   LIG    1       -1.626  -0.521   2.029  0.00  0.00    +0.370 HD
ENDBRANCH   6   7
BRANCH   6   9
ATOM      9  C   LIG    1        0.002  -0.004   0.002  0.00  0.00    +0.160 C 
BRANCH   9  10
ATOM     10  O   LIG    1       -0.017   1.425   0.010  0.00  0.00    -0.570 OA
ATOM     11  H   LIG    1        0.861   1.830   0.004  0.00  0.00    +0.380 HD
ENDBRANCH   9  10
ENDBRANCH   6   9
ENDBRANCH   1   6
BRANCH   1  12
ATOM     12  C   LIG    1       -2.841  -2.598   0.015  0.00  0.00    +0.210 C 
BRANCH  12  13
ATOM     13  C   LIG    1       -2.841  -4.106  -0.243  0.00  0.00    +0.180 C 
ATOM     14  N   LIG    1       -4.225  -4.654  -0.186  0.00  0.00    -0.660 NA
ATOM     15  H   LIG    1       -4.543  -4.734   0.768  0.00  0.00    +0.350 HD
ATOM     16  C   LIG    1       -4.242  -5.967  -0.860  0.00  0.00    +0.190 C 
ATOM     17  C   LIG    1       -3.543  -5.845  -2.233  0.00  0.00    +0.100 C 
ATOM     18  S   LIG    1       -2.345  -4.475  -1.972  0.00  0.00    -0.210 S 
ENDBRANCH  12  13
BRANCH  12  19
ATOM     19  O   LIG    1       -3.688  -1.952  -0.938  0.00  0.00    -0.520 OA
ATOM     20  H   LIG    1       -3.419  -2.084  -1.857  0.00  0.00    +0.370 HD
ENDBRANCH  12  19
ENDBRANCH   1  12
TORSDOF 9
ENDMDL
MODEL      335
REMARK  Name = ZINC000408722764
REMARK                            x       y       z     vdW  Elec       q    Type
REMARK                         _______ _______ _______ _____ _____    ______ ____
ROOT
ATOM      1  C   LIG    1       -2.851  -2.587  -0.110  0.00  0.00    +0.150 C 
ENDROOT
BRANCH   1   2
ATOM      2  O   LIG    1       -3.483  -2.224   1.119  0.00  0.00    -0.530 OA
ATOM      3  H   LIG    1       -3.044  -2.575   1.906  0.00  0.00    +0.380 HD
ENDBRANCH   1   2
BRANCH   1   4
ATOM      4  C   LIG    1       -1.416  -2.058  -0.121  0.00  0.00    +0.160 C 
BRANCH   4   5
ATOM      5  O   LIG    1       -0.783  -2.420  -1.350  0.00  0.00    -0.530 OA
ATOM      6  H   LIG    1       -1.223  -2.070  -2.137  0.00  0.00    +0.370 HD
ENDBRANCH   4   5
BRANCH   4   7
ATOM      7  C   LIG    1       -1.433  -0.534   0.013  0.00  0.00    +0.180 C 
BRANCH   7   8
ATOM      8  O   LIG    1       -2.066  -0.171   1.242  0.00  0.00    -0.530 OA
ATOM      9  H   LIG    1       -1.626  -0.521   2.029  0.00  0.00    +0.370 HD
ENDBRANCH   7   8
BRANCH   7  10
ATOM     10  C   LIG    1        0.002  -0.004   0.002  0.00  0.00    +0.150 C 
BRANCH  10  11
ATOM     11  O   LIG    1       -0.017   1.425   0.010  0.00  0.00    -0.570 OA
ATOM     12  H   LIG    1        0.861   1.830   0.004  0.00  0.00    +0.380 HD
ENDBRANCH  10  11
ENDBRANCH   7  10
ENDBRANCH   4   7
ENDBRANCH   1   4
BRANCH   1  13
ATOM     13  C   LIG    1       -2.833  -4.111  -0.244  0.00  0.00    +0.210 C 
BRANCH  13  14
ATOM     14  C   LIG    1       -4.269  -4.641  -0.234  0.00  0.00    +0.290 C 
ATOM     15  N   LIG    1       -4.980  -4.151  -1.422  0.00  0.00    -0.720 NA
ATOM     16  H   LIG    1       -4.937  -3.144  -1.479  0.00  0.00    +0.340 HD
ATOM     17  C   LIG    1       -6.372  -4.620  -1.433  0.00  0.00    +0.170 C 
ATOM     18  C   LIG    1       -6.388  -6.151  -1.427  0.00  0.00    -0.020 C 
ATOM     19  C   LIG    1       -5.612  -6.656  -0.207  0.00  0.00    +0.200 C 
ATOM     20  N   LIG    1       -4.248  -6.109  -0.242  0.00  0.00    -0.670 NA
ATOM     21  H   LIG    1       -3.739  -6.460  -1.039  0.00  0.00    +0.350 HD
ENDBRANCH  13  14
BRANCH  13  22
ATOM     22  O   LIG    1       -2.201  -4.474  -1.474  0.00  0.00    -0.530 OA
ATOM     23  H   LIG    1       -2.641  -4.123  -2.260  0.00  0.00    +0.370 HD
ENDBRANCH  13  22
ENDBRANCH   1  13
TORSDOF 10
ENDMDL
MODEL      336
REMARK  Name = ZINC000199435382
REMARK                            x       y       z     vdW  Elec       q    Type
REMARK                         _______ _______ _______ _____ _____    ______ ____
ROOT
ATOM      1  C   LIG    1       -1.294  -0.603   0.010  0.00  0.00    +0.180 C 
ATOM      2  C   LIG    1       -1.243  -1.951  -0.715  0.00  0.00    +0.250 C 
ATOM      3  C   LIG    1       -2.617  -2.620  -0.630  0.00  0.00    +0.370 C 
ATOM      4  O   LIG    1       -2.987  -2.774   0.742  0.00  0.00    -0.370 OA
ATOM      5  C   LIG    1       -3.097  -1.542   1.458  0.00  0.00    +0.140 C 
ATOM      6  C   LIG    1       -1.743  -0.828   1.457  0.00  0.00    +0.130 C 
ENDROOT
BRANCH   2   7
ATOM      7  N   LIG    1       -0.239  -2.809  -0.080  0.00  0.00    -0.700 N 
ATOM      8  H   LIG    1       -0.494  -3.396   0.649  0.00  0.00    +0.410 HD
ATOM      9  C   LIG    1        1.038  -2.784  -0.510  0.00  0.00    +0.520 C 
ATOM     10  O   LIG    1        1.357  -2.050  -1.422  0.00  0.00    -0.540 OA
ATOM     11  C   LIG    1        2.070  -3.667   0.142  0.00  0.00    +0.090 C 
ENDBRANCH   2   7
BRANCH   1  13
ATOM     12  C   LIG    1       -0.015   1.425   0.007  0.00  0.00    +0.200 C 
ATOM     13  O   LIG    1        0.003  -0.004   0.000  0.00  0.00    -0.350 OA
ENDBRANCH   1  13
BRANCH   3  14
ATOM     14  O   LIG    1       -3.585  -1.807  -1.296  0.00  0.00    -0.570 OA
ATOM     15  H   LIG    1       -4.481  -2.170  -1.282  0.00  0.00    +0.390 HD
ENDBRANCH   3  14
BRANCH   6  16
ATOM     16  O   LIG    1       -0.778  -1.634   2.135  0.00  0.00    -0.530 OA
ATOM     17  H   LIG    1       -1.000  -1.822   3.058  0.00  0.00    +0.370 HD
ENDBRANCH   6  16
BRANCH   5  18
ATOM     18  C   LIG    1       -3.524  -1.827   2.900  0.00  0.00    +0.200 C 
BRANCH  18  19
ATOM     19  O   LIG    1       -4.838  -2.387   2.906  0.00  0.00    -0.560 OA
ATOM     20  H   LIG    1       -5.174  -2.593   3.789  0.00  0.00    +0.380 HD
ENDBRANCH  18  19
ENDBRANCH   5  18
TORSDOF 6
ENDMDL
MODEL      337
REMARK  Name = ZINC000001675280
REMARK                            x       y       z     vdW  Elec       q    Type
REMARK                         _______ _______ _______ _____ _____    ______ ____
ROOT
ATOM      1  C   LIG    1       -2.396   1.061   0.019  0.00  0.00    +0.280 C 
ENDROOT
BRANCH   1   2
ATOM      2  O   LIG    1       -1.189   1.868   0.018  0.00  0.00    -0.370 OA
BRANCH   2   4
ATOM      3  O   LIG    1        0.002  -0.004   0.002  0.00  0.00    -0.570 OA
ATOM      4  C   LIG    1       -0.014   1.211   0.009  0.00  0.00    +0.650 C 
ATOM      5  N   LIG    1        1.143   1.901   0.001  0.00  0.00    -0.700 N 
ATOM      6  H   LIG    1        1.130   2.870   0.007  0.00  0.00    +0.410 HD
BRANCH   5   7
ATOM      7  C   LIG    1        2.422   1.185  -0.015  0.00  0.00    +0.310 C 
BRANCH   7   8
ATOM      8  C   LIG    1        3.571   2.195  -0.020  0.00  0.00    +0.190 C 
BRANCH   8   9
ATOM      9  O   LIG    1        3.565   2.931   1.205  0.00  0.00    -0.570 OA
ATOM     10  H   LIG    1        4.268   3.591   1.271  0.00  0.00    +0.390 HD
ENDBRANCH   8   9
ENDBRANCH   7   8
ENDBRANCH   5   7
ENDBRANCH   2   4
ENDBRANCH   1   2
BRANCH   1  11
ATOM     11  C   LIG    1       -3.622   1.976   0.030  0.00  0.00    +0.280 C 
BRANCH  11  12
ATOM     12  O   LIG    1       -3.670   2.736  -1.206  0.00  0.00    -0.370 OA
BRANCH  12  13
ATOM     13  C   LIG    1       -4.695   3.595  -1.357  0.00  0.00    +0.650 C 
ATOM     14  N   LIG    1       -4.798   4.332  -2.481  0.00  0.00    -0.700 N 
ATOM     15  H   LIG    1       -4.134   4.242  -3.182  0.00  0.00    +0.410 HD
ATOM     16  O   LIG    1       -5.528   3.707  -0.479  0.00  0.00    -0.570 OA
BRANCH  14  17
ATOM     17  C   LIG    1       -5.914   5.266  -2.645  0.00  0.00    +0.310 C 
BRANCH  17  18
ATOM     18  C   LIG    1       -5.796   5.970  -3.998  0.00  0.00    +0.190 C 
BRANCH  18  19
ATOM     19  O   LIG    1       -5.948   5.013  -5.048  0.00  0.00    -0.570 OA
ATOM     20  H   LIG    1       -5.884   5.389  -5.936  0.00  0.00    +0.390 HD
ENDBRANCH  18  19
ENDBRANCH  17  18
ENDBRANCH  14  17
ENDBRANCH  12  13
ENDBRANCH  11  12
ENDBRANCH   1  11
TORSDOF 11
ENDMDL
MODEL      338
REMARK  Name = ZINC000408722649
REMARK                            x       y       z     vdW  Elec       q    Type
REMARK                         _______ _______ _______ _____ _____    ______ ____
ROOT
ATOM      1  C   LIG    1       -1.416  -2.058  -0.121  0.00  0.00    +0.270 C 
ENDROOT
BRANCH   1   2
ATOM      2  O   LIG    1       -0.594  -2.617   0.906  0.00  0.00    -0.520 OA
ATOM      3  H   LIG    1       -0.893  -2.413   1.803  0.00  0.00    +0.390 HD
ENDBRANCH   1   2
BRANCH   1   4
ATOM      4  O   LIG    1       -0.890  -2.417  -1.400  0.00  0.00    -0.540 OA
ATOM      5  H   LIG    1       -1.399  -2.071  -2.146  0.00  0.00    +0.400 HD
ENDBRANCH   1   4
BRANCH   1   6
ATOM      6  C   LIG    1       -1.433  -0.534   0.013  0.00  0.00    +0.170 C 
BRANCH   6   7
ATOM      7  O   LIG    1       -2.066  -0.171   1.242  0.00  0.00    -0.520 OA
ATOM      8  H   LIG    1       -1.626  -0.521   2.029  0.00  0.00    +0.370 HD
ENDBRANCH   6   7
BRANCH   6   9
ATOM      9  C   LIG    1        0.002  -0.004   0.002  0.00  0.00    +0.160 C 
BRANCH   9  10
ATOM     10  O   LIG    1       -0.017   1.425   0.010  0.00  0.00    -0.570 OA
ATOM     11  H   LIG    1        0.861   1.830   0.004  0.00  0.00    +0.380 HD
ENDBRANCH   9  10
ENDBRANCH   6   9
ENDBRANCH   1   6
BRANCH   1  12
ATOM     12  C   LIG    1       -2.841  -2.598   0.015  0.00  0.00    +0.190 C 
BRANCH  12  13
ATOM     13  C   LIG    1       -2.809  -4.128   0.005  0.00  0.00    +0.230 C 
ATOM     14  N   LIG    1       -4.185  -4.673   0.056  0.00  0.00    -0.670 NA
ATOM     15  H   LIG    1       -4.821  -4.011   0.473  0.00  0.00    +0.360 HD
ATOM     16  C   LIG    1       -4.214  -5.961   0.776  0.00  0.00    +0.240 C 
ATOM     17  C   LIG    1       -3.433  -5.766   2.105  0.00  0.00    +0.080 C 
ATOM     18  S   LIG    1       -2.004  -4.760   1.526  0.00  0.00    -0.290 S 
ENDBRANCH  12  13
BRANCH  12  19
ATOM     19  O   LIG    1       -3.408  -2.141   1.244  0.00  0.00    -0.530 OA
ATOM     20  H   LIG    1       -2.921  -2.421   2.030  0.00  0.00    +0.370 HD
ENDBRANCH  12  19
ENDBRANCH   1  12
TORSDOF 9
ENDMDL
MODEL      339
REMARK  Name = ZINC000408722761
REMARK                            x       y       z     vdW  Elec       q    Type
REMARK                         _______ _______ _______ _____ _____    ______ ____
ROOT
ATOM      1  C   LIG    1       -2.860  -2.567  -0.295  0.00  0.00    +0.190 C 
ENDROOT
BRANCH   1   2
ATOM      2  O   LIG    1       -3.570  -2.045  -1.420  0.00  0.00    -0.540 OA
ATOM      3  H   LIG    1       -3.184  -2.284  -2.274  0.00  0.00    +0.360 HD
ENDBRANCH   1   2
BRANCH   1   4
ATOM      4  C   LIG    1       -1.425  -2.037  -0.307  0.00  0.00    +0.160 C 
BRANCH   4   5
ATOM      5  O   LIG    1       -0.740  -2.544  -1.455  0.00  0.00    -0.530 OA
ATOM      6  H   LIG    1       -1.144  -2.292  -2.297  0.00  0.00    +0.370 HD
ENDBRANCH   4   5
BRANCH   4   7
ATOM      7  C   LIG    1       -1.446  -0.508  -0.359  0.00  0.00    +0.190 C 
BRANCH   7   8
ATOM      8  O   LIG    1       -2.130  -0.002   0.788  0.00  0.00    -0.540 OA
ATOM      9  H   LIG    1       -1.726  -0.254   1.630  0.00  0.00    +0.370 HD
ENDBRANCH   7   8
BRANCH   7  10
ATOM     10  C   LIG    1       -0.010   0.021  -0.372  0.00  0.00    +0.150 C 
BRANCH  10  11
ATOM     11  O   LIG    1       -0.028   1.440  -0.537  0.00  0.00    -0.570 OA
ATOM     12  H   LIG    1        0.851   1.845  -0.554  0.00  0.00    +0.380 HD
ENDBRANCH  10  11
ENDBRANCH   7  10
ENDBRANCH   4   7
ENDBRANCH   1   4
BRANCH   1  13
ATOM     13  C   LIG    1       -2.840  -4.095  -0.369  0.00  0.00    +0.200 C 
BRANCH  13  14
ATOM     14  C   LIG    1       -4.276  -4.625  -0.358  0.00  0.00    +0.290 C 
ATOM     15  N   LIG    1       -4.255  -6.093  -0.370  0.00  0.00    -0.710 NA
ATOM     16  H   LIG    1       -3.718  -6.441  -1.150  0.00  0.00    +0.350 HD
ATOM     17  C   LIG    1       -5.620  -6.639  -0.385  0.00  0.00    +0.170 C 
ATOM     18  C   LIG    1       -6.371  -6.151   0.857  0.00  0.00    -0.020 C 
ATOM     19  C   LIG    1       -6.355  -4.620   0.883  0.00  0.00    +0.200 C 
ATOM     20  N   LIG    1       -4.963  -4.151   0.850  0.00  0.00    -0.660 NA
ATOM     21  H   LIG    1       -4.466  -4.433   1.682  0.00  0.00    +0.340 HD
ENDBRANCH  13  14
BRANCH  13  22
ATOM     22  O   LIG    1       -2.190  -4.506  -1.574  0.00  0.00    -0.540 OA
ATOM     23  H   LIG    1       -2.618  -4.186  -2.380  0.00  0.00    +0.360 HD
ENDBRANCH  13  22
ENDBRANCH   1  13
TORSDOF 10
ENDMDL
MODEL      340
REMARK  Name = ZINC000408722645
REMARK                            x       y       z     vdW  Elec       q    Type
REMARK                         _______ _______ _______ _____ _____    ______ ____
ROOT
ATOM      1  C   LIG    1       -1.416  -2.058  -0.121  0.00  0.00    +0.270 C 
ENDROOT
BRANCH   1   2
ATOM      2  O   LIG    1       -0.594  -2.617   0.906  0.00  0.00    -0.520 OA
ATOM      3  H   LIG    1       -0.893  -2.413   1.803  0.00  0.00    +0.400 HD
ENDBRANCH   1   2
BRANCH   1   4
ATOM      4  O   LIG    1       -0.890  -2.417  -1.400  0.00  0.00    -0.540 OA
ATOM      5  H   LIG    1       -1.399  -2.071  -2.146  0.00  0.00    +0.400 HD
ENDBRANCH   1   4
BRANCH   1   6
ATOM      6  C   LIG    1       -1.433  -0.534   0.013  0.00  0.00    +0.190 C 
BRANCH   6   7
ATOM      7  O   LIG    1       -2.066  -0.171   1.242  0.00  0.00    -0.540 OA
ATOM      8  H   LIG    1       -1.626  -0.521   2.029  0.00  0.00    +0.370 HD
ENDBRANCH   6   7
BRANCH   6   9
ATOM      9  C   LIG    1        0.002  -0.004   0.002  0.00  0.00    +0.170 C 
BRANCH   9  10
ATOM     10  O   LIG    1       -0.017   1.425   0.010  0.00  0.00    -0.570 OA
ATOM     11  H   LIG    1        0.861   1.830   0.004  0.00  0.00    +0.380 HD
ENDBRANCH   9  10
ENDBRANCH   6   9
ENDBRANCH   1   6
BRANCH   1  12
ATOM     12  C   LIG    1       -2.841  -2.598   0.015  0.00  0.00    +0.190 C 
BRANCH  12  13
ATOM     13  C   LIG    1       -2.841  -4.106  -0.243  0.00  0.00    +0.220 C 
ATOM     14  N   LIG    1       -4.222  -4.638  -0.196  0.00  0.00    -0.660 NA
ATOM     15  H   LIG    1       -4.819  -4.046   0.362  0.00  0.00    +0.350 HD
ATOM     16  C   LIG    1       -4.234  -6.025   0.308  0.00  0.00    +0.240 C 
ATOM     17  C   LIG    1       -3.371  -6.057   1.600  0.00  0.00    +0.080 C 
ATOM     18  S   LIG    1       -1.959  -4.985   1.102  0.00  0.00    -0.270 S 
ENDBRANCH  12  13
BRANCH  12  19
ATOM     19  O   LIG    1       -3.688  -1.952  -0.938  0.00  0.00    -0.530 OA
ATOM     20  H   LIG    1       -3.419  -2.084  -1.857  0.00  0.00    +0.380 HD
ENDBRANCH  12  19
ENDBRANCH   1  12
TORSDOF 9
ENDMDL
MODEL      341
REMARK  Name = ZINC000256055450
REMARK                            x       y       z     vdW  Elec       q    Type
REMARK                         _______ _______ _______ _____ _____    ______ ____
ROOT
ATOM      1  O   LIG    1        0.025   0.094  -0.356  0.00  0.00    -0.470 OA
ATOM      2  C   LIG    1       -0.019   1.194   0.167  0.00  0.00    +0.590 A 
ATOM      3  C   LIG    1       -1.242   1.861   0.371  0.00  0.00    -0.400 A 
ATOM      4  S   LIG    1       -0.794   3.391   1.147  0.00  0.00    +0.170 S 
ATOM      5  C   LIG    1        0.940   3.039   1.143  0.00  0.00    +0.240 A 
ATOM      6  N   LIG    1        2.123   3.503   1.477  0.00  0.00    -0.490 NA
ATOM      7  C   LIG    1        3.058   2.615   1.140  0.00  0.00    +0.470 A 
ATOM      8  N   LIG    1        2.492   1.579   0.590  0.00  0.00    -0.270 NA
ATOM      9  C   LIG    1       -2.487   1.428   0.046  0.00  0.00    +0.520 C 
ATOM     10  N   LIG    1        1.092   1.814   0.575  0.00  0.00    -0.400 N 
ENDROOT
BRANCH   9  11
ATOM     11  N   LIG    1       -3.557   2.270   0.169  0.00  0.00    -0.590 N 
ATOM     12  C   LIG    1       -3.375   3.730   0.170  0.00  0.00    +0.260 C 
ATOM     13  C   LIG    1       -4.344   4.339  -0.850  0.00  0.00    +0.230 C 
ATOM     14  O   LIG    1       -5.666   3.863  -0.585  0.00  0.00    -0.370 OA
ATOM     15  C   LIG    1       -5.817   2.448  -0.723  0.00  0.00    +0.220 C 
ATOM     16  C   LIG    1       -4.925   1.743   0.298  0.00  0.00    +0.270 C 
ENDBRANCH   9  11
TORSDOF 1
ENDMDL
MODEL      342
REMARK  Name = ZINC000408723381
REMARK                            x       y       z     vdW  Elec       q    Type
REMARK                         _______ _______ _______ _____ _____    ______ ____
ROOT
ATOM      1  C   LIG    1        1.343  -2.522  -2.581  0.00  0.00    +0.200 C 
ENDROOT
BRANCH   1   2
ATOM      2  C   LIG    1        1.479  -4.045  -2.539  0.00  0.00    +0.290 C 
ATOM      3  N   LIG    1        2.164  -4.509  -3.753  0.00  0.00    -0.710 NA
ATOM      4  H   LIG    1        1.690  -4.183  -4.582  0.00  0.00    +0.350 HD
ATOM      5  C   LIG    1        2.291  -5.973  -3.759  0.00  0.00    +0.170 C 
ATOM      6  C   LIG    1        3.085  -6.415  -2.527  0.00  0.00    -0.020 C 
ATOM      7  C   LIG    1        2.386  -5.896  -1.267  0.00  0.00    +0.200 C 
ATOM      8  N   LIG    1        2.256  -4.434  -1.355  0.00  0.00    -0.670 NA
ATOM      9  H   LIG    1        3.161  -3.990  -1.355  0.00  0.00    +0.340 HD
ENDBRANCH   1   2
BRANCH   1  10
ATOM     10  O   LIG    1        2.643  -1.928  -2.583  0.00  0.00    -0.540 OA
ATOM     11  H   LIG    1        3.175  -2.145  -1.806  0.00  0.00    +0.370 HD
ENDBRANCH   1  10
BRANCH   1  12
ATOM     12  C   LIG    1        0.566  -2.045  -1.352  0.00  0.00    +0.190 C 
BRANCH  12  13
ATOM     13  O   LIG    1       -0.744  -2.617  -1.365  0.00  0.00    -0.540 OA
ATOM     14  H   LIG    1       -1.268  -2.382  -2.143  0.00  0.00    +0.360 HD
ENDBRANCH  12  13
BRANCH  12  15
ATOM     15  C   LIG    1        0.456  -0.519  -1.379  0.00  0.00    +0.210 C 
BRANCH  15  17
ATOM     16  C   LIG    1       -0.536   1.474  -0.246  0.00  0.00    +0.000 C 
ATOM     17  C   LIG    1       -0.426  -0.051  -0.220  0.00  0.00    +0.140 C 
BRANCH  17  18
ATOM     18  O   LIG    1        0.155  -0.466   1.018  0.00  0.00    -0.560 OA
ATOM     19  H   LIG    1       -0.352  -0.203   1.799  0.00  0.00    +0.380 HD
ENDBRANCH  17  18
ENDBRANCH  15  17
BRANCH  15  20
ATOM     20  O   LIG    1       -0.125  -0.105  -2.617  0.00  0.00    -0.540 OA
ATOM     21  H   LIG    1       -1.012  -0.458  -2.772  0.00  0.00    +0.370 HD
ENDBRANCH  15  20
ENDBRANCH  12  15
ENDBRANCH   1  12
TORSDOF 8
ENDMDL
MODEL      343
REMARK  Name = ZINC000408723380
REMARK                            x       y       z     vdW  Elec       q    Type
REMARK                         _______ _______ _______ _____ _____    ______ ____
ROOT
ATOM      1  C   LIG    1        1.343  -2.522  -2.581  0.00  0.00    +0.200 C 
ENDROOT
BRANCH   1   2
ATOM      2  C   LIG    1        1.364  -4.052  -2.590  0.00  0.00    +0.290 C 
ATOM      3  N   LIG    1        2.151  -4.524  -3.736  0.00  0.00    -0.710 NA
ATOM      4  H   LIG    1        1.801  -4.135  -4.599  0.00  0.00    +0.350 HD
ATOM      5  C   LIG    1        2.172  -5.992  -3.792  0.00  0.00    +0.170 C 
ATOM      6  C   LIG    1        2.784  -6.536  -2.497  0.00  0.00    -0.020 C 
ATOM      7  C   LIG    1        1.982  -6.008  -1.304  0.00  0.00    +0.200 C 
ATOM      8  N   LIG    1        1.968  -4.539  -1.343  0.00  0.00    -0.660 NA
ATOM      9  H   LIG    1        2.897  -4.165  -1.220  0.00  0.00    +0.350 HD
ENDBRANCH   1   2
BRANCH   1  10
ATOM     10  O   LIG    1        0.701  -2.048  -3.766  0.00  0.00    -0.540 OA
ATOM     11  H   LIG    1       -0.214  -2.345  -3.864  0.00  0.00    +0.360 HD
ENDBRANCH   1  10
BRANCH   1  12
ATOM     12  C   LIG    1        0.575  -2.029  -1.353  0.00  0.00    +0.190 C 
BRANCH  12  13
ATOM     13  O   LIG    1       -0.765  -2.524  -1.399  0.00  0.00    -0.540 OA
ATOM     14  H   LIG    1       -1.262  -2.242  -2.179  0.00  0.00    +0.360 HD
ENDBRANCH  12  13
BRANCH  12  15
ATOM     15  C   LIG    1        0.553  -0.499  -1.345  0.00  0.00    +0.190 C 
BRANCH  15  17
ATOM     16  C   LIG    1       -0.341   1.522  -0.181  0.00  0.00    +0.010 C 
ATOM     17  C   LIG    1       -0.319  -0.007  -0.188  0.00  0.00    +0.140 C 
BRANCH  17  18
ATOM     18  O   LIG    1        0.218  -0.482   1.048  0.00  0.00    -0.560 OA
ATOM     19  H   LIG    1       -0.286  -0.208   1.827  0.00  0.00    +0.380 HD
ENDBRANCH  17  18
ENDBRANCH  15  17
BRANCH  15  20
ATOM     20  O   LIG    1        0.016  -0.024  -2.582  0.00  0.00    -0.530 OA
ATOM     21  H   LIG    1       -0.887  -0.322  -2.759  0.00  0.00    +0.370 HD
ENDBRANCH  15  20
ENDBRANCH  12  15
ENDBRANCH   1  12
TORSDOF 8
ENDMDL
MODEL      344
REMARK  Name = ZINC000409437632
REMARK                            x       y       z     vdW  Elec       q    Type
REMARK                         _______ _______ _______ _____ _____    ______ ____
ROOT
ATOM      1  C   LIG    1        1.274  -0.747   0.099  0.00  0.00    -0.270 A 
ATOM      2  C   LIG    1        2.467  -0.085   0.203  0.00  0.00    +0.380 A 
ATOM      3  N   LIG    1        3.622  -0.799   0.290  0.00  0.00    -0.520 N 
ATOM      4  C   LIG    1        3.619  -2.141   0.277  0.00  0.00    +0.700 A 
ATOM      5  N   LIG    1        2.481  -2.849   0.177  0.00  0.00    -0.650 N 
ATOM      6  H   LIG    1        2.514  -3.818   0.170  0.00  0.00    +0.440 HD
ATOM      7  O   LIG    1        4.678  -2.734   0.358  0.00  0.00    -0.510 OA
ATOM      8  C   LIG    1        1.291  -2.217   0.091  0.00  0.00    +0.570 A 
ATOM      9  O   LIG    1        0.256  -2.850   0.001  0.00  0.00    -0.500 OA
ENDROOT
BRANCH   1  12
ATOM     10  N   LIG    1       -1.132  -0.649   0.007  0.00  0.00    -0.720 NA
ATOM     11  H   LIG    1       -1.139  -1.619   0.001  0.00  0.00    +0.370 HD
ATOM     12  C   LIG    1        0.002  -0.004   0.002  0.00  0.00    +0.480 C 
BRANCH  12  13
ATOM     13  N   LIG    1        0.013   1.371  -0.093  0.00  0.00    -0.600 N 
ATOM     14  H   LIG    1        0.855   1.846  -0.171  0.00  0.00    +0.410 HD
BRANCH  13  15
ATOM     15  O   LIG    1       -1.207   2.091  -0.079  0.00  0.00    -0.300 OA
ATOM     16  H   LIG    1       -1.099   3.050  -0.150  0.00  0.00    +0.380 HD
ENDBRANCH  13  15
ENDBRANCH  12  13
ENDBRANCH   1  12
BRANCH   3  17
ATOM     17  C   LIG    1        4.897  -0.086   0.402  0.00  0.00    +0.340 C 
BRANCH  17  18
ATOM     18  C   LIG    1        5.223   0.148   1.878  0.00  0.00    +0.170 C 
BRANCH  18  19
ATOM     19  O   LIG    1        5.435  -1.109   2.524  0.00  0.00    -0.560 OA
ATOM     20  H   LIG    1        5.647  -1.038   3.465  0.00  0.00    +0.380 HD
ENDBRANCH  18  19
ENDBRANCH  17  18
ENDBRANCH   3  17
TORSDOF 6
ENDMDL
MODEL      345
REMARK  Name = ZINC000408723379
REMARK                            x       y       z     vdW  Elec       q    Type
REMARK                         _______ _______ _______ _____ _____    ______ ____
ROOT
ATOM      1  C   LIG    1        1.455  -2.521  -2.524  0.00  0.00    +0.210 C 
ENDROOT
BRANCH   1   2
ATOM      2  C   LIG    1        1.586  -4.044  -2.472  0.00  0.00    +0.280 C 
ATOM      3  N   LIG    1        0.249  -4.648  -2.397  0.00  0.00    -0.710 NA
ATOM      4  H   LIG    1       -0.272  -4.275  -1.618  0.00  0.00    +0.350 HD
ATOM      5  C   LIG    1        0.336  -6.113  -2.321  0.00  0.00    +0.170 C 
ATOM      6  C   LIG    1        1.063  -6.640  -3.562  0.00  0.00    -0.020 C 
ATOM      7  C   LIG    1        2.440  -5.977  -3.655  0.00  0.00    +0.200 C 
ATOM      8  N   LIG    1        2.274  -4.517  -3.681  0.00  0.00    -0.660 NA
ATOM      9  H   LIG    1        1.785  -4.224  -4.513  0.00  0.00    +0.350 HD
ENDBRANCH   1   2
BRANCH   1  10
ATOM     10  O   LIG    1        2.756  -1.933  -2.594  0.00  0.00    -0.540 OA
ATOM     11  H   LIG    1        3.324  -2.145  -1.840  0.00  0.00    +0.370 HD
ENDBRANCH   1  10
BRANCH   1  12
ATOM     12  C   LIG    1        0.739  -2.027  -1.265  0.00  0.00    +0.150 C 
BRANCH  12  13
ATOM     13  O   LIG    1        1.430  -2.501  -0.107  0.00  0.00    -0.530 OA
ATOM     14  H   LIG    1        2.348  -2.203  -0.049  0.00  0.00    +0.370 HD
ENDBRANCH  12  13
BRANCH  12  15
ATOM     15  C   LIG    1        0.718  -0.497  -1.257  0.00  0.00    +0.200 C 
BRANCH  15  17
ATOM     16  C   LIG    1       -0.019   1.526   0.010  0.00  0.00    +0.010 C 
ATOM     17  C   LIG    1        0.002  -0.004   0.002  0.00  0.00    +0.130 C 
BRANCH  17  18
ATOM     18  O   LIG    1        0.693  -0.477   1.160  0.00  0.00    -0.550 OA
ATOM     19  H   LIG    1        0.294  -0.202   1.996  0.00  0.00    +0.380 HD
ENDBRANCH  17  18
ENDBRANCH  15  17
BRANCH  15  20
ATOM     20  O   LIG    1        0.027  -0.024  -2.414  0.00  0.00    -0.540 OA
ATOM     21  H   LIG    1       -0.891  -0.322  -2.473  0.00  0.00    +0.370 HD
ENDBRANCH  15  20
ENDBRANCH  12  15
ENDBRANCH   1  12
TORSDOF 8
ENDMDL
MODEL      346
REMARK  Name = ZINC000005600390
REMARK                            x       y       z     vdW  Elec       q    Type
REMARK                         _______ _______ _______ _____ _____    ______ ____
ROOT
ATOM      1  O   LIG    1        0.002  -0.004   0.002  0.00  0.00    -0.530 OA
ATOM      2  C   LIG    1       -0.014   1.209   0.009  0.00  0.00    +0.500 C 
ATOM      3  N   LIG    1        1.143   1.898   0.001  0.00  0.00    -0.690 N 
ATOM      4  H   LIG    1        1.130   2.868   0.007  0.00  0.00    +0.410 HD
ENDROOT
BRANCH   2   5
ATOM      5  C   LIG    1       -1.330   1.944   0.019  0.00  0.00    +0.170 C 
ATOM      6  C   LIG    1       -1.446   2.793   1.302  0.00  0.00    +0.090 C 
ATOM      7  C   LIG    1       -2.942   2.643   1.686  0.00  0.00    +0.080 C 
ATOM      8  C   LIG    1       -3.225   1.178   1.270  0.00  0.00    +0.270 C 
ATOM      9  N   LIG    1       -2.444   0.979   0.027  0.00  0.00    -0.500 N 
ATOM     10  H   LIG    1       -2.077   0.040   0.003  0.00  0.00    +0.440 HD
ATOM     11  H   LIG    1       -3.037   1.133  -0.775  0.00  0.00    +0.430 HD
ENDBRANCH   2   5
BRANCH   3  12
ATOM     12  C   LIG    1        2.422   1.183  -0.015  0.00  0.00    +0.320 C 
BRANCH  12  13
ATOM     13  C   LIG    1        3.571   2.193  -0.020  0.00  0.00    -0.480 C 
BRANCH  13  14
ATOM     14  S   LIG    1        5.154   1.308  -0.040  0.00  0.00    +2.640 S 
ATOM     15  O   LIG    1        5.216   0.484  -1.238  0.00  0.00    -1.050 OA
ATOM     16  O   LIG    1        5.239   0.471   1.147  0.00  0.00    -1.050 OA
ATOM     17  O   LIG    1        6.236   2.280  -0.045  0.00  0.00    -1.050 OA
ENDBRANCH  13  14
ENDBRANCH  12  13
ENDBRANCH   3  12
TORSDOF 4
ENDMDL
MODEL      347
REMARK  Name = ZINC000001611163
REMARK                            x       y       z     vdW  Elec       q    Type
REMARK                         _______ _______ _______ _____ _____    ______ ____
ROOT
ATOM      1  O   LIG    1        0.002  -0.004   0.002  0.00  0.00    -0.530 OA
ATOM      2  C   LIG    1       -0.014   1.209   0.009  0.00  0.00    +0.500 C 
ATOM      3  N   LIG    1        1.143   1.898   0.001  0.00  0.00    -0.690 N 
ATOM      4  H   LIG    1        1.130   2.868   0.007  0.00  0.00    +0.410 HD
ENDROOT
BRANCH   2   5
ATOM      5  C   LIG    1       -1.330   1.944   0.019  0.00  0.00    +0.170 C 
ATOM      6  C   LIG    1       -1.484   2.791  -1.269  0.00  0.00    +0.100 C 
ATOM      7  C   LIG    1       -3.026   2.922  -1.375  0.00  0.00    +0.080 C 
ATOM      8  C   LIG    1       -3.528   1.558  -0.857  0.00  0.00    +0.260 C 
ATOM      9  N   LIG    1       -2.455   0.987  -0.018  0.00  0.00    -0.500 N 
ATOM     10  H   LIG    1       -2.801   0.832   0.916  0.00  0.00    +0.430 HD
ATOM     11  H   LIG    1       -2.143   0.113  -0.415  0.00  0.00    +0.440 HD
ENDBRANCH   2   5
BRANCH   3  12
ATOM     12  C   LIG    1        2.422   1.183  -0.015  0.00  0.00    +0.320 C 
BRANCH  12  13
ATOM     13  C   LIG    1        3.571   2.193  -0.020  0.00  0.00    -0.480 C 
BRANCH  13  14
ATOM     14  S   LIG    1        5.154   1.308  -0.040  0.00  0.00    +2.640 S 
ATOM     15  O   LIG    1        5.191   0.493  -1.245  0.00  0.00    -1.050 OA
ATOM     16  O   LIG    1        5.294   0.465   1.137  0.00  0.00    -1.050 OA
ATOM     17  O   LIG    1        6.217   2.300  -0.073  0.00  0.00    -1.050 OA
ENDBRANCH  13  14
ENDBRANCH  12  13
ENDBRANCH   3  12
TORSDOF 4
ENDMDL
MODEL      348
REMARK  Name = ZINC000004748178
REMARK                            x       y       z     vdW  Elec       q    Type
REMARK                         _______ _______ _______ _____ _____    ______ ____
ROOT
ATOM      1  C   LIG    1       -2.347  -0.083   0.502  0.00  0.00    +0.300 C 
ENDROOT
BRANCH   1   2
ATOM      2  N   LIG    1       -1.078  -0.809   0.408  0.00  0.00    -0.680 N 
ATOM      3  H   LIG    1       -1.074  -1.779   0.402  0.00  0.00    +0.440 HD
BRANCH   2   4
ATOM      4  C   LIG    1        0.084  -0.128   0.331  0.00  0.00    +0.710 C 
ATOM      5  N   LIG    1        1.250  -0.795   0.244  0.00  0.00    -0.540 NA
BRANCH   4   6
ATOM      6  N   LIG    1        0.077   1.221   0.339  0.00  0.00    -0.840 N 
ATOM      7  H   LIG    1       -0.764   1.702   0.302  0.00  0.00    +0.420 HD
ATOM      8  H   LIG    1        0.914   1.710   0.378  0.00  0.00    +0.430 HD
ENDBRANCH   4   6
BRANCH   5   9
ATOM      9  N   LIG    1        2.366  -0.148   0.264  0.00  0.00    +0.220 N 
ATOM     10  O   LIG    1        2.839   0.281  -0.773  0.00  0.00    -0.230 OA
ATOM     11  O   LIG    1        2.947   0.032   1.319  0.00  0.00    -0.220 OA
ENDBRANCH   5   9
ENDBRANCH   2   4
ENDBRANCH   1   2
BRANCH   1  12
ATOM     12  C   LIG    1       -3.503  -1.083   0.577  0.00  0.00    +0.300 C 
BRANCH  12  13
ATOM     13  N   LIG    1       -4.772  -0.357   0.671  0.00  0.00    -0.680 N 
ATOM     14  H   LIG    1       -4.776   0.613   0.677  0.00  0.00    +0.440 HD
BRANCH  13  15
ATOM     15  C   LIG    1       -5.934  -1.038   0.749  0.00  0.00    +0.710 C 
ATOM     16  N   LIG    1       -7.100  -0.370   0.835  0.00  0.00    -0.540 NA
BRANCH  16  17
ATOM     17  N   LIG    1       -8.203  -1.018   1.003  0.00  0.00    +0.220 N 
ATOM     18  O   LIG    1       -8.817  -1.437   0.037  0.00  0.00    -0.230 OA
ATOM     19  O   LIG    1       -8.631  -1.212   2.126  0.00  0.00    -0.220 OA
ENDBRANCH  16  17
BRANCH  15  20
ATOM     20  N   LIG    1       -5.927  -2.386   0.740  0.00  0.00    -0.840 N 
ATOM     21  H   LIG    1       -6.751  -2.876   0.890  0.00  0.00    +0.430 HD
ATOM     22  H   LIG    1       -5.099  -2.867   0.585  0.00  0.00    +0.420 HD
ENDBRANCH  15  20
ENDBRANCH  13  15
ENDBRANCH  12  13
ENDBRANCH   1  12
TORSDOF 9
ENDMDL
MODEL      349
REMARK  Name = ZINC000004792149
REMARK                            x       y       z     vdW  Elec       q    Type
REMARK                         _______ _______ _______ _____ _____    ______ ____
ROOT
ATOM      1  N   LIG    1       -1.169  -0.710   0.130  0.00  0.00    -0.410 N 
ENDROOT
BRANCH   1   2
ATOM      2  C   LIG    1        0.003  -0.006   0.021  0.00  0.00    +0.710 C 
ATOM      3  N   LIG    1        1.167  -0.658  -0.114  0.00  0.00    -0.480 NA
BRANCH   2   4
ATOM      4  N   LIG    1       -0.015   1.340   0.049  0.00  0.00    -0.820 N 
ATOM      5  H   LIG    1       -0.861   1.814   0.042  0.00  0.00    +0.420 HD
ATOM      6  H   LIG    1        0.819   1.836   0.073  0.00  0.00    +0.440 HD
ENDBRANCH   2   4
BRANCH   3   7
ATOM      7  N   LIG    1        2.278  -0.002  -0.121  0.00  0.00    +0.210 N 
ATOM      8  O   LIG    1        2.699   0.471  -1.162  0.00  0.00    -0.210 OA
ATOM      9  O   LIG    1        2.905   0.145   0.912  0.00  0.00    -0.190 OA
ENDBRANCH   3   7
ENDBRANCH   1   2
BRANCH   1  10
ATOM     10  N   LIG    1       -1.152  -1.999   0.103  0.00  0.00    -0.110 NA
ATOM     11  O   LIG    1       -2.193  -2.624   0.200  0.00  0.00    +0.140 OA
ENDBRANCH   1  10
BRANCH   1  12
ATOM     12  C   LIG    1       -2.440   0.003   0.278  0.00  0.00    +0.340 C 
BRANCH  12  13
ATOM     13  C   LIG    1       -3.033   0.280  -1.105  0.00  0.00    +0.230 C 
BRANCH  13  14
ATOM     14  O   LIG    1       -3.365  -0.958  -1.737  0.00  0.00    -0.210 OA
BRANCH  14  15
ATOM     15  N   LIG    1       -3.925  -0.814  -3.030  0.00  0.00    +0.120 N 
ATOM     16  O   LIG    1       -4.248  -1.800  -3.668  0.00  0.00    -0.050 OA
ATOM     17  O   LIG    1       -4.083   0.297  -3.504  0.00  0.00    -0.130 OA
ENDBRANCH  14  15
ENDBRANCH  13  14
ENDBRANCH  12  13
ENDBRANCH   1  12
TORSDOF 8
ENDMDL
MODEL      350
REMARK  Name = ZINC000072232709
REMARK                            x       y       z     vdW  Elec       q    Type
REMARK                         _______ _______ _______ _____ _____    ______ ____
ROOT
ATOM      1  S   UNK    1        0.982   3.636   1.212  0.00  0.00    +1.180 S 
ATOM      2  O   UNK    1        1.621   3.248   0.003  0.00  0.00    -0.850 OA
ENDROOT
BRANCH   1   3
ATOM      3  C   UNK    1       -0.720   3.008   1.225  0.00  0.00    -0.150 C 
BRANCH   3   4
ATOM      4  C   UNK    1       -0.699   1.479   1.216  0.00  0.00    +0.120 C 
BRANCH   4   5
ATOM      5  N   UNK    1       -0.012   1.005   0.008  0.00  0.00    -0.620 N 
ATOM      6  H   UNK    1       -0.500   1.339  -0.810  0.00  0.00    +0.430 HD
ATOM      7  H   UNK    1        0.935   1.354   0.000  0.00  0.00    +0.420 HD
ATOM      8  H   UNK    1        0.002  -0.004   0.002  0.00  0.00    +0.440 HD
ENDBRANCH   4   5
BRANCH   4   9
ATOM      9  C   UNK    1       -2.113   0.957   1.227  0.00  0.00    +0.490 C 
ATOM     10  O   UNK    1       -2.569   0.412   0.236  0.00  0.00    -0.660 OA
ATOM     11  O   UNK    1       -2.800   1.079   2.226  0.00  0.00    -0.630 OA
ENDBRANCH   4   9
ENDBRANCH   3   4
ENDBRANCH   1   3
BRANCH   1  12
ATOM     12  C   UNK    1        0.753   5.436   1.224  0.00  0.00    -0.150 C 
BRANCH  12  13
ATOM     13  C   UNK    1        2.120   6.124   1.214  0.00  0.00    +0.110 C 
BRANCH  13  14
ATOM     14  N   UNK    1        2.880   5.719   2.404  0.00  0.00    -0.620 N 
ATOM     15  H   UNK    1        2.373   5.988   3.235  0.00  0.00    +0.440 HD
ATOM     16  H   UNK    1        3.781   6.173   2.398  0.00  0.00    +0.440 HD
ATOM     17  H   UNK    1        3.007   4.718   2.398  0.00  0.00    +0.410 HD
ENDBRANCH  13  14
BRANCH  13  18
ATOM     18  C   UNK    1        1.929   7.619   1.224  0.00  0.00    +0.490 C 
ATOM     19  O   UNK    1        1.485   8.183   0.239  0.00  0.00    -0.630 OA
ATOM     20  O   UNK    1        2.220   8.264   2.217  0.00  0.00    -0.660 OA
ENDBRANCH  13  18
ENDBRANCH  12  13
ENDBRANCH   1  12
TORSDOF 8
ENDMDL
MODEL      351
REMARK  Name = ZINC000072226870
REMARK                            x       y       z     vdW  Elec       q    Type
REMARK                         _______ _______ _______ _____ _____    ______ ____
ROOT
ATOM      1  C   LIG    1       -0.018   1.461   0.010  0.00  0.00    +0.340 C 
ATOM      2  N   LIG    1        0.002  -0.004   0.002  0.00  0.00    -0.510 N 
ATOM      3  C   LIG    1       -1.189  -0.713   0.004  0.00  0.00    +0.360 A 
ATOM      4  C   LIG    1       -1.141  -2.102  -0.004  0.00  0.00    -0.170 A 
ATOM      5  N   LIG    1       -2.460  -2.538   0.001  0.00  0.00    -0.430 N 
ATOM      6  C   LIG    1       -3.240  -1.425   0.011  0.00  0.00    +0.570 A 
ATOM      7  C   LIG    1        0.108  -2.747  -0.013  0.00  0.00    +0.600 A 
ATOM      8  N   LIG    1        1.234  -2.004  -0.015  0.00  0.00    -0.650 N 
ATOM      9  H   LIG    1        2.098  -2.445  -0.021  0.00  0.00    +0.440 HD
ATOM     10  O   LIG    1        0.173  -3.964  -0.021  0.00  0.00    -0.530 OA
ATOM     11  N   LIG    1       -2.474  -0.354   0.012  0.00  0.00    -0.540 NA
ATOM     12  C   LIG    1        1.177  -0.661  -0.013  0.00  0.00    +0.710 A 
ATOM     13  O   LIG    1        2.213  -0.023  -0.014  0.00  0.00    -0.540 OA
ENDROOT
BRANCH   6  14
ATOM     14  N   LIG    1       -4.616  -1.419   0.018  0.00  0.00    -0.820 N 
ATOM     15  H   LIG    1       -5.097  -0.577   0.025  0.00  0.00    +0.430 HD
ATOM     16  H   LIG    1       -5.105  -2.257   0.017  0.00  0.00    +0.410 HD
ENDBRANCH   6  14
BRANCH   5  17
ATOM     17  C   LIG    1       -2.921  -3.929  -0.004  0.00  0.00    +0.350 C 
BRANCH  17  18
ATOM     18  C   LIG    1       -3.071  -4.413   1.415  0.00  0.00    +0.500 C 
ATOM     19  O   LIG    1       -2.819  -3.669   2.340  0.00  0.00    -0.520 OA
ATOM     20  N   LIG    1       -3.487  -5.672   1.657  0.00  0.00    -0.850 N 
ATOM     21  H   LIG    1       -3.584  -5.983   2.571  0.00  0.00    +0.410 HD
ATOM     22  H   LIG    1       -3.689  -6.267   0.918  0.00  0.00    +0.400 HD
ENDBRANCH  17  18
ENDBRANCH   5  17
TORSDOF 3
ENDMDL
MODEL      352
REMARK  Name = ZINC000000909190
REMARK                            x       y       z     vdW  Elec       q    Type
REMARK                         _______ _______ _______ _____ _____    ______ ____
ROOT
ATOM      1  N   LIG    1       -4.148  -4.540   0.017  0.00  0.00    -0.640 N 
ATOM      2  C   LIG    1       -4.899  -4.866   1.111  0.00  0.00    +0.730 C 
ATOM      3  N   LIG    1       -6.220  -5.071   0.784  0.00  0.00    -0.720 N 
ATOM      4  H   LIG    1       -6.903  -5.519   1.307  0.00  0.00    +0.430 HD
ATOM      5  C   LIG    1       -6.349  -4.477  -0.483  0.00  0.00    +0.380 C 
ATOM      6  N   LIG    1       -7.177  -4.432  -1.613  0.00  0.00    -0.720 N 
ATOM      7  H   LIG    1       -8.107  -4.698  -1.678  0.00  0.00    +0.430 HD
ATOM      8  C   LIG    1       -6.378  -3.926  -2.608  0.00  0.00    +0.730 C 
ATOM      9  N   LIG    1       -5.057  -3.941  -2.264  0.00  0.00    -0.740 N 
ATOM     10  H   LIG    1       -4.336  -3.445  -2.682  0.00  0.00    +0.430 HD
ATOM     11  O   LIG    1       -6.798  -3.513  -3.672  0.00  0.00    -0.530 OA
ATOM     12  O   LIG    1       -4.454  -4.965   2.238  0.00  0.00    -0.530 OA
ATOM     13  C   LIG    1       -4.973  -4.883  -1.142  0.00  0.00    +0.420 C 
ENDROOT
BRANCH   1  14
ATOM     14  C   LIG    1       -2.802  -3.961   0.007  0.00  0.00    +0.360 C 
BRANCH  14  15
ATOM     15  C   LIG    1       -2.902  -2.434   0.017  0.00  0.00    +0.080 C 
BRANCH  15  16
ATOM     16  C   LIG    1       -1.518  -1.840   0.007  0.00  0.00    +0.470 C 
ATOM     17  O   LIG    1       -0.550  -2.562  -0.006  0.00  0.00    -0.510 OA
BRANCH  16  18
ATOM     18  O   LIG    1       -1.360  -0.507   0.012  0.00  0.00    -0.360 OA
BRANCH  18  20
ATOM     19  C   LIG    1       -0.019   1.526   0.010  0.00  0.00    +0.070 C 
ATOM     20  C   LIG    1        0.002  -0.004   0.002  0.00  0.00    +0.200 C 
ENDBRANCH  18  20
ENDBRANCH  16  18
ENDBRANCH  15  16
ENDBRANCH  14  15
ENDBRANCH   1  14
TORSDOF 5
ENDMDL
MODEL      353
REMARK  Name = ZINC000000909186
REMARK                            x       y       z     vdW  Elec       q    Type
REMARK                         _______ _______ _______ _____ _____    ______ ____
ROOT
ATOM      1  N   LIG    1       -4.148  -4.540   0.017  0.00  0.00    -0.640 N 
ATOM      2  C   LIG    1       -4.899  -4.866   1.111  0.00  0.00    +0.730 C 
ATOM      3  N   LIG    1       -5.958  -5.681   0.782  0.00  0.00    -0.720 N 
ATOM      4  H   LIG    1       -6.752  -5.871   1.306  0.00  0.00    +0.430 HD
ATOM      5  C   LIG    1       -5.620  -6.175  -0.489  0.00  0.00    +0.390 C 
ATOM      6  N   LIG    1       -6.160  -6.800  -1.622  0.00  0.00    -0.720 N 
ATOM      7  H   LIG    1       -6.995  -7.290  -1.687  0.00  0.00    +0.430 HD
ATOM      8  C   LIG    1       -5.246  -6.563  -2.618  0.00  0.00    +0.730 C 
ATOM      9  N   LIG    1       -4.346  -5.597  -2.270  0.00  0.00    -0.740 N 
ATOM     10  H   LIG    1       -3.491  -5.413  -2.689  0.00  0.00    +0.430 HD
ATOM     11  O   LIG    1       -5.240  -7.144  -3.686  0.00  0.00    -0.530 OA
ATOM     12  O   LIG    1       -4.662  -4.482   2.239  0.00  0.00    -0.530 OA
ATOM     13  C   LIG    1       -4.973  -4.883  -1.142  0.00  0.00    +0.420 C 
ENDROOT
BRANCH   1  14
ATOM     14  C   LIG    1       -2.802  -3.961   0.007  0.00  0.00    +0.350 C 
BRANCH  14  15
ATOM     15  C   LIG    1       -2.902  -2.434   0.017  0.00  0.00    +0.090 C 
BRANCH  15  16
ATOM     16  C   LIG    1       -1.518  -1.840   0.007  0.00  0.00    +0.470 C 
ATOM     17  O   LIG    1       -0.550  -2.562  -0.006  0.00  0.00    -0.510 OA
BRANCH  16  18
ATOM     18  O   LIG    1       -1.360  -0.507   0.012  0.00  0.00    -0.360 OA
BRANCH  18  20
ATOM     19  C   LIG    1       -0.019   1.526   0.010  0.00  0.00    +0.070 C 
ATOM     20  C   LIG    1        0.002  -0.004   0.002  0.00  0.00    +0.200 C 
ENDBRANCH  18  20
ENDBRANCH  16  18
ENDBRANCH  15  16
ENDBRANCH  14  15
ENDBRANCH   1  14
TORSDOF 5
ENDMDL
MODEL      354
REMARK  Name = ZINC000000909188
REMARK                            x       y       z     vdW  Elec       q    Type
REMARK                         _______ _______ _______ _____ _____    ______ ____
ROOT
ATOM      1  N   LIG    1       -4.148  -4.540   0.017  0.00  0.00    -0.630 N 
ATOM      2  C   LIG    1       -4.851  -4.846   1.115  0.00  0.00    +0.700 C 
ATOM      3  N   LIG    1       -6.059  -5.364   0.859  0.00  0.00    -0.740 N 
ATOM      4  H   LIG    1       -6.702  -5.643   1.529  0.00  0.00    +0.430 HD
ATOM      5  C   LIG    1       -6.257  -5.443  -0.595  0.00  0.00    +0.470 C 
ATOM      6  N   LIG    1       -6.262  -6.851  -1.016  0.00  0.00    -0.740 N 
ATOM      7  H   LIG    1       -6.961  -7.494  -0.817  0.00  0.00    +0.440 HD
ATOM      8  C   LIG    1       -5.152  -7.108  -1.720  0.00  0.00    +0.710 C 
ATOM      9  N   LIG    1       -4.341  -6.052  -1.859  0.00  0.00    -0.740 N 
ATOM     10  H   LIG    1       -3.496  -6.053  -2.335  0.00  0.00    +0.430 HD
ATOM     11  O   LIG    1       -4.904  -8.201  -2.191  0.00  0.00    -0.570 OA
ATOM     12  O   LIG    1       -4.431  -4.669   2.242  0.00  0.00    -0.560 OA
ATOM     13  C   LIG    1       -4.940  -4.869  -1.176  0.00  0.00    +0.480 C 
ENDROOT
BRANCH   1  14
ATOM     14  C   LIG    1       -2.802  -3.961   0.007  0.00  0.00    +0.350 C 
BRANCH  14  15
ATOM     15  C   LIG    1       -2.902  -2.434   0.017  0.00  0.00    +0.090 C 
BRANCH  15  16
ATOM     16  C   LIG    1       -1.518  -1.840   0.007  0.00  0.00    +0.470 C 
ATOM     17  O   LIG    1       -0.550  -2.562  -0.006  0.00  0.00    -0.510 OA
BRANCH  16  18
ATOM     18  O   LIG    1       -1.360  -0.507   0.012  0.00  0.00    -0.360 OA
BRANCH  18  20
ATOM     19  C   LIG    1       -0.019   1.526   0.010  0.00  0.00    +0.070 C 
ATOM     20  C   LIG    1        0.002  -0.004   0.002  0.00  0.00    +0.200 C 
ENDBRANCH  18  20
ENDBRANCH  16  18
ENDBRANCH  15  16
ENDBRANCH  14  15
ENDBRANCH   1  14
TORSDOF 5
ENDMDL
MODEL      355
REMARK  Name = ZINC000000909189
REMARK                            x       y       z     vdW  Elec       q    Type
REMARK                         _______ _______ _______ _____ _____    ______ ____
ROOT
ATOM      1  N   LIG    1       -4.148  -4.540   0.017  0.00  0.00    -0.630 N 
ATOM      2  C   LIG    1       -4.851  -4.846   1.115  0.00  0.00    +0.700 C 
ATOM      3  N   LIG    1       -6.059  -5.364   0.859  0.00  0.00    -0.740 N 
ATOM      4  H   LIG    1       -6.702  -5.643   1.529  0.00  0.00    +0.430 HD
ATOM      5  C   LIG    1       -6.257  -5.443  -0.595  0.00  0.00    +0.480 C 
ATOM      6  N   LIG    1       -7.283  -4.476  -1.008  0.00  0.00    -0.740 N 
ATOM      7  H   LIG    1       -8.229  -4.541  -0.806  0.00  0.00    +0.430 HD
ATOM      8  C   LIG    1       -6.707  -3.490  -1.706  0.00  0.00    +0.710 C 
ATOM      9  N   LIG    1       -5.383  -3.627  -1.850  0.00  0.00    -0.740 N 
ATOM     10  H   LIG    1       -4.803  -3.010  -2.324  0.00  0.00    +0.430 HD
ATOM     11  O   LIG    1       -7.330  -2.554  -2.169  0.00  0.00    -0.570 OA
ATOM     12  O   LIG    1       -4.430  -4.669   2.242  0.00  0.00    -0.560 OA
ATOM     13  C   LIG    1       -4.940  -4.869  -1.176  0.00  0.00    +0.480 C 
ENDROOT
BRANCH   1  14
ATOM     14  C   LIG    1       -2.802  -3.961   0.007  0.00  0.00    +0.360 C 
BRANCH  14  15
ATOM     15  C   LIG    1       -2.902  -2.434   0.017  0.00  0.00    +0.090 C 
BRANCH  15  16
ATOM     16  C   LIG    1       -1.518  -1.840   0.007  0.00  0.00    +0.470 C 
ATOM     17  O   LIG    1       -0.550  -2.562  -0.006  0.00  0.00    -0.510 OA
BRANCH  16  18
ATOM     18  O   LIG    1       -1.360  -0.507   0.012  0.00  0.00    -0.360 OA
BRANCH  18  20
ATOM     19  C   LIG    1       -0.019   1.526   0.010  0.00  0.00    +0.070 C 
ATOM     20  C   LIG    1        0.002  -0.004   0.002  0.00  0.00    +0.200 C 
ENDBRANCH  18  20
ENDBRANCH  16  18
ENDBRANCH  15  16
ENDBRANCH  14  15
ENDBRANCH   1  14
TORSDOF 5
ENDMDL
MODEL      356
REMARK  Name = ZINC000003830221
REMARK                            x       y       z     vdW  Elec       q    Type
REMARK                         _______ _______ _______ _____ _____    ______ ____
ROOT
ATOM      1  N   LIG    1       -0.016   1.315   0.009  0.00  0.00    -0.690 NA
ATOM      2  H   LIG    1        0.818   1.812   0.004  0.00  0.00    +0.340 HD
ATOM      3  C   LIG    1        0.002  -0.004   0.002  0.00  0.00    +0.390 A 
ATOM      4  C   LIG    1       -1.253  -0.768   0.004  0.00  0.00    -0.030 A 
ATOM      5  C   LIG    1       -1.176  -2.112   0.050  0.00  0.00    +0.320 A 
ATOM      6  N   LIG    1        0.044  -2.717   0.098  0.00  0.00    -0.560 N 
ATOM      7  C   LIG    1        1.208  -1.983   0.017  0.00  0.00    +0.560 A 
ATOM      8  O   LIG    1        2.305  -2.821  -0.062  0.00  0.00    -0.230 OA
ATOM      9  C   LIG    1        1.785  -3.965  -0.639  0.00  0.00    +0.130 C 
ATOM     10  C   LIG    1        2.214  -5.399  -0.618  0.00  0.00    +0.230 C 
ATOM     11  C   LIG    1        0.835  -6.094  -0.863  0.00  0.00    +0.180 C 
ATOM     12  O   LIG    1       -0.189  -5.136  -0.484  0.00  0.00    -0.340 OA
ATOM     13  C   LIG    1        0.475  -4.107   0.247  0.00  0.00    +0.390 C 
ATOM     14  N   LIG    1        1.173  -0.673  -0.013  0.00  0.00    -0.560 NA
ENDROOT
BRANCH  10  15
ATOM     15  O   LIG    1        2.761  -5.759   0.652  0.00  0.00    -0.540 OA
ATOM     16  H   LIG    1        3.051  -6.680   0.708  0.00  0.00    +0.390 HD
ENDBRANCH  10  15
BRANCH  11  17
ATOM     17  C   LIG    1        0.722  -7.352   0.000  0.00  0.00    +0.200 C 
BRANCH  17  18
ATOM     18  O   LIG    1       -0.490  -8.041  -0.317  0.00  0.00    -0.560 OA
ATOM     19  H   LIG    1       -0.627  -8.850   0.194  0.00  0.00    +0.390 HD
ENDBRANCH  17  18
ENDBRANCH  11  17
TORSDOF 3
ENDMDL
MODEL      357
REMARK  Name = ZINC000044578256
REMARK                            x       y       z     vdW  Elec       q    Type
REMARK                         _______ _______ _______ _____ _____    ______ ____
ROOT
ATOM      1  N   LIG    1       -0.016   1.315   0.009  0.00  0.00    -0.690 NA
ATOM      2  H   LIG    1        0.818   1.812   0.004  0.00  0.00    +0.340 HD
ATOM      3  C   LIG    1        0.002  -0.004   0.002  0.00  0.00    +0.390 A 
ATOM      4  C   LIG    1       -1.252  -0.770   0.004  0.00  0.00    -0.020 A 
ATOM      5  C   LIG    1       -1.174  -2.113   0.031  0.00  0.00    +0.310 A 
ATOM      6  N   LIG    1        0.046  -2.730   0.061  0.00  0.00    -0.540 N 
ATOM      7  C   LIG    1        1.209  -1.985   0.006  0.00  0.00    +0.570 A 
ATOM      8  O   LIG    1        2.314  -2.812  -0.048  0.00  0.00    -0.250 OA
ATOM      9  C   LIG    1        1.825  -3.977  -0.682  0.00  0.00    +0.130 C 
ATOM     10  C   LIG    1        2.385  -5.364  -0.425  0.00  0.00    +0.210 C 
ATOM     11  C   LIG    1        1.096  -6.225  -0.268  0.00  0.00    +0.170 C 
ATOM     12  O   LIG    1       -0.031  -5.295  -0.306  0.00  0.00    -0.320 OA
ATOM     13  C   LIG    1        0.487  -4.087   0.153  0.00  0.00    +0.350 C 
ATOM     14  N   LIG    1        1.171  -0.676  -0.013  0.00  0.00    -0.550 NA
ENDROOT
BRANCH  10  15
ATOM     15  O   LIG    1        3.165  -5.809  -1.536  0.00  0.00    -0.540 OA
ATOM     16  H   LIG    1        3.546  -6.691  -1.421  0.00  0.00    +0.390 HD
ENDBRANCH  10  15
BRANCH  11  17
ATOM     17  C   LIG    1        0.991  -7.227  -1.419  0.00  0.00    +0.220 C 
BRANCH  17  18
ATOM     18  O   LIG    1       -0.130  -8.086  -1.202  0.00  0.00    -0.570 OA
ATOM     19  H   LIG    1       -0.258  -8.748  -1.895  0.00  0.00    +0.390 HD
ENDBRANCH  17  18
ENDBRANCH  11  17
TORSDOF 3
ENDMDL
MODEL      358
REMARK  Name = ZINC000003984021
REMARK                            x       y       z     vdW  Elec       q    Type
REMARK                         _______ _______ _______ _____ _____    ______ ____
ROOT
ATOM      1  N   LIG    1       -0.016   1.315   0.009  0.00  0.00    -0.690 NA
ATOM      2  H   LIG    1        0.818   1.812   0.004  0.00  0.00    +0.340 HD
ATOM      3  C   LIG    1        0.002  -0.004   0.002  0.00  0.00    +0.390 A 
ATOM      4  C   LIG    1       -1.252  -0.770   0.004  0.00  0.00    -0.020 A 
ATOM      5  C   LIG    1       -1.174  -2.113   0.031  0.00  0.00    +0.310 A 
ATOM      6  N   LIG    1        0.046  -2.730   0.061  0.00  0.00    -0.540 N 
ATOM      7  C   LIG    1        1.209  -1.985   0.006  0.00  0.00    +0.570 A 
ATOM      8  O   LIG    1        2.314  -2.812  -0.048  0.00  0.00    -0.250 OA
ATOM      9  C   LIG    1        1.825  -3.977  -0.682  0.00  0.00    +0.140 C 
ATOM     10  C   LIG    1        2.385  -5.364  -0.425  0.00  0.00    +0.200 C 
ATOM     11  C   LIG    1        1.096  -6.225  -0.268  0.00  0.00    +0.200 C 
ATOM     12  O   LIG    1       -0.031  -5.295  -0.306  0.00  0.00    -0.320 OA
ATOM     13  C   LIG    1        0.487  -4.087   0.153  0.00  0.00    +0.350 C 
ATOM     14  N   LIG    1        1.171  -0.676  -0.013  0.00  0.00    -0.550 NA
ENDROOT
BRANCH  10  15
ATOM     15  O   LIG    1        3.165  -5.809  -1.536  0.00  0.00    -0.540 OA
ATOM     16  H   LIG    1        3.546  -6.691  -1.421  0.00  0.00    +0.400 HD
ENDBRANCH  10  15
BRANCH  11  17
ATOM     17  C   LIG    1        1.121  -6.966   1.070  0.00  0.00    +0.190 C 
BRANCH  17  18
ATOM     18  O   LIG    1       -0.007  -7.840   1.151  0.00  0.00    -0.560 OA
ATOM     19  H   LIG    1       -0.056  -8.344   1.976  0.00  0.00    +0.390 HD
ENDBRANCH  17  18
ENDBRANCH  11  17
TORSDOF 3
ENDMDL
MODEL      359
REMARK  Name = ZINC000009211296
REMARK                            x       y       z     vdW  Elec       q    Type
REMARK                         _______ _______ _______ _____ _____    ______ ____
ROOT
ATOM      1  N   LIG    1       -0.016   1.315   0.009  0.00  0.00    -0.700 NA
ATOM      2  H   LIG    1        0.818   1.812   0.004  0.00  0.00    +0.340 HD
ATOM      3  C   LIG    1        0.002  -0.004   0.002  0.00  0.00    +0.390 A 
ATOM      4  C   LIG    1       -1.254  -0.767   0.004  0.00  0.00    -0.020 A 
ATOM      5  C   LIG    1       -1.173  -2.111  -0.015  0.00  0.00    +0.310 A 
ATOM      6  N   LIG    1        0.055  -2.714  -0.035  0.00  0.00    -0.560 N 
ATOM      7  C   LIG    1        1.207  -1.992  -0.022  0.00  0.00    +0.570 A 
ATOM      8  O   LIG    1        2.301  -2.795  -0.020  0.00  0.00    -0.260 OA
ATOM      9  C   LIG    1        1.906  -4.090  -0.502  0.00  0.00    +0.200 C 
ATOM     10  C   LIG    1        2.577  -5.184   0.351  0.00  0.00    +0.200 C 
ATOM     11  C   LIG    1        1.660  -5.315   1.579  0.00  0.00    +0.160 C 
ATOM     12  O   LIG    1        0.415  -4.687   1.273  0.00  0.00    -0.350 OA
ATOM     13  C   LIG    1        0.413  -4.148  -0.077  0.00  0.00    +0.420 C 
ATOM     14  N   LIG    1        1.172  -0.672  -0.013  0.00  0.00    -0.570 NA
ENDROOT
BRANCH  10  15
ATOM     15  O   LIG    1        2.632  -6.417  -0.369  0.00  0.00    -0.550 OA
ATOM     16  H   LIG    1        3.045  -7.141   0.122  0.00  0.00    +0.400 HD
ENDBRANCH  10  15
BRANCH  11  17
ATOM     17  C   LIG    1        1.428  -6.794   1.896  0.00  0.00    +0.200 C 
BRANCH  17  18
ATOM     18  O   LIG    1        0.672  -6.909   3.103  0.00  0.00    -0.560 OA
ATOM     19  H   LIG    1        0.488  -7.822   3.365  0.00  0.00    +0.390 HD
ENDBRANCH  17  18
ENDBRANCH  11  17
TORSDOF 3
ENDMDL
MODEL      360
REMARK  Name = ZINC000004001372
REMARK                            x       y       z     vdW  Elec       q    Type
REMARK                         _______ _______ _______ _____ _____    ______ ____
ROOT
ATOM      1  N   LIG    1       -0.016   1.315   0.009  0.00  0.00    -0.700 NA
ATOM      2  H   LIG    1        0.818   1.812   0.004  0.00  0.00    +0.340 HD
ATOM      3  C   LIG    1        0.002  -0.004   0.002  0.00  0.00    +0.390 A 
ATOM      4  C   LIG    1       -1.254  -0.767   0.004  0.00  0.00    -0.030 A 
ATOM      5  C   LIG    1       -1.173  -2.111   0.006  0.00  0.00    +0.310 A 
ATOM      6  N   LIG    1        0.055  -2.715   0.007  0.00  0.00    -0.550 N 
ATOM      7  C   LIG    1        1.208  -1.992  -0.009  0.00  0.00    +0.570 A 
ATOM      8  O   LIG    1        2.301  -2.795  -0.028  0.00  0.00    -0.240 OA
ATOM      9  C   LIG    1        1.910  -4.093   0.447  0.00  0.00    +0.200 C 
ATOM     10  C   LIG    1        2.587  -5.184  -0.403  0.00  0.00    +0.200 C 
ATOM     11  C   LIG    1        1.573  -5.509  -1.512  0.00  0.00    +0.150 C 
ATOM     12  O   LIG    1        0.443  -4.651  -1.341  0.00  0.00    -0.350 OA
ATOM     13  C   LIG    1        0.414  -4.149   0.026  0.00  0.00    +0.420 C 
ATOM     14  N   LIG    1        1.172  -0.672  -0.013  0.00  0.00    -0.570 NA
ENDROOT
BRANCH  10  15
ATOM     15  O   LIG    1        3.804  -4.691  -0.967  0.00  0.00    -0.530 OA
ATOM     16  H   LIG    1        4.274  -5.336  -1.512  0.00  0.00    +0.390 HD
ENDBRANCH  10  15
BRANCH  11  17
ATOM     17  C   LIG    1        2.209  -5.260  -2.882  0.00  0.00    +0.200 C 
BRANCH  17  18
ATOM     18  O   LIG    1        1.304  -5.673  -3.909  0.00  0.00    -0.570 OA
ATOM     19  H   LIG    1        1.642  -5.544  -4.805  0.00  0.00    +0.390 HD
ENDBRANCH  17  18
ENDBRANCH  11  17
TORSDOF 3
ENDMDL
MODEL      361
REMARK  Name = ZINC000003862304
REMARK                            x       y       z     vdW  Elec       q    Type
REMARK                         _______ _______ _______ _____ _____    ______ ____
ROOT
ATOM      1  N   LIG    1       -0.016   1.315   0.009  0.00  0.00    -0.700 NA
ATOM      2  H   LIG    1        0.818   1.812   0.004  0.00  0.00    +0.340 HD
ATOM      3  C   LIG    1        0.002  -0.004   0.002  0.00  0.00    +0.390 A 
ATOM      4  C   LIG    1       -1.254  -0.767   0.004  0.00  0.00    -0.030 A 
ATOM      5  C   LIG    1       -1.173  -2.111   0.006  0.00  0.00    +0.310 A 
ATOM      6  N   LIG    1        0.055  -2.715   0.007  0.00  0.00    -0.550 N 
ATOM      7  C   LIG    1        1.208  -1.992  -0.009  0.00  0.00    +0.570 A 
ATOM      8  O   LIG    1        2.301  -2.795  -0.028  0.00  0.00    -0.240 OA
ATOM      9  C   LIG    1        1.910  -4.093   0.447  0.00  0.00    +0.200 C 
ATOM     10  C   LIG    1        2.587  -5.184  -0.403  0.00  0.00    +0.200 C 
ATOM     11  C   LIG    1        1.573  -5.509  -1.512  0.00  0.00    +0.170 C 
ATOM     12  O   LIG    1        0.443  -4.651  -1.341  0.00  0.00    -0.350 OA
ATOM     13  C   LIG    1        0.414  -4.149   0.026  0.00  0.00    +0.420 C 
ATOM     14  N   LIG    1        1.172  -0.672  -0.013  0.00  0.00    -0.570 NA
ENDROOT
BRANCH  10  15
ATOM     15  O   LIG    1        3.804  -4.691  -0.967  0.00  0.00    -0.530 OA
ATOM     16  H   LIG    1        4.274  -5.336  -1.512  0.00  0.00    +0.390 HD
ENDBRANCH  10  15
BRANCH  11  17
ATOM     17  C   LIG    1        1.137  -6.971  -1.403  0.00  0.00    +0.170 C 
BRANCH  17  18
ATOM     18  O   LIG    1        0.286  -7.298  -2.504  0.00  0.00    -0.560 OA
ATOM     19  H   LIG    1       -0.030  -8.212  -2.499  0.00  0.00    +0.390 HD
ENDBRANCH  17  18
ENDBRANCH  11  17
TORSDOF 3
ENDMDL
MODEL      362
REMARK  Name = ZINC000003830222
REMARK                            x       y       z     vdW  Elec       q    Type
REMARK                         _______ _______ _______ _____ _____    ______ ____
ROOT
ATOM      1  N   LIG    1       -0.016   1.315   0.009  0.00  0.00    -0.700 NA
ATOM      2  H   LIG    1        0.818   1.812   0.004  0.00  0.00    +0.340 HD
ATOM      3  C   LIG    1        0.002  -0.004   0.002  0.00  0.00    +0.390 A 
ATOM      4  C   LIG    1       -1.254  -0.767   0.004  0.00  0.00    -0.020 A 
ATOM      5  C   LIG    1       -1.173  -2.111   0.006  0.00  0.00    +0.310 A 
ATOM      6  N   LIG    1        0.055  -2.715   0.008  0.00  0.00    -0.560 N 
ATOM      7  C   LIG    1        1.208  -1.992  -0.008  0.00  0.00    +0.570 A 
ATOM      8  O   LIG    1        2.301  -2.795  -0.030  0.00  0.00    -0.260 OA
ATOM      9  C   LIG    1        1.911  -4.095   0.442  0.00  0.00    +0.200 C 
ATOM     10  C   LIG    1        2.573  -5.180  -0.431  0.00  0.00    +0.200 C 
ATOM     11  C   LIG    1        1.644  -5.296  -1.651  0.00  0.00    +0.160 C 
ATOM     12  O   LIG    1        0.402  -4.672  -1.326  0.00  0.00    -0.350 OA
ATOM     13  C   LIG    1        0.413  -4.149   0.030  0.00  0.00    +0.420 C 
ATOM     14  N   LIG    1        1.172  -0.672  -0.013  0.00  0.00    -0.570 NA
ENDROOT
BRANCH  10  15
ATOM     15  O   LIG    1        2.636  -6.421   0.275  0.00  0.00    -0.550 OA
ATOM     16  H   LIG    1        3.043  -7.139  -0.228  0.00  0.00    +0.400 HD
ENDBRANCH  10  15
BRANCH  11  17
ATOM     17  C   LIG    1        1.409  -6.772  -1.982  0.00  0.00    +0.200 C 
BRANCH  17  18
ATOM     18  O   LIG    1        0.642  -6.874  -3.183  0.00  0.00    -0.560 OA
ATOM     19  H   LIG    1        0.455  -7.783  -3.454  0.00  0.00    +0.390 HD
ENDBRANCH  17  18
ENDBRANCH  11  17
TORSDOF 3
ENDMDL
MODEL      363
REMARK  Name = ZINC000005545204
REMARK                            x       y       z     vdW  Elec       q    Type
REMARK                         _______ _______ _______ _____ _____    ______ ____
ROOT
ATOM      1  C   LIG    1        0.002  -0.004   0.002  0.00  0.00    +0.120 C 
ATOM      2  C   LIG    1        0.716  -0.499  -1.259  0.00  0.00    +0.200 C 
ATOM      3  O   LIG    1        0.683  -1.927  -1.293  0.00  0.00    -0.340 OA
ATOM      4  C   LIG    1       -0.634  -2.480  -1.337  0.00  0.00    +0.190 C 
ATOM      5  C   LIG    1       -1.402  -2.064  -0.079  0.00  0.00    +0.190 C 
ATOM      6  C   LIG    1       -1.435  -0.535   0.010  0.00  0.00    +0.210 C 
ENDROOT
BRANCH   1   7
ATOM      7  O   LIG    1       -0.017   1.425   0.010  0.00  0.00    -0.560 OA
ATOM      8  H   LIG    1        0.861   1.830   0.004  0.00  0.00    +0.390 HD
ENDBRANCH   1   7
BRANCH   5   9
ATOM      9  O   LIG    1       -2.737  -2.569  -0.146  0.00  0.00    -0.540 OA
ATOM     10  H   LIG    1       -2.791  -3.532  -0.208  0.00  0.00    +0.380 HD
ENDBRANCH   5   9
BRANCH   6  11
ATOM     11  O   LIG    1       -2.146  -0.007  -1.111  0.00  0.00    -0.550 OA
ATOM     12  H   LIG    1       -2.205   0.959  -1.119  0.00  0.00    +0.390 HD
ENDBRANCH   6  11
BRANCH   4  13
ATOM     13  S   LIG    1       -0.529  -4.285  -1.411  0.00  0.00    +0.010 S 
BRANCH  13  14
ATOM     14  C   LIG    1        0.244  -4.482  -2.982  0.00  0.00    +0.190 A 
ATOM     15  N   LIG    1        0.607  -3.510  -3.787  0.00  0.00    -0.470 NA
ATOM     16  C   LIG    1        1.164  -4.033  -4.892  0.00  0.00    +0.160 A 
ATOM     17  C   LIG    1        1.152  -5.372  -4.779  0.00  0.00    +0.140 A 
ATOM     18  N   LIG    1        0.574  -5.668  -3.564  0.00  0.00    -0.560 N 
ATOM     19  H   LIG    1        0.424  -6.552  -3.197  0.00  0.00    +0.420 HD
ENDBRANCH  13  14
ENDBRANCH   4  13
TORSDOF 5
ENDMDL
MODEL      364
REMARK  Name = ZINC000005496246
REMARK                            x       y       z     vdW  Elec       q    Type
REMARK                         _______ _______ _______ _____ _____    ______ ____
ROOT
ATOM      1  C   LIG    1       -0.760  -0.098   0.322  0.00  0.00    +0.110 C 
ATOM      2  C   LIG    1        0.067  -0.351  -0.941  0.00  0.00    +0.210 C 
ATOM      3  O   LIG    1        0.294  -1.754  -1.087  0.00  0.00    -0.380 OA
ATOM      4  C   LIG    1       -0.899  -2.527  -1.230  0.00  0.00    +0.300 C 
ATOM      5  C   LIG    1       -1.765  -2.362   0.022  0.00  0.00    +0.220 C 
ATOM      6  C   LIG    1       -2.077  -0.876   0.227  0.00  0.00    +0.140 C 
ENDROOT
BRANCH   1   7
ATOM      7  O   LIG    1       -1.039   1.299   0.439  0.00  0.00    -0.560 OA
ATOM      8  H   LIG    1       -0.249   1.853   0.501  0.00  0.00    +0.390 HD
ENDBRANCH   1   7
BRANCH   5   9
ATOM      9  O   LIG    1       -2.985  -3.088  -0.141  0.00  0.00    -0.530 OA
ATOM     10  H   LIG    1       -3.583  -3.028   0.616  0.00  0.00    +0.380 HD
ENDBRANCH   5   9
BRANCH   4  11
ATOM     11  O   LIG    1       -1.625  -2.076  -2.375  0.00  0.00    -0.530 OA
ATOM     12  H   LIG    1       -1.113  -2.087  -3.195  0.00  0.00    +0.370 HD
ENDBRANCH   4  11
BRANCH   6  13
ATOM     13  O   LIG    1       -2.840  -0.391  -0.880  0.00  0.00    -0.530 OA
ATOM     14  H   LIG    1       -3.073   0.546  -0.816  0.00  0.00    +0.380 HD
ENDBRANCH   6  13
BRANCH   4  15
ATOM     15  C   LIG    1       -0.534  -4.003  -1.406  0.00  0.00    +0.210 C 
BRANCH  15  16
ATOM     16  N   LIG    1        0.060  -4.512  -0.163  0.00  0.00    -0.530 NA
ATOM     17  C   LIG    1        1.175  -3.660   0.276  0.00  0.00    +0.160 C 
ATOM     18  C   LIG    1        1.725  -4.192   1.603  0.00  0.00    +0.220 C 
ATOM     19  O   LIG    1        2.118  -5.557   1.438  0.00  0.00    -0.390 OA
ATOM     20  C   LIG    1        1.056  -6.414   1.012  0.00  0.00    +0.220 C 
ATOM     21  C   LIG    1        0.500  -5.906  -0.321  0.00  0.00    +0.150 C 
ENDBRANCH  15  16
ENDBRANCH   4  15
TORSDOF 6
ENDMDL
MODEL      365
REMARK  Name = ZINC000005545202
REMARK                            x       y       z     vdW  Elec       q    Type
REMARK                         _______ _______ _______ _____ _____    ______ ____
ROOT
ATOM      1  C   LIG    1        0.002  -0.004   0.002  0.00  0.00    +0.110 C 
ATOM      2  C   LIG    1        0.716  -0.499  -1.259  0.00  0.00    +0.190 C 
ATOM      3  O   LIG    1       -0.009  -0.071  -2.414  0.00  0.00    -0.340 OA
ATOM      4  C   LIG    1       -1.343  -0.576  -2.486  0.00  0.00    +0.180 C 
ATOM      5  C   LIG    1       -2.140  -0.084  -1.274  0.00  0.00    +0.180 C 
ATOM      6  C   LIG    1       -1.435  -0.535   0.010  0.00  0.00    +0.200 C 
ENDROOT
BRANCH   1   7
ATOM      7  O   LIG    1       -0.017   1.425   0.010  0.00  0.00    -0.520 OA
ATOM      8  H   LIG    1        0.861   1.830   0.004  0.00  0.00    +0.370 HD
ENDBRANCH   1   7
BRANCH   5   9
ATOM      9  O   LIG    1       -2.217   1.343  -1.301  0.00  0.00    -0.510 OA
ATOM     10  H   LIG    1       -2.649   1.699  -2.090  0.00  0.00    +0.370 HD
ENDBRANCH   5   9
BRANCH   6  11
ATOM     11  O   LIG    1       -2.132  -0.020   1.145  0.00  0.00    -0.540 OA
ATOM     12  H   LIG    1       -1.740  -0.267   1.994  0.00  0.00    +0.380 HD
ENDBRANCH   6  11
BRANCH   4  13
ATOM     13  S   LIG    1       -2.131   0.013  -4.006  0.00  0.00    +0.030 S 
BRANCH  13  14
ATOM     14  C   LIG    1       -1.225  -0.915  -5.199  0.00  0.00    +0.190 A 
ATOM     15  N   LIG    1       -0.268  -1.774  -4.938  0.00  0.00    -0.470 NA
ATOM     16  C   LIG    1        0.192  -2.290  -6.090  0.00  0.00    +0.160 A 
ATOM     17  C   LIG    1       -0.496  -1.739  -7.104  0.00  0.00    +0.140 A 
ATOM     18  N   LIG    1       -1.403  -0.867  -6.547  0.00  0.00    -0.560 N 
ATOM     19  H   LIG    1       -2.044  -0.318  -7.025  0.00  0.00    +0.420 HD
ENDBRANCH  13  14
ENDBRANCH   4  13
TORSDOF 5
ENDMDL
MODEL      366
REMARK  Name = ZINC000005496244
REMARK                            x       y       z     vdW  Elec       q    Type
REMARK                         _______ _______ _______ _____ _____    ______ ____
ROOT
ATOM      1  C   LIG    1       -0.534  -0.734   0.189  0.00  0.00    +0.110 C 
ATOM      2  C   LIG    1        0.362  -0.963  -1.031  0.00  0.00    +0.200 C 
ATOM      3  O   LIG    1       -0.214  -0.321  -2.171  0.00  0.00    -0.370 OA
ATOM      4  C   LIG    1       -1.507  -0.814  -2.527  0.00  0.00    +0.300 C 
ATOM      5  C   LIG    1       -2.478  -0.579  -1.367  0.00  0.00    +0.190 C 
ATOM      6  C   LIG    1       -1.938  -1.270  -0.109  0.00  0.00    +0.160 C 
ENDROOT
BRANCH   1   7
ATOM      7  O   LIG    1       -0.607   0.665   0.472  0.00  0.00    -0.530 OA
ATOM      8  H   LIG    1        0.248   1.071   0.668  0.00  0.00    +0.370 HD
ENDBRANCH   1   7
BRANCH   5   9
ATOM      9  O   LIG    1       -2.603   0.824  -1.126  0.00  0.00    -0.530 OA
ATOM     10  H   LIG    1       -3.205   1.046  -0.403  0.00  0.00    +0.390 HD
ENDBRANCH   5   9
BRANCH   4  11
ATOM     11  O   LIG    1       -1.424  -2.214  -2.803  0.00  0.00    -0.560 OA
ATOM     12  H   LIG    1       -0.824  -2.437  -3.528  0.00  0.00    +0.400 HD
ENDBRANCH   4  11
BRANCH   6  13
ATOM     13  O   LIG    1       -2.803  -0.995   0.995  0.00  0.00    -0.560 OA
ATOM     14  H   LIG    1       -2.521  -1.402   1.826  0.00  0.00    +0.380 HD
ENDBRANCH   6  13
BRANCH   4  15
ATOM     15  C   LIG    1       -2.009  -0.078  -3.771  0.00  0.00    +0.210 C 
BRANCH  15  16
ATOM     16  N   LIG    1       -1.180  -0.447  -4.926  0.00  0.00    -0.540 NA
ATOM     17  C   LIG    1        0.247  -0.241  -4.638  0.00  0.00    +0.160 C 
ATOM     18  C   LIG    1        1.076  -0.693  -5.843  0.00  0.00    +0.220 C 
ATOM     19  O   LIG    1        0.649   0.025  -7.004  0.00  0.00    -0.390 OA
ATOM     20  C   LIG    1       -0.735  -0.153  -7.315  0.00  0.00    +0.220 C 
ATOM     21  C   LIG    1       -1.583   0.304  -6.124  0.00  0.00    +0.160 C 
ENDBRANCH  15  16
ENDBRANCH   4  15
TORSDOF 6
ENDMDL
MODEL      367
REMARK  Name = ZINC000006494972
REMARK                            x       y       z     vdW  Elec       q    Type
REMARK                         _______ _______ _______ _____ _____    ______ ____
ROOT
ATOM      1  N   LIG    1       -0.016   1.316   0.009  0.00  0.00    -0.660 NA
ATOM      2  H   LIG    1        0.818   1.812   0.004  0.00  0.00    +0.350 HD
ATOM      3  C   LIG    1        0.002  -0.004   0.002  0.00  0.00    +0.380 A 
ATOM      4  N   LIG    1        1.171  -0.675  -0.007  0.00  0.00    -0.540 NA
ATOM      5  C   LIG    1        1.210  -1.985   0.006  0.00  0.00    +0.570 A 
ATOM      6  O   LIG    1        2.316  -2.811  -0.051  0.00  0.00    -0.240 OA
ATOM      7  C   LIG    1        1.827  -3.971  -0.692  0.00  0.00    +0.140 C 
ATOM      8  C   LIG    1        2.386  -5.361  -0.448  0.00  0.00    +0.210 C 
ATOM      9  C   LIG    1        1.096  -6.222  -0.298  0.00  0.00    +0.170 C 
ATOM     10  O   LIG    1       -0.030  -5.291  -0.328  0.00  0.00    -0.320 OA
ATOM     11  C   LIG    1        0.490  -4.089   0.143  0.00  0.00    +0.360 C 
ATOM     12  N   LIG    1        0.049  -2.731   0.060  0.00  0.00    -0.530 N 
ATOM     13  C   LIG    1       -1.174  -2.114   0.042  0.00  0.00    +0.290 A 
ATOM     14  C   LIG    1       -1.253  -0.771   0.010  0.00  0.00    +0.030 A 
ATOM     15  F   LIG    1       -2.450  -0.145  -0.004  0.00  0.00    -0.100 F 
ENDROOT
BRANCH   8  16
ATOM     16  O   LIG    1        3.166  -5.797  -1.563  0.00  0.00    -0.540 OA
ATOM     17  H   LIG    1        3.545  -6.680  -1.457  0.00  0.00    +0.400 HD
ENDBRANCH   8  16
BRANCH   9  18
ATOM     18  C   LIG    1        0.990  -7.213  -1.459  0.00  0.00    +0.220 C 
BRANCH  18  19
ATOM     19  O   LIG    1       -0.132  -8.074  -1.249  0.00  0.00    -0.570 OA
ATOM     20  H   LIG    1       -0.261  -8.729  -1.948  0.00  0.00    +0.390 HD
ENDBRANCH  18  19
ENDBRANCH   9  18
TORSDOF 3
ENDMDL
MODEL      368
REMARK  Name = ZINC000006494975
REMARK                            x       y       z     vdW  Elec       q    Type
REMARK                         _______ _______ _______ _____ _____    ______ ____
ROOT
ATOM      1  N   LIG    1       -0.016   1.316   0.009  0.00  0.00    -0.680 NA
ATOM      2  H   LIG    1        0.818   1.812   0.004  0.00  0.00    +0.350 HD
ATOM      3  C   LIG    1        0.002  -0.004   0.002  0.00  0.00    +0.380 A 
ATOM      4  N   LIG    1        1.171  -0.672  -0.007  0.00  0.00    -0.560 NA
ATOM      5  C   LIG    1        1.208  -1.992  -0.015  0.00  0.00    +0.570 A 
ATOM      6  O   LIG    1        2.303  -2.793  -0.013  0.00  0.00    -0.260 OA
ATOM      7  C   LIG    1        1.909  -4.093  -0.479  0.00  0.00    +0.210 C 
ATOM      8  C   LIG    1        2.585  -5.177   0.385  0.00  0.00    +0.200 C 
ATOM      9  C   LIG    1        1.674  -5.293   1.617  0.00  0.00    +0.160 C 
ATOM     10  O   LIG    1        0.426  -4.671   1.309  0.00  0.00    -0.350 OA
ATOM     11  C   LIG    1        0.417  -4.149  -0.047  0.00  0.00    +0.420 C 
ATOM     12  N   LIG    1        0.058  -2.716  -0.021  0.00  0.00    -0.540 N 
ATOM     13  C   LIG    1       -1.173  -2.113   0.013  0.00  0.00    +0.290 A 
ATOM     14  C   LIG    1       -1.254  -0.768   0.010  0.00  0.00    +0.030 A 
ATOM     15  F   LIG    1       -2.451  -0.141   0.042  0.00  0.00    -0.100 F 
ENDROOT
BRANCH   8  16
ATOM     16  O   LIG    1        2.638  -6.419  -0.321  0.00  0.00    -0.540 OA
ATOM     17  H   LIG    1        3.054  -7.136   0.177  0.00  0.00    +0.400 HD
ENDBRANCH   8  16
BRANCH   9  18
ATOM     18  C   LIG    1        1.446  -6.768   1.954  0.00  0.00    +0.200 C 
BRANCH  18  19
ATOM     19  O   LIG    1        0.696  -6.869   3.167  0.00  0.00    -0.560 OA
ATOM     20  H   LIG    1        0.513  -7.778   3.442  0.00  0.00    +0.390 HD
ENDBRANCH  18  19
ENDBRANCH   9  18
TORSDOF 3
ENDMDL
MODEL      369
REMARK  Name = ZINC000005290470
REMARK                            x       y       z     vdW  Elec       q    Type
REMARK                         _______ _______ _______ _____ _____    ______ ____
ROOT
ATOM      1  C   LIG    1       -1.293  -0.775   0.010  0.00  0.00    +0.000 C 
ENDROOT
BRANCH   1   2
ATOM      2  C   LIG    1       -0.993  -2.276  -0.001  0.00  0.00    +0.070 C 
ATOM      3  C   LIG    1       -2.278  -3.040   0.021  0.00  0.00    +0.070 C 
ATOM      4  C   LIG    1       -2.687  -3.563   1.143  0.00  0.00    -0.450 C 
ATOM      5  S   LIG    1       -1.479  -3.174   2.388  0.00  0.00    +2.430 S 
ATOM      6  O   LIG    1       -1.167  -4.410   3.016  0.00  0.00    -0.930 OA
ATOM      7  O   LIG    1       -2.017  -2.076   3.112  0.00  0.00    -0.930 OA
ATOM      8  C   LIG    1       -0.145  -2.640   1.244  0.00  0.00    -0.240 C 
ENDBRANCH   1   2
BRANCH   1  12
ATOM      9  N   LIG    1       -0.016   1.344   0.009  0.00  0.00    -0.830 N 
ATOM     10  H   LIG    1       -0.863   1.817   0.016  0.00  0.00    +0.410 HD
ATOM     11  H   LIG    1        0.817   1.840   0.004  0.00  0.00    +0.410 HD
ATOM     12  C   LIG    1        0.002  -0.004   0.002  0.00  0.00    +0.540 C 
ATOM     13  O   LIG    1        1.060  -0.596  -0.011  0.00  0.00    -0.530 OA
ENDBRANCH   1  12
BRANCH   1  14
ATOM     14  C   LIG    1       -2.099  -0.415  -1.211  0.00  0.00    +0.530 C 
ATOM     15  O   LIG    1       -1.666   0.388  -2.009  0.00  0.00    -0.520 OA
ATOM     16  N   LIG    1       -3.303  -0.987  -1.415  0.00  0.00    -0.850 N 
ATOM     17  H   LIG    1       -3.822  -0.755  -2.201  0.00  0.00    +0.410 HD
ATOM     18  H   LIG    1       -3.650  -1.629  -0.777  0.00  0.00    +0.400 HD
ENDBRANCH   1  14
TORSDOF 3
ENDMDL
MODEL      370
REMARK  Name = ZINC000005545206
REMARK                            x       y       z     vdW  Elec       q    Type
REMARK                         _______ _______ _______ _____ _____    ______ ____
ROOT
ATOM      1  C   LIG    1        0.002  -0.004   0.002  0.00  0.00    +0.120 C 
ATOM      2  C   LIG    1        0.716  -0.499  -1.259  0.00  0.00    +0.210 C 
ATOM      3  O   LIG    1        0.683  -1.927  -1.293  0.00  0.00    -0.340 OA
ATOM      4  C   LIG    1       -0.634  -2.480  -1.337  0.00  0.00    +0.190 C 
ATOM      5  C   LIG    1       -1.402  -2.064  -0.079  0.00  0.00    +0.190 C 
ATOM      6  C   LIG    1       -1.435  -0.535   0.010  0.00  0.00    +0.210 C 
ENDROOT
BRANCH   1   7
ATOM      7  O   LIG    1       -0.017   1.425   0.010  0.00  0.00    -0.560 OA
ATOM      8  H   LIG    1        0.861   1.830   0.004  0.00  0.00    +0.390 HD
ENDBRANCH   1   7
BRANCH   5   9
ATOM      9  O   LIG    1       -0.750  -2.596   1.076  0.00  0.00    -0.540 OA
ATOM     10  H   LIG    1       -0.690  -3.561   1.085  0.00  0.00    +0.390 HD
ENDBRANCH   5   9
BRANCH   6  11
ATOM     11  O   LIG    1       -2.146  -0.007  -1.111  0.00  0.00    -0.560 OA
ATOM     12  H   LIG    1       -2.205   0.959  -1.119  0.00  0.00    +0.400 HD
ENDBRANCH   6  11
BRANCH   4  13
ATOM     13  S   LIG    1       -0.529  -4.285  -1.411  0.00  0.00    +0.010 S 
BRANCH  13  14
ATOM     14  C   LIG    1        0.244  -4.482  -2.982  0.00  0.00    +0.190 A 
ATOM     15  N   LIG    1        0.607  -3.510  -3.787  0.00  0.00    -0.470 NA
ATOM     16  C   LIG    1        1.164  -4.033  -4.892  0.00  0.00    +0.160 A 
ATOM     17  C   LIG    1        1.152  -5.372  -4.779  0.00  0.00    +0.140 A 
ATOM     18  N   LIG    1        0.574  -5.668  -3.564  0.00  0.00    -0.560 N 
ATOM     19  H   LIG    1        0.424  -6.552  -3.197  0.00  0.00    +0.420 HD
ENDBRANCH  13  14
ENDBRANCH   4  13
TORSDOF 5
ENDMDL
MODEL      371
REMARK  Name = ZINC000001670189
REMARK                            x       y       z     vdW  Elec       q    Type
REMARK                         _______ _______ _______ _____ _____    ______ ____
ROOT
ATOM      1  C   LIG    1       -0.383  -1.500  -1.189  0.00  0.00    +0.140 C 
ENDROOT
BRANCH   1   2
ATOM      2  C   LIG    1       -1.377  -0.564  -0.499  0.00  0.00    -0.020 C 
BRANCH   2   6
ATOM      3  N   LIG    1       -2.488  -1.787   1.342  0.00  0.00    -0.850 N 
ATOM      4  H   LIG    1       -1.697  -1.634   1.882  0.00  0.00    +0.410 HD
ATOM      5  H   LIG    1       -3.254  -2.244   1.723  0.00  0.00    +0.410 HD
ATOM      6  C   LIG    1       -2.521  -1.370   0.061  0.00  0.00    +0.530 C 
ATOM      7  O   LIG    1       -3.471  -1.643  -0.642  0.00  0.00    -0.520 OA
ENDBRANCH   2   6
BRANCH   2   8
ATOM      8  C   LIG    1       -1.906   0.433  -1.498  0.00  0.00    +0.530 C 
ATOM      9  O   LIG    1       -2.096   0.096  -2.647  0.00  0.00    -0.510 OA
ATOM     10  N   LIG    1       -2.168   1.698  -1.114  0.00  0.00    -0.850 N 
ATOM     11  H   LIG    1       -2.571   2.321  -1.739  0.00  0.00    +0.410 HD
ATOM     12  H   LIG    1       -1.954   1.986  -0.212  0.00  0.00    +0.400 HD
ENDBRANCH   2   8
ENDBRANCH   1   2
BRANCH   1  13
ATOM     13  C   LIG    1        0.826  -0.695  -1.670  0.00  0.00    -0.010 C 
BRANCH  13  14
ATOM     14  C   LIG    1        1.725  -1.581  -2.492  0.00  0.00    +0.540 C 
ATOM     15  O   LIG    1        1.619  -2.787  -2.419  0.00  0.00    -0.510 OA
ATOM     16  N   LIG    1        2.647  -1.035  -3.309  0.00  0.00    -0.850 N 
ATOM     17  H   LIG    1        3.173  -1.601  -3.895  0.00  0.00    +0.410 HD
ATOM     18  H   LIG    1        2.784  -0.074  -3.312  0.00  0.00    +0.400 HD
ENDBRANCH  13  14
BRANCH  13  19
ATOM     19  C   LIG    1        1.587  -0.172  -0.480  0.00  0.00    +0.520 C 
ATOM     20  O   LIG    1        1.684  -0.848   0.522  0.00  0.00    -0.520 OA
ATOM     21  N   LIG    1        2.161   1.047  -0.529  0.00  0.00    -0.850 N 
ATOM     22  H   LIG    1        2.710   1.354   0.210  0.00  0.00    +0.410 HD
ATOM     23  H   LIG    1        2.025   1.616  -1.302  0.00  0.00    +0.400 HD
ENDBRANCH  13  19
ENDBRANCH   1  13
TORSDOF 6
ENDMDL
MODEL      372
REMARK  Name = ZINC000006537028
REMARK                            x       y       z     vdW  Elec       q    Type
REMARK                         _______ _______ _______ _____ _____    ______ ____
ROOT
ATOM      1  C   LIG    1       -1.293  -0.775   0.010  0.00  0.00    -0.010 C 
ENDROOT
BRANCH   1   5
ATOM      2  N   LIG    1       -0.016   1.344   0.009  0.00  0.00    -0.850 N 
ATOM      3  H   LIG    1       -0.863   1.817   0.016  0.00  0.00    +0.410 HD
ATOM      4  H   LIG    1        0.817   1.840   0.004  0.00  0.00    +0.410 HD
ATOM      5  C   LIG    1        0.002  -0.004   0.002  0.00  0.00    +0.540 C 
ATOM      6  O   LIG    1        1.060  -0.596  -0.011  0.00  0.00    -0.500 OA
ENDBRANCH   1   5
BRANCH   1   7
ATOM      7  C   LIG    1       -2.202  -0.242  -1.067  0.00  0.00    +0.540 C 
ATOM      8  O   LIG    1       -3.035   0.597  -0.796  0.00  0.00    -0.520 OA
ATOM      9  N   LIG    1       -2.089  -0.697  -2.330  0.00  0.00    -0.840 N 
ATOM     10  H   LIG    1       -2.674  -0.353  -3.023  0.00  0.00    +0.410 HD
ATOM     11  H   LIG    1       -1.422  -1.367  -2.547  0.00  0.00    +0.410 HD
ENDBRANCH   1   7
BRANCH   1  12
ATOM     12  S   LIG    1       -2.094  -0.591   1.623  0.00  0.00    +0.120 S 
BRANCH  12  13
ATOM     13  C   LIG    1       -0.915  -1.408   2.646  0.00  0.00    +0.260 A 
ATOM     14  N   LIG    1        0.177  -1.917   2.094  0.00  0.00    -0.500 NA
ATOM     15  C   LIG    1        1.082  -2.537   2.834  0.00  0.00    +0.340 A 
ATOM     16  C   LIG    1        0.877  -2.649   4.200  0.00  0.00    -0.080 A 
ATOM     17  C   LIG    1       -0.276  -2.105   4.744  0.00  0.00    +0.340 A 
ATOM     18  N   LIG    1       -1.139  -1.494   3.949  0.00  0.00    -0.500 NA
ENDBRANCH  12  13
ENDBRANCH   1  12
TORSDOF 4
ENDMDL
MODEL      373
REMARK  Name = ZINC000005290511
REMARK                            x       y       z     vdW  Elec       q    Type
REMARK                         _______ _______ _______ _____ _____    ______ ____
ROOT
ATOM      1  C   LIG    1       -1.293  -0.775   0.010  0.00  0.00    +0.010 C 
ENDROOT
BRANCH   1   2
ATOM      2  C   LIG    1       -0.949  -2.265   0.076  0.00  0.00    +0.090 C 
ATOM      3  C   LIG    1       -0.271  -2.561   1.376  0.00  0.00    +0.110 C 
ATOM      4  C   LIG    1       -0.583  -3.650   2.021  0.00  0.00    -0.470 C 
ATOM      5  S   LIG    1       -1.824  -4.499   1.072  0.00  0.00    +2.450 S 
ATOM      6  O   LIG    1       -2.876  -4.780   1.985  0.00  0.00    -0.930 OA
ATOM      7  O   LIG    1       -1.135  -5.529   0.377  0.00  0.00    -0.920 OA
ATOM      8  C   LIG    1       -2.249  -3.099  -0.039  0.00  0.00    -0.270 C 
ENDBRANCH   1   2
BRANCH   1  12
ATOM      9  N   LIG    1       -0.079   1.378  -0.075  0.00  0.00    -0.850 N 
ATOM     10  H   LIG    1       -0.939   1.826  -0.104  0.00  0.00    +0.400 HD
ATOM     11  H   LIG    1        0.740   1.899  -0.093  0.00  0.00    +0.410 HD
ATOM     12  C   LIG    1       -0.021   0.033  -0.017  0.00  0.00    +0.530 C 
ATOM     13  O   LIG    1        1.054  -0.527   0.014  0.00  0.00    -0.520 OA
ENDBRANCH   1  12
BRANCH   1  14
ATOM     14  C   LIG    1       -2.090  -0.499  -1.238  0.00  0.00    +0.530 C 
ATOM     15  O   LIG    1       -1.856  -1.115  -2.256  0.00  0.00    -0.510 OA
ATOM     16  N   LIG    1       -3.064   0.433  -1.223  0.00  0.00    -0.850 N 
ATOM     17  H   LIG    1       -3.625   0.560  -2.004  0.00  0.00    +0.410 HD
ATOM     18  H   LIG    1       -3.203   0.976  -0.432  0.00  0.00    +0.400 HD
ENDBRANCH   1  14
TORSDOF 3
ENDMDL
MODEL      374
REMARK  Name = ZINC000005545205
REMARK                            x       y       z     vdW  Elec       q    Type
REMARK                         _______ _______ _______ _____ _____    ______ ____
ROOT
ATOM      1  C   LIG    1        0.002  -0.004   0.002  0.00  0.00    +0.120 C 
ATOM      2  C   LIG    1        0.716  -0.499  -1.259  0.00  0.00    +0.210 C 
ATOM      3  O   LIG    1       -0.009  -0.071  -2.414  0.00  0.00    -0.340 OA
ATOM      4  C   LIG    1       -1.343  -0.576  -2.486  0.00  0.00    +0.180 C 
ATOM      5  C   LIG    1       -2.140  -0.084  -1.274  0.00  0.00    +0.190 C 
ATOM      6  C   LIG    1       -1.435  -0.535   0.010  0.00  0.00    +0.210 C 
ENDROOT
BRANCH   1   7
ATOM      7  O   LIG    1       -0.017   1.425   0.010  0.00  0.00    -0.540 OA
ATOM      8  H   LIG    1        0.861   1.830   0.004  0.00  0.00    +0.380 HD
ENDBRANCH   1   7
BRANCH   5   9
ATOM      9  O   LIG    1       -3.458  -0.633  -1.315  0.00  0.00    -0.540 OA
ATOM     10  H   LIG    1       -3.962  -0.391  -2.104  0.00  0.00    +0.380 HD
ENDBRANCH   5   9
BRANCH   6  11
ATOM     11  O   LIG    1       -2.132  -0.020   1.145  0.00  0.00    -0.540 OA
ATOM     12  H   LIG    1       -1.740  -0.267   1.994  0.00  0.00    +0.380 HD
ENDBRANCH   6  11
BRANCH   4  13
ATOM     13  S   LIG    1       -2.131   0.013  -4.006  0.00  0.00    +0.020 S 
BRANCH  13  14
ATOM     14  C   LIG    1       -1.225  -0.915  -5.199  0.00  0.00    +0.190 A 
ATOM     15  N   LIG    1       -0.268  -1.774  -4.938  0.00  0.00    -0.470 NA
ATOM     16  C   LIG    1        0.192  -2.290  -6.090  0.00  0.00    +0.160 A 
ATOM     17  C   LIG    1       -0.496  -1.739  -7.104  0.00  0.00    +0.140 A 
ATOM     18  N   LIG    1       -1.403  -0.867  -6.547  0.00  0.00    -0.560 N 
ATOM     19  H   LIG    1       -2.044  -0.318  -7.025  0.00  0.00    +0.420 HD
ENDBRANCH  13  14
ENDBRANCH   4  13
TORSDOF 5
ENDMDL
MODEL      375
REMARK  Name = ZINC000019141794
REMARK                            x       y       z     vdW  Elec       q    Type
REMARK                         _______ _______ _______ _____ _____    ______ ____
ROOT
ATOM      1  C   LIG    1       -1.293  -0.775   0.010  0.00  0.00    -0.010 C 
ENDROOT
BRANCH   1   5
ATOM      2  N   LIG    1       -0.016   1.344   0.009  0.00  0.00    -0.840 N 
ATOM      3  H   LIG    1       -0.863   1.817   0.016  0.00  0.00    +0.410 HD
ATOM      4  H   LIG    1        0.817   1.840   0.004  0.00  0.00    +0.410 HD
ATOM      5  C   LIG    1        0.002  -0.004   0.002  0.00  0.00    +0.540 C 
ATOM      6  O   LIG    1        1.060  -0.596  -0.011  0.00  0.00    -0.500 OA
ENDBRANCH   1   5
BRANCH   1   7
ATOM      7  C   LIG    1       -2.202  -0.242  -1.067  0.00  0.00    +0.550 C 
ATOM      8  O   LIG    1       -3.035   0.597  -0.796  0.00  0.00    -0.510 OA
ATOM      9  N   LIG    1       -2.089  -0.697  -2.330  0.00  0.00    -0.840 N 
ATOM     10  H   LIG    1       -2.674  -0.353  -3.023  0.00  0.00    +0.410 HD
ATOM     11  H   LIG    1       -1.422  -1.367  -2.547  0.00  0.00    +0.410 HD
ENDBRANCH   1   7
BRANCH   1  12
ATOM     12  S   LIG    1       -2.096  -0.591   1.626  0.00  0.00    +0.140 S 
BRANCH  12  13
ATOM     13  C   LIG    1       -0.971  -1.390   2.722  0.00  0.00    +0.170 A 
ATOM     14  N   LIG    1        0.162  -1.954   2.376  0.00  0.00    -0.290 NA
ATOM     15  N   LIG    1        0.737  -2.463   3.552  0.00  0.00    -0.470 N 
ATOM     16  H   LIG    1        1.579  -2.938   3.628  0.00  0.00    +0.450 HD
ATOM     17  C   LIG    1       -0.110  -2.163   4.551  0.00  0.00    +0.500 A 
ATOM     18  N   LIG    1       -1.128  -1.515   4.043  0.00  0.00    -0.520 NA
ENDBRANCH  12  13
ENDBRANCH   1  12
TORSDOF 4
ENDMDL
MODEL      376
REMARK  Name = ZINC000044563587
REMARK                            x       y       z     vdW  Elec       q    Type
REMARK                         _______ _______ _______ _____ _____    ______ ____
ROOT
ATOM      1  S   LIG    1        2.152  -2.605  -2.017  0.00  0.00    -0.170 S 
ENDROOT
BRANCH   1   2
ATOM      2  C   LIG    1        0.657  -2.104  -1.120  0.00  0.00    +0.300 C 
BRANCH   2   3
ATOM      3  C   LIG    1        0.598  -0.600  -1.043  0.00  0.00    +0.450 C 
ATOM      4  O   LIG    1        1.088   0.070  -1.921  0.00  0.00    -0.470 OA
BRANCH   3   6
ATOM      5  C   LIG    1       -0.018   1.448   0.010  0.00  0.00    +0.280 C 
ATOM      6  O   LIG    1        0.002  -0.004   0.002  0.00  0.00    -0.340 OA
ENDBRANCH   3   6
ENDBRANCH   2   3
BRANCH   2   7
ATOM      7  O   LIG    1        0.691  -2.647   0.202  0.00  0.00    -0.520 OA
ATOM      8  H   LIG    1        1.450  -2.358   0.727  0.00  0.00    +0.400 HD
ENDBRANCH   2   7
ENDBRANCH   1   2
BRANCH   1   9
ATOM      9  C   LIG    1        1.897  -4.383  -2.273  0.00  0.00    +0.300 C 
BRANCH   9  10
ATOM     10  C   LIG    1        3.168  -5.002  -2.795  0.00  0.00    +0.450 C 
ATOM     11  O   LIG    1        4.239  -4.533  -2.489  0.00  0.00    -0.470 OA
BRANCH  10  12
ATOM     12  O   LIG    1        3.111  -6.075  -3.600  0.00  0.00    -0.340 OA
ATOM     13  C   LIG    1        4.375  -6.619  -4.064  0.00  0.00    +0.280 C 
ENDBRANCH  10  12
ENDBRANCH   9  10
BRANCH   9  14
ATOM     14  O   LIG    1        0.847  -4.582  -3.221  0.00  0.00    -0.520 OA
ATOM     15  H   LIG    1        1.020  -4.191  -4.088  0.00  0.00    +0.400 HD
ENDBRANCH   9  14
ENDBRANCH   1   9
TORSDOF 8
ENDMDL
MODEL      377
REMARK  Name = ZINC000003635318
REMARK                            x       y       z     vdW  Elec       q    Type
REMARK                         _______ _______ _______ _____ _____    ______ ____
ROOT
ATOM      1  C   LIG    1        0.059  -4.184  -0.075  0.00  0.00    +0.280 C 
ENDROOT
BRANCH   1   6
ATOM      2  C   LIG    1       -0.018   1.503   0.010  0.00  0.00    +0.140 C 
ATOM      3  C   LIG    1        0.002  -0.004   0.002  0.00  0.00    +0.080 A 
ATOM      4  C   LIG    1        0.006  -0.689  -1.200  0.00  0.00    +0.230 A 
ATOM      5  N   LIG    1        0.024  -2.011  -1.207  0.00  0.00    -0.420 NA
ATOM      6  C   LIG    1        0.038  -2.677  -0.067  0.00  0.00    +0.040 A 
ATOM      7  C   LIG    1        0.034  -1.992   1.136  0.00  0.00    +0.240 A 
ATOM      8  N   LIG    1        0.022  -0.671   1.143  0.00  0.00    -0.430 NA
ENDBRANCH   1   6
BRANCH   1   9
ATOM      9  O   LIG    1       -0.046  -4.670   1.265  0.00  0.00    -0.540 OA
ATOM     10  H   LIG    1       -0.855  -4.398   1.720  0.00  0.00    +0.370 HD
ENDBRANCH   1   9
BRANCH   1  11
ATOM     11  C   LIG    1       -1.119  -4.706  -0.900  0.00  0.00    +0.180 C 
BRANCH  11  12
ATOM     12  O   LIG    1       -2.337  -4.156  -0.393  0.00  0.00    -0.550 OA
ATOM     13  H   LIG    1       -2.514  -4.379   0.531  0.00  0.00    +0.370 HD
ENDBRANCH  11  12
BRANCH  11  14
ATOM     14  C   LIG    1       -1.171  -6.232  -0.806  0.00  0.00    +0.190 C 
BRANCH  14  15
ATOM     15  O   LIG    1        0.046  -6.782  -1.313  0.00  0.00    -0.540 OA
ATOM     16  H   LIG    1        0.224  -6.559  -2.237  0.00  0.00    +0.370 HD
ENDBRANCH  14  15
BRANCH  14  17
ATOM     17  C   LIG    1       -2.349  -6.754  -1.631  0.00  0.00    +0.160 C 
BRANCH  17  18
ATOM     18  O   LIG    1       -2.469  -8.167  -1.450  0.00  0.00    -0.560 OA
ATOM     19  H   LIG    1       -3.197  -8.566  -1.945  0.00  0.00    +0.380 HD
ENDBRANCH  17  18
ENDBRANCH  14  17
ENDBRANCH  11  14
ENDBRANCH   1  11
TORSDOF 8
ENDMDL
MODEL      378
REMARK  Name = ZINC000012358951
REMARK                            x       y       z     vdW  Elec       q    Type
REMARK                         _______ _______ _______ _____ _____    ______ ____
ROOT
ATOM      1  C   LIG    1       -0.019   1.526   0.010  0.00  0.00    +0.020 C 
ATOM      2  C   LIG    1        0.002  -0.004   0.002  0.00  0.00    +0.160 C 
ATOM      3  O   LIG    1        0.567  -0.466  -1.227  0.00  0.00    -0.370 OA
ATOM      4  C   LIG    1        1.897  -0.005  -1.467  0.00  0.00    +0.270 C 
ATOM      5  C   LIG    1        2.820  -0.510  -0.355  0.00  0.00    +0.150 C 
ATOM      6  C   LIG    1        2.291  -0.024   0.997  0.00  0.00    +0.170 C 
ATOM      7  C   LIG    1        3.162  -0.590   2.121  0.00  0.00    +0.040 C 
ATOM      8  C   LIG    1        4.233   0.033  -0.577  0.00  0.00    +0.040 C 
ATOM      9  C   LIG    1        0.849  -0.510   1.173  0.00  0.00    +0.080 C 
ATOM     10  C   LIG    1        0.282   0.035   2.486  0.00  0.00    +0.020 C 
ENDROOT
BRANCH   6  11
ATOM     11  O   LIG    1        2.325   1.404   1.039  0.00  0.00    -0.520 OA
ATOM     12  H   LIG    1        2.003   1.781   1.869  0.00  0.00    +0.380 HD
ENDBRANCH   6  11
BRANCH   5  13
ATOM     13  O   LIG    1        2.850  -1.939  -0.372  0.00  0.00    -0.520 OA
ATOM     14  H   LIG    1        3.172  -2.316  -1.203  0.00  0.00    +0.370 HD
ENDBRANCH   5  13
BRANCH   4  15
ATOM     15  O   LIG    1        1.911   1.424  -1.485  0.00  0.00    -0.540 OA
ATOM     16  H   LIG    1        1.346   1.814  -2.166  0.00  0.00    +0.380 HD
ENDBRANCH   4  15
BRANCH   9  17
ATOM     17  O   LIG    1        0.825  -1.938   1.198  0.00  0.00    -0.520 OA
ATOM     18  H   LIG    1       -0.059  -2.315   1.307  0.00  0.00    +0.370 HD
ENDBRANCH   9  17
BRANCH   4  19
ATOM     19  C   LIG    1        2.386  -0.536  -2.817  0.00  0.00    +0.190 C 
BRANCH  19  20
ATOM     20  O   LIG    1        1.523  -0.065  -3.854  0.00  0.00    -0.560 OA
ATOM     21  H   LIG    1        1.773  -0.363  -4.739  0.00  0.00    +0.390 HD
ENDBRANCH  19  20
ENDBRANCH   4  19
TORSDOF 6
ENDMDL
MODEL      379
REMARK  Name = ZINC000012358808
REMARK                            x       y       z     vdW  Elec       q    Type
REMARK                         _______ _______ _______ _____ _____    ______ ____
ROOT
ATOM      1  C   LIG    1       -0.019   1.529   0.010  0.00  0.00    +0.020 C 
ATOM      2  C   LIG    1        0.002  -0.004   0.002  0.00  0.00    +0.280 C 
ATOM      3  O   LIG    1        0.548  -0.480  -1.218  0.00  0.00    -0.370 OA
ATOM      4  C   LIG    1        1.946  -0.274  -1.392  0.00  0.00    +0.160 C 
ATOM      5  C   LIG    1        2.695  -1.078  -0.331  0.00  0.00    +0.090 C 
ATOM      6  C   LIG    1        2.233  -0.708   1.071  0.00  0.00    +0.170 C 
ATOM      7  C   LIG    1        2.958   0.572   1.518  0.00  0.00    +0.050 C 
ATOM      8  C   LIG    1        2.498  -2.575  -0.587  0.00  0.00    +0.040 C 
ATOM      9  C   LIG    1        0.734  -0.526   1.228  0.00  0.00    +0.140 C 
ATOM     10  C   LIG    1        0.093  -1.853   1.668  0.00  0.00    +0.050 C 
ENDROOT
BRANCH   6  11
ATOM     11  O   LIG    1        2.650  -1.763   1.966  0.00  0.00    -0.550 OA
ATOM     12  H   LIG    1        3.607  -1.901   1.992  0.00  0.00    +0.380 HD
ENDBRANCH   6  11
BRANCH   5  13
ATOM     13  O   LIG    1        4.099  -0.786  -0.448  0.00  0.00    -0.550 OA
ATOM     14  H   LIG    1        4.477  -1.010  -1.309  0.00  0.00    +0.380 HD
ENDBRANCH   5  13
BRANCH   2  15
ATOM     15  O   LIG    1       -1.368  -0.453   0.076  0.00  0.00    -0.540 OA
ATOM     16  H   LIG    1       -1.920  -0.152  -0.658  0.00  0.00    +0.390 HD
ENDBRANCH   2  15
BRANCH   9  17
ATOM     17  O   LIG    1        0.516   0.418   2.302  0.00  0.00    -0.550 OA
ATOM     18  H   LIG    1       -0.416   0.602   2.480  0.00  0.00    +0.380 HD
ENDBRANCH   9  17
BRANCH   4  19
ATOM     19  C   LIG    1        2.360  -0.769  -2.784  0.00  0.00    +0.200 C 
BRANCH  19  20
ATOM     20  O   LIG    1        1.729   0.035  -3.782  0.00  0.00    -0.560 OA
ATOM     21  H   LIG    1        1.947  -0.221  -4.689  0.00  0.00    +0.380 HD
ENDBRANCH  19  20
ENDBRANCH   4  19
TORSDOF 6
ENDMDL
MODEL      380
REMARK  Name = ZINC000001497599
REMARK                            x       y       z     vdW  Elec       q    Type
REMARK                         _______ _______ _______ _____ _____    ______ ____
ROOT
ATOM      1  C   LIG    1        0.025   1.461  -0.005  0.00  0.00    +0.330 C 
ATOM      2  N   LIG    1        0.024  -0.004  -0.006  0.00  0.00    -0.560 N 
ATOM      3  C   LIG    1       -0.690  -0.671  -0.935  0.00  0.00    +0.560 A 
ATOM      4  C   LIG    1       -0.689  -2.075  -0.933  0.00  0.00    -0.200 A 
ATOM      5  C   LIG    1        0.039  -2.737   0.016  0.00  0.00    +0.470 A 
ATOM      6  N   LIG    1        0.752  -2.017   0.944  0.00  0.00    -0.650 N 
ATOM      7  H   LIG    1        1.270  -2.481   1.620  0.00  0.00    +0.430 HD
ATOM      8  O   LIG    1       -1.331  -0.059  -1.772  0.00  0.00    -0.520 OA
ATOM      9  C   LIG    1        0.739  -0.672   0.917  0.00  0.00    +0.710 A 
ATOM     10  O   LIG    1        1.375  -0.050   1.746  0.00  0.00    -0.540 OA
ENDROOT
BRANCH   5  11
ATOM     11  N   LIG    1        0.059  -4.108   0.041  0.00  0.00    -0.620 N 
ATOM     12  C   LIG    1       -0.040  -4.890  -1.202  0.00  0.00    +0.280 C 
ATOM     13  C   LIG    1        1.099  -5.916  -1.220  0.00  0.00    +0.210 C 
ATOM     14  O   LIG    1        1.081  -6.659   0.001  0.00  0.00    -0.370 OA
ATOM     15  C   LIG    1        1.307  -5.869   1.171  0.00  0.00    +0.210 C 
ATOM     16  C   LIG    1        0.184  -4.841   1.311  0.00  0.00    +0.260 C 
ENDBRANCH   5  11
TORSDOF 1
ENDMDL
MODEL      381
REMARK  Name = ZINC000023973087
REMARK                            x       y       z     vdW  Elec       q    Type
REMARK                         _______ _______ _______ _____ _____    ______ ____
ROOT
ATOM      1  C   LIG    1        1.526  -2.281  -2.655  0.00  0.00    +0.510 C 
ATOM      2  N   LIG    1        1.665  -3.603  -2.876  0.00  0.00    -0.700 N 
ATOM      3  H   LIG    1        1.312  -4.241  -2.238  0.00  0.00    +0.410 HD
ATOM      4  O   LIG    1        1.969  -1.482  -3.453  0.00  0.00    -0.520 OA
ENDROOT
BRANCH   1   7
ATOM      5  N   LIG    1        0.688  -0.476  -1.203  0.00  0.00    -0.700 N 
ATOM      6  H   LIG    1        1.042   0.162  -1.842  0.00  0.00    +0.410 HD
ATOM      7  C   LIG    1        0.827  -1.799  -1.425  0.00  0.00    +0.510 C 
ATOM      8  O   LIG    1        0.384  -2.598  -0.626  0.00  0.00    -0.520 OA
BRANCH   5  10
ATOM      9  C   LIG    1       -0.019   1.526   0.010  0.00  0.00    +0.030 C 
ATOM     10  C   LIG    1        0.002  -0.004   0.002  0.00  0.00    +0.250 C 
ENDBRANCH   5  10
ENDBRANCH   1   7
BRANCH   2  11
ATOM     11  C   LIG    1        2.351  -4.075  -4.082  0.00  0.00    +0.270 C 
BRANCH  11  12
ATOM     12  C   LIG    1        2.372  -5.605  -4.090  0.00  0.00    +0.020 C 
BRANCH  12  13
ATOM     13  C   LIG    1        3.088  -6.098  -5.349  0.00  0.00    +0.180 C 
BRANCH  13  14
ATOM     14  N   LIG    1        3.108  -7.567  -5.357  0.00  0.00    -0.540 NA
ATOM     15  C   LIG    1        3.514  -8.096  -4.047  0.00  0.00    +0.140 C 
ATOM     16  C   LIG    1        3.464  -9.626  -4.082  0.00  0.00    +0.220 C 
ATOM     17  O   LIG    1        4.300 -10.101  -5.140  0.00  0.00    -0.390 OA
ATOM     18  C   LIG    1        3.932  -9.606  -6.431  0.00  0.00    +0.220 C 
ATOM     19  C   LIG    1        3.987  -8.076  -6.420  0.00  0.00    +0.150 C 
ENDBRANCH  13  14
ENDBRANCH  12  13
ENDBRANCH  11  12
ENDBRANCH   2  11
TORSDOF 6
ENDMDL
MODEL      382
REMARK  Name = ZINC000072379678
REMARK                            x       y       z     vdW  Elec       q    Type
REMARK                         _______ _______ _______ _____ _____    ______ ____
ROOT
ATOM      1  C   LIG    1        0.055  -3.175   1.624  0.00  0.00    +0.610 C 
ATOM      2  N   LIG    1        0.161  -2.980   2.954  0.00  0.00    -0.600 N 
ATOM      3  C   LIG    1        0.140  -1.624   3.525  0.00  0.00    +0.270 C 
ATOM      4  C   LIG    1        1.343  -1.477   4.464  0.00  0.00    +0.220 C 
ATOM      5  O   LIG    1        1.346  -2.559   5.398  0.00  0.00    -0.350 OA
ATOM      6  C   LIG    1        1.494  -3.849   4.799  0.00  0.00    +0.150 C 
ATOM      7  C   LIG    1        0.294  -4.118   3.878  0.00  0.00    +0.290 C 
ATOM      8  O   LIG    1       -0.008  -4.304   1.179  0.00  0.00    -0.530 OA
ENDROOT
BRANCH   1  13
ATOM      9  C   LIG    1       -0.121   1.460   0.015  0.00  0.00    +0.370 C 
ATOM     10  N   LIG    1       -0.059  -0.004   0.005  0.00  0.00    -0.280 N 
ATOM     11  C   LIG    1       -0.014  -0.768  -1.107  0.00  0.00    +0.180 A 
ATOM     12  C   LIG    1        0.036  -2.059  -0.705  0.00  0.00    -0.010 A 
ATOM     13  C   LIG    1        0.017  -2.016   0.709  0.00  0.00    -0.010 A 
ATOM     14  N   LIG    1       -0.036  -0.745   1.054  0.00  0.00    -0.270 NA
ENDBRANCH   1  13
BRANCH   6  15
ATOM     15  C   LIG    1        1.547  -4.901   5.877  0.00  0.00    +0.530 C 
ATOM     16  O   LIG    1        1.374  -4.591   7.037  0.00  0.00    -0.510 OA
ATOM     17  N   LIG    1        1.785  -6.187   5.552  0.00  0.00    -0.850 N 
ATOM     18  H   LIG    1        1.819  -6.864   6.245  0.00  0.00    +0.410 HD
ATOM     19  H   LIG    1        1.923  -6.435   4.624  0.00  0.00    +0.400 HD
ENDBRANCH   6  15
TORSDOF 2
ENDMDL
MODEL      383
REMARK  Name = ZINC000013602797
REMARK                            x       y       z     vdW  Elec       q    Type
REMARK                         _______ _______ _______ _____ _____    ______ ____
ROOT
ATOM      1  C   LIG    1       -1.136  -2.159   0.001  0.00  0.00    +0.380 C 
ATOM      2  O   LIG    1       -1.260  -2.630  -1.342  0.00  0.00    -0.370 OA
ATOM      3  C   LIG    1       -1.226  -4.053  -1.467  0.00  0.00    +0.200 C 
ATOM      4  C   LIG    1       -2.398  -4.660  -0.691  0.00  0.00    +0.180 C 
ATOM      5  C   LIG    1       -2.312  -4.220   0.774  0.00  0.00    +0.170 C 
ATOM      6  C   LIG    1       -2.304  -2.690   0.837  0.00  0.00    +0.130 C 
ENDROOT
BRANCH   1   9
ATOM      7  C   LIG    1       -0.018   1.503   0.010  0.00  0.00    +0.110 C 
ATOM      8  C   LIG    1        0.002  -0.004   0.002  0.00  0.00    +0.520 C 
ATOM      9  N   LIG    1       -1.156  -0.694   0.009  0.00  0.00    -0.720 N 
ATOM     10  H   LIG    1       -2.002  -0.220   0.020  0.00  0.00    +0.400 HD
ATOM     11  O   LIG    1        1.060  -0.596  -0.011  0.00  0.00    -0.530 OA
ENDBRANCH   1   9
BRANCH   5  12
ATOM     12  O   LIG    1       -3.440  -4.724   1.492  0.00  0.00    -0.560 OA
ATOM     13  H   LIG    1       -3.451  -4.483   2.428  0.00  0.00    +0.390 HD
ENDBRANCH   5  12
BRANCH   4  14
ATOM     14  O   LIG    1       -3.630  -4.207  -1.255  0.00  0.00    -0.550 OA
ATOM     15  H   LIG    1       -4.416  -4.554  -0.811  0.00  0.00    +0.390 HD
ENDBRANCH   4  14
BRANCH   6  16
ATOM     16  O   LIG    1       -2.152  -2.268   2.194  0.00  0.00    -0.560 OA
ATOM     17  H   LIG    1       -2.139  -1.308   2.308  0.00  0.00    +0.390 HD
ENDBRANCH   6  16
BRANCH   3  18
ATOM     18  C   LIG    1       -1.338  -4.438  -2.943  0.00  0.00    +0.220 C 
BRANCH  18  19
ATOM     19  O   LIG    1       -0.186  -3.969  -3.647  0.00  0.00    -0.570 OA
ATOM     20  H   LIG    1       -0.189  -4.179  -4.591  0.00  0.00    +0.380 HD
ENDBRANCH  18  19
ENDBRANCH   3  18
TORSDOF 6
ENDMDL
MODEL      384
REMARK  Name = ZINC000072382013
REMARK                            x       y       z     vdW  Elec       q    Type
REMARK                         _______ _______ _______ _____ _____    ______ ____
ROOT
ATOM      1  C   LIG    1        0.002  -0.004   0.002  0.00  0.00    +0.650 A 
ATOM      2  N   LIG    1       -1.137  -0.667   0.004  0.00  0.00    -0.590 NA
ATOM      3  C   LIG    1       -1.164  -1.998  -0.003  0.00  0.00    +0.230 A 
ATOM      4  C   LIG    1        0.003  -2.706  -0.013  0.00  0.00    -0.180 A 
ATOM      5  C   LIG    1        1.222  -2.006  -0.015  0.00  0.00    +0.540 A 
ATOM      6  O   LIG    1        2.284  -2.607  -0.024  0.00  0.00    -0.540 OA
ATOM      7  N   LIG    1        1.196  -0.656  -0.013  0.00  0.00    -0.650 N 
ATOM      8  H   LIG    1        2.025  -0.153  -0.014  0.00  0.00    +0.410 HD
ENDROOT
BRANCH   3   9
ATOM      9  C   LIG    1       -2.485  -2.724  -0.001  0.00  0.00    +0.050 C 
ATOM     10  C   LIG    1       -3.568  -2.037   0.849  0.00  0.00    +0.320 C 
ATOM     11  N   LIG    1       -4.493  -2.351  -0.257  0.00  0.00    -0.650 N 
ATOM     12  C   LIG    1       -5.826  -2.525  -0.353  0.00  0.00    +0.530 C 
ATOM     13  O   LIG    1       -6.524  -2.422   0.634  0.00  0.00    -0.520 OA
ATOM     14  C   LIG    1       -3.373  -2.398  -1.216  0.00  0.00    +0.310 C 
BRANCH  12  15
ATOM     15  C   LIG    1       -6.450  -2.846  -1.687  0.00  0.00    +0.230 C 
BRANCH  15  16
ATOM     16  O   LIG    1       -7.864  -2.983  -1.531  0.00  0.00    -0.550 OA
ATOM     17  H   LIG    1       -8.332  -3.190  -2.351  0.00  0.00    +0.390 HD
ENDBRANCH  15  16
ENDBRANCH  12  15
ENDBRANCH   3   9
BRANCH   1  18
ATOM     18  N   LIG    1       -0.017   1.365   0.009  0.00  0.00    -0.820 N 
ATOM     19  H   LIG    1       -0.863   1.838   0.016  0.00  0.00    +0.430 HD
ATOM     20  H   LIG    1        0.817   1.861   0.004  0.00  0.00    +0.420 HD
ENDBRANCH   1  18
TORSDOF 4
ENDMDL
MODEL      385
REMARK  Name = ZINC000034505992
REMARK                            x       y       z     vdW  Elec       q    Type
REMARK                         _______ _______ _______ _____ _____    ______ ____
ROOT
ATOM      1  N   LIG    1        1.461  -3.825  -2.510  0.00  0.00    -0.700 N 
ATOM      2  H   LIG    1        1.042  -4.275  -1.760  0.00  0.00    +0.430 HD
ATOM      3  C   LIG    1        2.026  -4.546  -3.498  0.00  0.00    +0.520 C 
ATOM      4  O   LIG    1        2.551  -3.982  -4.437  0.00  0.00    -0.510 OA
ENDROOT
BRANCH   3   5
ATOM      5  C   LIG    1        2.008  -6.039  -3.438  0.00  0.00    +0.510 C 
ATOM      6  N   LIG    1        2.574  -6.760  -4.427  0.00  0.00    -0.700 N 
ATOM      7  H   LIG    1        2.993  -6.310  -5.177  0.00  0.00    +0.420 HD
ATOM      8  O   LIG    1        1.484  -6.602  -2.500  0.00  0.00    -0.510 OA
BRANCH   6   9
ATOM      9  C   LIG    1        2.556  -8.223  -4.368  0.00  0.00    +0.280 C 
BRANCH   9  10
ATOM     10  C   LIG    1        3.249  -8.784  -5.584  0.00  0.00    +0.350 C 
ATOM     11  O   LIG    1        3.709  -8.037  -6.413  0.00  0.00    -0.450 OA
ATOM     12  C   LIG    1        3.366 -10.275  -5.764  0.00  0.00    +0.080 C 
ENDBRANCH   9  10
ENDBRANCH   6   9
ENDBRANCH   3   5
BRANCH   1  13
ATOM     13  C   LIG    1        1.479  -2.361  -2.569  0.00  0.00    +0.370 C 
BRANCH  13  14
ATOM     14  C   LIG    1        0.786  -1.801  -1.353  0.00  0.00    +0.460 C 
ATOM     15  O   LIG    1        0.325  -2.548  -0.523  0.00  0.00    -0.500 OA
BRANCH  14  16
ATOM     16  O   LIG    1        0.682  -0.472  -1.193  0.00  0.00    -0.350 OA
BRANCH  16  18
ATOM     17  C   LIG    1       -0.019   1.526   0.010  0.00  0.00    +0.070 C 
ATOM     18  C   LIG    1        0.002  -0.004   0.002  0.00  0.00    +0.200 C 
ENDBRANCH  16  18
ENDBRANCH  14  16
ENDBRANCH  13  14
ENDBRANCH   1  13
TORSDOF 7
ENDMDL
MODEL      386
REMARK  Name = ZINC000031659374
REMARK                            x       y       z     vdW  Elec       q    Type
REMARK                         _______ _______ _______ _____ _____    ______ ____
ROOT
ATOM      1  C   LIG    1        0.742  -0.511   1.242  0.00  0.00    +0.080 C 
ATOM      2  C   LIG    1       -0.080  -0.147   2.464  0.00  0.00    +0.520 C 
ATOM      3  N   LIG    1        0.509   0.621   3.405  0.00  0.00    -0.690 NA
ATOM      4  C   LIG    1        1.769   1.054   3.280  0.00  0.00    +0.670 C 
ATOM      5  N   LIG    1        2.569   0.785   2.242  0.00  0.00    -0.690 N 
ATOM      6  H   LIG    1        3.470   1.142   2.238  0.00  0.00    +0.400 HD
ATOM      7  O   LIG    1        2.220   1.740   4.176  0.00  0.00    -0.580 OA
ATOM      8  O   LIG    1       -1.222  -0.531   2.590  0.00  0.00    -0.550 OA
ATOM      9  C   LIG    1        2.158   0.031   1.200  0.00  0.00    +0.540 C 
ATOM     10  O   LIG    1        2.894  -0.204   0.266  0.00  0.00    -0.530 OA
ENDROOT
BRANCH   1  11
ATOM     11  N   LIG    1        0.810  -1.972   1.162  0.00  0.00    -0.670 N 
ATOM     12  H   LIG    1        0.419  -2.436   0.405  0.00  0.00    +0.410 HD
ATOM     13  C   LIG    1        1.418  -2.673   2.140  0.00  0.00    +0.480 C 
ATOM     14  O   LIG    1        1.908  -2.093   3.086  0.00  0.00    -0.510 OA
BRANCH  13  15
ATOM     15  C   LIG    1        1.488  -4.176   2.058  0.00  0.00    +0.300 C 
BRANCH  15  16
ATOM     16  N   LIG    1        2.194  -4.698   3.236  0.00  0.00    -0.620 N 
ATOM     17  H   LIG    1        2.241  -5.704   3.181  0.00  0.00    +0.440 HD
ATOM     18  H   LIG    1        1.698  -4.429   4.072  0.00  0.00    +0.440 HD
ATOM     19  H   LIG    1        3.129  -4.318   3.263  0.00  0.00    +0.440 HD
ENDBRANCH  15  16
ENDBRANCH  13  15
ENDBRANCH   1  11
BRANCH   1  21
ATOM     20  C   LIG    1       -0.019   1.526   0.010  0.00  0.00    +0.030 C 
ATOM     21  C   LIG    1        0.002  -0.004   0.002  0.00  0.00    +0.060 C 
ENDBRANCH   1  21
TORSDOF 4
ENDMDL
MODEL      387
REMARK  Name = ZINC000005500823
REMARK                            x       y       z     vdW  Elec       q    Type
REMARK                         _______ _______ _______ _____ _____    ______ ____
ROOT
ATOM      1  CA  GLN A  1       -2.307  -3.058   0.008  0.00  0.00    +0.180 C 
ENDROOT
BRANCH   1   2
ATOM      2  C   GLN A  1       -2.013  -4.532   0.121  0.00  0.00    +0.480 C 
ATOM      3  N   GLY A  2       -1.724  -5.071   1.321  0.00  0.00    -0.660 N 
ATOM      4  H   GLY A  2       -1.704  -4.511   2.113  0.00  0.00    +0.420 HD
ATOM      5  O   GLN A  1       -2.038  -5.233  -0.869  0.00  0.00    -0.550 OA
BRANCH   3   6
ATOM      6  CA  GLY A  2       -1.438  -6.504   1.431  0.00  0.00    +0.200 C 
BRANCH   6   7
ATOM      7  C   GLY A  2       -1.147  -6.849   2.869  0.00  0.00    +0.490 C 
ATOM      8  OXT GLY A  2       -0.883  -7.999   3.179  0.00  0.00    -0.670 OA
ATOM      9  O   GLY A  2       -1.176  -5.979   3.723  0.00  0.00    -0.690 OA
ENDBRANCH   6   7
ENDBRANCH   3   6
ENDBRANCH   1   2
BRANCH   1  10
ATOM     10  N   GLN A  1       -3.039  -2.800  -1.239  0.00  0.00    -0.620 N 
ATOM     11  H1  GLN A  1       -3.906  -3.316  -1.234  0.00  0.00    +0.440 HD
ATOM     12  H2  GLN A  1       -2.479  -3.092  -2.026  0.00  0.00    +0.440 HD
ATOM     13  H3  GLN A  1       -3.236  -1.813  -1.315  0.00  0.00    +0.430 HD
ENDBRANCH   1  10
BRANCH   1  14
ATOM     14  CB  GLN A  1       -0.993  -2.276  -0.001  0.00  0.00    +0.110 C 
BRANCH  14  15
ATOM     15  CG  GLN A  1       -1.293  -0.775   0.010  0.00  0.00    +0.050 C 
BRANCH  15  19
ATOM     16  NE2 GLN A  1       -0.016   1.344   0.009  0.00  0.00    -0.850 N 
ATOM     17 HE21 GLN A  1       -0.863   1.817   0.016  0.00  0.00    +0.400 HD
ATOM     18 HE22 GLN A  1        0.817   1.840   0.004  0.00  0.00    +0.410 HD
ATOM     19  CD  GLN A  1        0.002  -0.004   0.002  0.00  0.00    +0.510 C 
ATOM     20  OE1 GLN A  1        1.060  -0.596  -0.011  0.00  0.00    -0.530 OA
ENDBRANCH  15  19
ENDBRANCH  14  15
ENDBRANCH   1  14
TORSDOF 7
ENDMDL
MODEL      388
REMARK  Name = ZINC000001581634
REMARK                            x       y       z     vdW  Elec       q    Type
REMARK                         _______ _______ _______ _____ _____    ______ ____
ROOT
ATOM      1  CA  GLN A  1       -2.307  -3.058   0.008  0.00  0.00    +0.180 C 
ENDROOT
BRANCH   1   2
ATOM      2  C   GLN A  1       -2.016  -4.531  -0.127  0.00  0.00    +0.480 C 
ATOM      3  N   GLY A  2       -1.749  -5.057  -1.339  0.00  0.00    -0.660 N 
ATOM      4  H   GLY A  2       -1.745  -4.488  -2.124  0.00  0.00    +0.420 HD
ATOM      5  O   GLN A  1       -2.021  -5.242   0.855  0.00  0.00    -0.550 OA
BRANCH   3   6
ATOM      6  CA  GLY A  2       -1.466  -6.489  -1.469  0.00  0.00    +0.200 C 
BRANCH   6   7
ATOM      7  C   GLY A  2       -1.202  -6.818  -2.916  0.00  0.00    +0.490 C 
ATOM      8  OXT GLY A  2       -0.945  -7.964  -3.243  0.00  0.00    -0.670 OA
ATOM      9  O   GLY A  2       -1.248  -5.939  -3.760  0.00  0.00    -0.690 OA
ENDBRANCH   6   7
ENDBRANCH   3   6
ENDBRANCH   1   2
BRANCH   1  10
ATOM     10  N   GLN A  1       -3.015  -2.813   1.271  0.00  0.00    -0.620 N 
ATOM     11  H1  GLN A  1       -3.211  -1.827   1.361  0.00  0.00    +0.430 HD
ATOM     12  H2  GLN A  1       -2.440  -3.114   2.043  0.00  0.00    +0.440 HD
ATOM     13  H3  GLN A  1       -3.882  -3.329   1.276  0.00  0.00    +0.440 HD
ENDBRANCH   1  10
BRANCH   1  14
ATOM     14  CB  GLN A  1       -0.993  -2.276  -0.001  0.00  0.00    +0.110 C 
BRANCH  14  15
ATOM     15  CG  GLN A  1       -1.293  -0.775   0.010  0.00  0.00    +0.050 C 
BRANCH  15  19
ATOM     16  NE2 GLN A  1       -0.016   1.344   0.009  0.00  0.00    -0.850 N 
ATOM     17 HE21 GLN A  1       -0.863   1.817   0.016  0.00  0.00    +0.400 HD
ATOM     18 HE22 GLN A  1        0.817   1.840   0.004  0.00  0.00    +0.410 HD
ATOM     19  CD  GLN A  1        0.002  -0.004   0.002  0.00  0.00    +0.510 C 
ATOM     20  OE1 GLN A  1        1.060  -0.596  -0.011  0.00  0.00    -0.530 OA
ENDBRANCH  15  19
ENDBRANCH  14  15
ENDBRANCH   1  14
TORSDOF 7
ENDMDL
MODEL      389
REMARK  Name = ZINC000005600605
REMARK                            x       y       z     vdW  Elec       q    Type
REMARK                         _______ _______ _______ _____ _____    ______ ____
ROOT
ATOM      1  C   LIG    1        0.806  -0.372  -1.263  0.00  0.00    +0.120 C 
ATOM      2  O   LIG    1        2.119   0.197  -1.452  0.00  0.00    -0.350 OA
ATOM      3  C   LIG    1        2.244   0.356  -2.881  0.00  0.00    +0.390 C 
ATOM      4  O   LIG    1        0.941   0.800  -3.315  0.00  0.00    -0.370 OA
ATOM      5  C   LIG    1        0.010   0.033  -2.519  0.00  0.00    +0.150 C 
ENDROOT
BRANCH   5   6
ATOM      6  C   LIG    1       -1.196   0.893  -2.134  0.00  0.00    +0.180 C 
ATOM      7  C   LIG    1       -1.974   1.341  -3.396  0.00  0.00    +0.210 C 
ATOM      8  O   LIG    1       -3.306   1.541  -2.864  0.00  0.00    -0.380 OA
ATOM      9  C   LIG    1       -3.465   0.511  -1.874  0.00  0.00    +0.380 C 
ATOM     10  O   LIG    1       -2.166   0.113  -1.407  0.00  0.00    -0.390 OA
ENDBRANCH   5   6
BRANCH   1  11
ATOM     11  C   LIG    1        0.151   0.209  -0.008  0.00  0.00    +0.250 C 
BRANCH  11  12
ATOM     12  C   LIG    1        0.894  -0.290   1.233  0.00  0.00    +0.120 C 
ATOM     13  C   LIG    1        0.352   0.408   2.500  0.00  0.00    +0.220 C 
ATOM     14  O   LIG    1        1.551   0.643   3.277  0.00  0.00    -0.380 OA
ATOM     15  C   LIG    1        2.539   0.961   2.274  0.00  0.00    +0.370 C 
ATOM     16  O   LIG    1        2.283   0.079   1.165  0.00  0.00    -0.360 OA
ENDBRANCH  11  12
BRANCH  11  17
ATOM     17  O   LIG    1        0.209   1.636  -0.057  0.00  0.00    -0.540 OA
ATOM     18  H   LIG    1        1.107   1.991  -0.100  0.00  0.00    +0.380 HD
ENDBRANCH  11  17
ENDBRANCH   1  11
TORSDOF 4
ENDMDL
MODEL      390
REMARK  Name = ZINC000005600707
REMARK                            x       y       z     vdW  Elec       q    Type
REMARK                         _______ _______ _______ _____ _____    ______ ____
ROOT
ATOM      1  C   LIG    1        0.660  -0.577  -1.261  0.00  0.00    +0.120 C 
ATOM      2  O   LIG    1        2.005  -0.055  -1.244  0.00  0.00    -0.350 OA
ATOM      3  C   LIG    1        2.280   0.288  -2.620  0.00  0.00    +0.380 C 
ATOM      4  O   LIG    1        1.044   0.853  -3.109  0.00  0.00    -0.370 OA
ATOM      5  C   LIG    1        0.010   0.033  -2.519  0.00  0.00    +0.140 C 
ENDROOT
BRANCH   5   6
ATOM      6  C   LIG    1       -1.196   0.893  -2.134  0.00  0.00    +0.160 C 
ATOM      7  C   LIG    1       -1.835   1.515  -3.394  0.00  0.00    +0.210 C 
ATOM      8  O   LIG    1       -2.185   2.850  -2.953  0.00  0.00    -0.380 OA
ATOM      9  C   LIG    1       -1.096   3.204  -2.074  0.00  0.00    +0.370 C 
ATOM     10  O   LIG    1       -0.775   2.012  -1.333  0.00  0.00    -0.320 OA
ENDBRANCH   5   6
BRANCH   1  11
ATOM     11  C   LIG    1       -0.097  -0.139  -0.006  0.00  0.00    +0.220 C 
BRANCH  11  12
ATOM     12  C   LIG    1        0.299  -1.038   1.167  0.00  0.00    +0.110 C 
ATOM     13  C   LIG    1       -0.329  -0.515   2.479  0.00  0.00    +0.220 C 
ATOM     14  O   LIG    1        0.728  -0.721   3.447  0.00  0.00    -0.380 OA
ATOM     15  C   LIG    1        1.927  -0.430   2.696  0.00  0.00    +0.380 C 
ATOM     16  O   LIG    1        1.720  -0.983   1.382  0.00  0.00    -0.370 OA
ENDBRANCH  11  12
BRANCH  11  17
ATOM     17  O   LIG    1        0.234   1.217   0.300  0.00  0.00    -0.510 OA
ATOM     18  H   LIG    1        1.175   1.364   0.468  0.00  0.00    +0.370 HD
ENDBRANCH  11  17
ENDBRANCH   1  11
TORSDOF 4
ENDMDL
MODEL      391
REMARK  Name = ZINC000005600607
REMARK                            x       y       z     vdW  Elec       q    Type
REMARK                         _______ _______ _______ _____ _____    ______ ____
ROOT
ATOM      1  C   LIG    1        0.718  -0.497  -1.257  0.00  0.00    +0.130 C 
ATOM      2  O   LIG    1        2.090  -0.050  -1.262  0.00  0.00    -0.350 OA
ATOM      3  C   LIG    1        2.366   0.263  -2.644  0.00  0.00    +0.390 C 
ATOM      4  O   LIG    1        1.157   0.888  -3.126  0.00  0.00    -0.370 OA
ATOM      5  C   LIG    1        0.087   0.133  -2.514  0.00  0.00    +0.190 C 
ENDROOT
BRANCH   5   6
ATOM      6  C   LIG    1       -0.410  -0.955  -3.469  0.00  0.00    +0.130 C 
ATOM      7  C   LIG    1       -0.803  -0.345  -4.837  0.00  0.00    +0.230 C 
ATOM      8  O   LIG    1       -0.616  -1.472  -5.727  0.00  0.00    -0.380 OA
ATOM      9  C   LIG    1        0.530  -2.165  -5.206  0.00  0.00    +0.380 C 
ATOM     10  O   LIG    1        0.659  -1.863  -3.807  0.00  0.00    -0.380 OA
ENDBRANCH   5   6
BRANCH   1  11
ATOM     11  C   LIG    1        0.002  -0.004   0.002  0.00  0.00    +0.230 C 
BRANCH  11  12
ATOM     12  C   LIG    1        0.742  -0.511   1.242  0.00  0.00    +0.120 C 
ATOM     13  C   LIG    1        0.132   0.106   2.520  0.00  0.00    +0.220 C 
ATOM     14  O   LIG    1        1.298   0.374   3.337  0.00  0.00    -0.380 OA
ATOM     15  C   LIG    1        2.290   0.785   2.372  0.00  0.00    +0.370 C 
ATOM     16  O   LIG    1        2.110  -0.065   1.224  0.00  0.00    -0.360 OA
ENDBRANCH  11  12
BRANCH  11  17
ATOM     17  O   LIG    1       -0.017   1.425   0.010  0.00  0.00    -0.550 OA
ATOM     18  H   LIG    1        0.861   1.830   0.004  0.00  0.00    +0.390 HD
ENDBRANCH  11  17
ENDBRANCH   1  11
TORSDOF 4
ENDMDL
MODEL      392
REMARK  Name = ZINC000005600709
REMARK                            x       y       z     vdW  Elec       q    Type
REMARK                         _______ _______ _______ _____ _____    ______ ____
ROOT
ATOM      1  C   LIG    1        0.718  -0.497  -1.257  0.00  0.00    +0.130 C 
ATOM      2  O   LIG    1        2.090  -0.050  -1.262  0.00  0.00    -0.350 OA
ATOM      3  C   LIG    1        2.366   0.263  -2.644  0.00  0.00    +0.370 C 
ATOM      4  O   LIG    1        1.157   0.888  -3.126  0.00  0.00    -0.360 OA
ATOM      5  C   LIG    1        0.087   0.133  -2.514  0.00  0.00    +0.170 C 
ENDROOT
BRANCH   5   6
ATOM      6  C   LIG    1       -0.410  -0.955  -3.469  0.00  0.00    +0.130 C 
ATOM      7  C   LIG    1       -1.004  -0.319  -4.745  0.00  0.00    +0.220 C 
ATOM      8  O   LIG    1       -2.156  -1.154  -5.016  0.00  0.00    -0.380 OA
ATOM      9  C   LIG    1       -2.655  -1.467  -3.698  0.00  0.00    +0.390 C 
ATOM     10  O   LIG    1       -1.496  -1.686  -2.872  0.00  0.00    -0.380 OA
ENDBRANCH   5   6
BRANCH   1  11
ATOM     11  C   LIG    1        0.002  -0.004   0.002  0.00  0.00    +0.230 C 
BRANCH  11  12
ATOM     12  C   LIG    1        0.742  -0.511   1.242  0.00  0.00    +0.120 C 
ATOM     13  C   LIG    1        0.132   0.106   2.520  0.00  0.00    +0.220 C 
ATOM     14  O   LIG    1        1.298   0.374   3.337  0.00  0.00    -0.380 OA
ATOM     15  C   LIG    1        2.290   0.785   2.372  0.00  0.00    +0.370 C 
ATOM     16  O   LIG    1        2.110  -0.065   1.224  0.00  0.00    -0.360 OA
ENDBRANCH  11  12
BRANCH  11  17
ATOM     17  O   LIG    1       -0.017   1.425   0.010  0.00  0.00    -0.550 OA
ATOM     18  H   LIG    1        0.861   1.830   0.004  0.00  0.00    +0.380 HD
ENDBRANCH  11  17
ENDBRANCH   1  11
TORSDOF 4
ENDMDL
MODEL      393
REMARK  Name = ZINC000020397334
REMARK                            x       y       z     vdW  Elec       q    Type
REMARK                         _______ _______ _______ _____ _____    ______ ____
ROOT
ATOM      1  N   LIG    1       -2.251  -3.025   0.007  0.00  0.00    -0.350 N 
ATOM      2  N   LIG    1       -2.948  -3.446   1.147  0.00  0.00    -0.270 NA
ATOM      3  C   LIG    1       -4.026  -4.086   0.787  0.00  0.00    +0.330 A 
ATOM      4  C   LIG    1       -4.078  -4.110  -0.619  0.00  0.00    -0.340 A 
ATOM      5  C   LIG    1       -5.009  -4.660  -1.604  0.00  0.00    +0.570 A 
ATOM      6  O   LIG    1       -6.009  -5.264  -1.260  0.00  0.00    -0.520 OA
ATOM      7  N   LIG    1       -4.712  -4.481  -2.913  0.00  0.00    -0.650 N 
ATOM      8  H   LIG    1       -5.305  -4.834  -3.595  0.00  0.00    +0.430 HD
ATOM      9  C   LIG    1       -3.592  -3.806  -3.275  0.00  0.00    +0.640 A 
ATOM     10  N   LIG    1       -2.756  -3.306  -2.413  0.00  0.00    -0.530 NA
ATOM     11  C   LIG    1       -2.945  -3.426  -1.089  0.00  0.00    +0.330 A 
ENDROOT
BRANCH   1  12
ATOM     12  C   LIG    1       -0.993  -2.276  -0.001  0.00  0.00    +0.370 C 
BRANCH  12  13
ATOM     13  C   LIG    1       -1.293  -0.775   0.010  0.00  0.00    +0.050 C 
BRANCH  13  17
ATOM     14  N   LIG    1       -0.016   1.344   0.009  0.00  0.00    -0.850 N 
ATOM     15  H   LIG    1       -0.863   1.817   0.016  0.00  0.00    +0.400 HD
ATOM     16  H   LIG    1        0.817   1.840   0.004  0.00  0.00    +0.410 HD
ATOM     17  C   LIG    1        0.002  -0.004   0.002  0.00  0.00    +0.530 C 
ATOM     18  O   LIG    1        1.060  -0.596  -0.011  0.00  0.00    -0.540 OA
ENDBRANCH  13  17
ENDBRANCH  12  13
ENDBRANCH   1  12
TORSDOF 3
ENDMDL
MODEL      394
REMARK  Name = ZINC000225971862
REMARK                            x       y       z     vdW  Elec       q    Type
REMARK                         _______ _______ _______ _____ _____    ______ ____
ROOT
ATOM      1  C   LIG    1       -1.384  -0.909   1.776  0.00  0.00    +0.280 A 
ATOM      2  N   LIG    1       -2.051  -0.036   2.487  0.00  0.00    -0.560 NA
ATOM      3  C   LIG    1       -3.269  -0.512   2.763  0.00  0.00    +0.470 A 
ATOM      4  N   LIG    1       -3.389  -1.702   2.224  0.00  0.00    -0.360 NA
ATOM      5  N   LIG    1       -2.175  -1.976   1.574  0.00  0.00    -0.460 N 
ATOM      6  H   LIG    1       -1.949  -2.780   1.080  0.00  0.00    +0.450 HD
ENDROOT
BRANCH   3   7
ATOM      7  N   LIG    1       -4.252   0.148   3.502  0.00  0.00    -0.830 N 
ATOM      8  H   LIG    1       -5.112  -0.275   3.653  0.00  0.00    +0.410 HD
ATOM      9  H   LIG    1       -4.076   1.031   3.864  0.00  0.00    +0.410 HD
ENDBRANCH   3   7
BRANCH   1  10
ATOM     10  C   LIG    1        0.024  -0.743   1.267  0.00  0.00    +0.430 C 
BRANCH  10  12
ATOM     11  C   LIG    1       -0.018   1.461   0.010  0.00  0.00    +0.320 C 
ATOM     12  N   LIG    1        0.002  -0.004   0.002  0.00  0.00    -1.000 NA
BRANCH  12  13
ATOM     13  S   LIG    1       -0.000  -0.824  -1.437  0.00  0.00    +2.610 S 
ATOM     14  O   LIG    1       -0.626   0.068  -2.348  0.00  0.00    -0.950 OA
ATOM     15  O   LIG    1       -0.586  -2.081  -1.123  0.00  0.00    -0.960 OA
ATOM     16  C   LIG    1        1.755  -1.025  -1.846  0.00  0.00    -0.280 C 
ENDBRANCH  12  13
ENDBRANCH  10  12
ENDBRANCH   1  10
TORSDOF 4
ENDMDL
MODEL      395
REMARK  Name = ZINC000005368436
REMARK                            x       y       z     vdW  Elec       q    Type
REMARK                         _______ _______ _______ _____ _____    ______ ____
ROOT
ATOM      1  N   LIG    1       -1.005  -2.212  -0.000  0.00  0.00    -0.600 N 
ATOM      2  C   LIG    1       -0.860  -2.957  -1.149  0.00  0.00    +0.560 C 
ATOM      3  C   LIG    1       -0.079  -4.162  -0.700  0.00  0.00    -0.010 C 
ATOM      4  C   LIG    1       -0.349  -5.553  -1.311  0.00  0.00    +0.230 C 
ATOM      5  C   LIG    1        0.927  -6.325  -0.801  0.00  0.00    +0.020 C 
ATOM      6  C   LIG    1        0.688  -6.299   0.736  0.00  0.00    +0.030 C 
ATOM      7  C   LIG    1       -0.762  -5.776   0.899  0.00  0.00    +0.260 C 
ATOM      8  O   LIG    1       -1.338  -6.195  -0.431  0.00  0.00    -0.370 OA
ATOM      9  C   LIG    1       -0.895  -4.322   0.652  0.00  0.00    -0.090 C 
ATOM     10  O   LIG    1       -1.266  -2.701  -2.262  0.00  0.00    -0.450 OA
ATOM     11  C   LIG    1       -0.844  -2.972   1.140  0.00  0.00    +0.590 C 
ATOM     12  O   LIG    1       -0.705  -2.592   2.283  0.00  0.00    -0.450 OA
ENDROOT
BRANCH   1  13
ATOM     13  C   LIG    1       -1.293  -0.775   0.010  0.00  0.00    +0.330 C 
BRANCH  13  17
ATOM     14  N   LIG    1       -0.016   1.344   0.009  0.00  0.00    -0.850 N 
ATOM     15  H   LIG    1       -0.863   1.817   0.016  0.00  0.00    +0.400 HD
ATOM     16  H   LIG    1        0.817   1.840   0.004  0.00  0.00    +0.410 HD
ATOM     17  C   LIG    1        0.002  -0.004   0.002  0.00  0.00    +0.500 C 
ATOM     18  O   LIG    1        1.060  -0.596  -0.011  0.00  0.00    -0.530 OA
ENDBRANCH  13  17
ENDBRANCH   1  13
TORSDOF 2
ENDMDL
MODEL      396
REMARK  Name = ZINC000017173867
REMARK                            x       y       z     vdW  Elec       q    Type
REMARK                         _______ _______ _______ _____ _____    ______ ____
ROOT
ATOM      1  C1* LIG    1        0.139  -4.130  -0.024  0.00  0.00    +0.470 C 
ATOM      2  O4* LIG    1        0.573  -4.633   1.259  0.00  0.00    -0.330 OA
ATOM      3  C4* LIG    1        2.008  -4.472   1.265  0.00  0.00    +0.180 C 
ATOM      4  C3* LIG    1        2.456  -4.871  -0.159  0.00  0.00    +0.140 C 
ATOM      5  C2* LIG    1        1.196  -4.641  -1.028  0.00  0.00    +0.150 C 
ENDROOT
BRANCH   1   9
ATOM      6  C   LIG    1        0.002  -0.004   0.002  0.00  0.00    +0.470 A 
ATOM      7  N   LIG    1       -1.131  -0.697   0.004  0.00  0.00    -0.590 NA
ATOM      8  C   LIG    1       -1.076  -2.031  -0.004  0.00  0.00    +0.630 A 
ATOM      9  N   LIG    1        0.110  -2.666  -0.014  0.00  0.00    -0.380 N 
ATOM     10  N   LIG    1        1.219  -2.014  -0.016  0.00  0.00    -0.140 NA
ATOM     11  O   LIG    1       -2.110  -2.680  -0.003  0.00  0.00    -0.520 OA
ATOM     12  C   LIG    1        1.229  -0.709  -0.013  0.00  0.00    +0.160 A 
BRANCH   6  13
ATOM     13  N   LIG    1       -0.017   1.371   0.010  0.00  0.00    -0.800 N 
ATOM     14  H   LIG    1       -0.863   1.845   0.016  0.00  0.00    +0.420 HD
ATOM     15  H   LIG    1        0.817   1.867   0.004  0.00  0.00    +0.420 HD
ENDBRANCH   6  13
ENDBRANCH   1   9
BRANCH   4  16
ATOM     16  O3* LIG    1        2.848  -6.245  -0.194  0.00  0.00    -0.550 OA
ATOM     17  H3* LIG    1        3.139  -6.548  -1.065  0.00  0.00    +0.380 HD
ENDBRANCH   4  16
BRANCH   5  18
ATOM     18  O2* LIG    1        1.454  -3.657  -2.033  0.00  0.00    -0.540 OA
ATOM     19  H2* LIG    1        2.154  -3.903  -2.653  0.00  0.00    +0.390 HD
ENDBRANCH   5  18
BRANCH   3  20
ATOM     20  C5* LIG    1        2.643  -5.398   2.304  0.00  0.00    +0.220 C 
BRANCH  20  21
ATOM     21  O5* LIG    1        2.250  -4.984   3.614  0.00  0.00    -0.570 OA
ATOM     22  H5* LIG    1        2.617  -5.528   4.325  0.00  0.00    +0.380 HD
ENDBRANCH  20  21
ENDBRANCH   3  20
TORSDOF 6
ENDMDL
MODEL      397
REMARK  Name = ZINC000005368437
REMARK                            x       y       z     vdW  Elec       q    Type
REMARK                         _______ _______ _______ _____ _____    ______ ____
ROOT
ATOM      1  N   LIG    1       -1.005  -2.212  -0.000  0.00  0.00    -0.550 N 
ATOM      2  C   LIG    1       -0.869  -2.914  -1.131  0.00  0.00    +0.540 C 
ATOM      3  C   LIG    1       -0.578  -4.359  -0.795  0.00  0.00    +0.000 C 
ATOM      4  C   LIG    1        0.904  -4.663  -1.165  0.00  0.00    +0.220 C 
ATOM      5  C   LIG    1        1.106  -6.175  -0.849  0.00  0.00    +0.030 C 
ATOM      6  C   LIG    1        1.131  -6.200   0.701  0.00  0.00    +0.040 C 
ATOM      7  C   LIG    1        0.941  -4.699   1.073  0.00  0.00    +0.220 C 
ATOM      8  O   LIG    1        1.615  -4.023  -0.056  0.00  0.00    -0.350 OA
ATOM      9  C   LIG    1       -0.572  -4.369   0.764  0.00  0.00    +0.000 C 
ATOM     10  O   LIG    1       -0.963  -2.461  -2.251  0.00  0.00    -0.480 OA
ATOM     11  C   LIG    1       -0.853  -2.927   1.120  0.00  0.00    +0.550 C 
ATOM     12  O   LIG    1       -0.921  -2.485   2.247  0.00  0.00    -0.470 OA
ENDROOT
BRANCH   1  13
ATOM     13  C   LIG    1       -1.293  -0.775   0.010  0.00  0.00    +0.340 C 
BRANCH  13  17
ATOM     14  N   LIG    1       -0.016   1.344   0.009  0.00  0.00    -0.850 N 
ATOM     15  H   LIG    1       -0.863   1.817   0.016  0.00  0.00    +0.400 HD
ATOM     16  H   LIG    1        0.817   1.840   0.004  0.00  0.00    +0.410 HD
ATOM     17  C   LIG    1        0.002  -0.004   0.002  0.00  0.00    +0.500 C 
ATOM     18  O   LIG    1        1.060  -0.596  -0.011  0.00  0.00    -0.520 OA
ENDBRANCH  13  17
ENDBRANCH   1  13
TORSDOF 2
ENDMDL
MODEL      398
REMARK  Name = ZINC000001611169
REMARK                            x       y       z     vdW  Elec       q    Type
REMARK                         _______ _______ _______ _____ _____    ______ ____
ROOT
ATOM      1  C   UNK A  1        1.460  -3.889  -2.507  0.00  0.00    +0.280 C 
ATOM      2  N   UNK A  1        2.237  -4.330  -1.357  0.00  0.00    -0.710 N 
ATOM      3  H   UNK A  1        1.829  -4.288  -0.478  0.00  0.00    +0.420 HD
ATOM      4  C   GLY A  2        3.488  -4.790  -1.460  0.00  0.00    +0.510 C 
ATOM      5  CA  GLY A  2        4.207  -4.895  -2.771  0.00  0.00    +0.320 C 
ATOM      6  N   GLY A  2        3.272  -4.894  -3.889  0.00  0.00    -0.710 N 
ATOM      7  H   GLY A  2        3.572  -5.237  -4.745  0.00  0.00    +0.420 HD
ATOM      8  O   GLY A  2        4.066  -5.135  -0.451  0.00  0.00    -0.530 OA
ATOM      9  C   UNK A  1        2.021  -4.439  -3.784  0.00  0.00    +0.520 C 
ATOM     10  O   UNK A  1        1.307  -4.472  -4.764  0.00  0.00    -0.520 OA
ENDROOT
BRANCH   1  11
ATOM     11  C   UNK A  1        1.479  -2.361  -2.569  0.00  0.00    +0.120 C 
BRANCH  11  12
ATOM     12  C   UNK A  1        0.786  -1.801  -1.353  0.00  0.00    +0.470 C 
ATOM     13  O   UNK A  1        0.325  -2.548  -0.523  0.00  0.00    -0.510 OA
BRANCH  12  14
ATOM     14  O   UNK A  1        0.682  -0.472  -1.193  0.00  0.00    -0.350 OA
BRANCH  14  16
ATOM     15  C   UNK A  1       -0.019   1.526   0.010  0.00  0.00    +0.070 C 
ATOM     16  C   UNK A  1        0.002  -0.004   0.002  0.00  0.00    +0.200 C 
ENDBRANCH  14  16
ENDBRANCH  12  14
ENDBRANCH  11  12
ENDBRANCH   1  11
TORSDOF 4
ENDMDL
MODEL      399
REMARK  Name = ZINC000257257856
REMARK                            x       y       z     vdW  Elec       q    Type
REMARK                         _______ _______ _______ _____ _____    ______ ____
ROOT
ATOM      1  N   LIG    1       -1.005  -2.216  -0.000  0.00  0.00    -0.520 NA
ATOM      2  C   LIG    1       -0.346  -2.630   1.246  0.00  0.00    +0.190 C 
ATOM      3  C   LIG    1        0.085  -4.093   1.122  0.00  0.00    +0.090 C 
ATOM      4  C   LIG    1       -1.131  -4.970   0.844  0.00  0.00    +0.140 C 
ATOM      5  O   LIG    1       -2.023  -4.960   1.960  0.00  0.00    -0.360 OA
ATOM      6  C   LIG    1       -3.054  -5.945   1.854  0.00  0.00    +0.270 C 
ATOM      7  C   LIG    1       -3.681  -5.889   0.490  0.00  0.00    +0.490 C 
ATOM      8  N   LIG    1       -3.123  -5.237  -0.538  0.00  0.00    -0.720 N 
ATOM      9  H   LIG    1       -3.557  -5.268  -1.405  0.00  0.00    +0.410 HD
ATOM     10  O   LIG    1       -4.737  -6.458   0.311  0.00  0.00    -0.540 OA
ATOM     11  C   LIG    1       -1.886  -4.469  -0.387  0.00  0.00    +0.230 C 
ATOM     12  C   LIG    1       -2.227  -2.994  -0.231  0.00  0.00    +0.180 C 
ENDROOT
BRANCH   1  13
ATOM     13  C   LIG    1       -1.293  -0.775   0.010  0.00  0.00    +0.220 C 
BRANCH  13  17
ATOM     14  N   LIG    1       -0.016   1.344   0.009  0.00  0.00    -0.860 N 
ATOM     15  H   LIG    1       -0.863   1.817   0.016  0.00  0.00    +0.400 HD
ATOM     16  H   LIG    1        0.817   1.840   0.004  0.00  0.00    +0.400 HD
ATOM     17  C   LIG    1        0.002  -0.004   0.002  0.00  0.00    +0.520 C 
ATOM     18  O   LIG    1        1.060  -0.596  -0.011  0.00  0.00    -0.520 OA
ENDBRANCH  13  17
ENDBRANCH   1  13
TORSDOF 2
ENDMDL
MODEL      400
REMARK  Name = ZINC000038276557
REMARK                            x       y       z     vdW  Elec       q    Type
REMARK                         _______ _______ _______ _____ _____    ______ ____
ROOT
ATOM      1  N   LIG    1       -1.005  -2.212  -0.000  0.00  0.00    -0.720 N 
ATOM      2  H   LIG    1       -0.087  -2.523  -0.011  0.00  0.00    +0.410 HD
ATOM      3  C   LIG    1       -2.018  -3.102   0.005  0.00  0.00    +0.500 C 
ATOM      4  O   LIG    1       -3.167  -2.713   0.018  0.00  0.00    -0.530 OA
ENDROOT
BRANCH   1   5
ATOM      5  C   LIG    1       -1.293  -0.775   0.010  0.00  0.00    +0.300 C 
BRANCH   5   9
ATOM      6  N   LIG    1       -0.016   1.344   0.009  0.00  0.00    -0.850 N 
ATOM      7  H   LIG    1       -0.863   1.817   0.016  0.00  0.00    +0.410 HD
ATOM      8  H   LIG    1        0.817   1.840   0.004  0.00  0.00    +0.410 HD
ATOM      9  C   LIG    1        0.002  -0.004   0.002  0.00  0.00    +0.510 C 
ATOM     10  O   LIG    1        1.060  -0.596  -0.011  0.00  0.00    -0.540 OA
ENDBRANCH   5   9
ENDBRANCH   1   5
BRANCH   3  11
ATOM     11  C   LIG    1       -1.722  -4.579  -0.006  0.00  0.00    +0.350 C 
BRANCH  11  12
ATOM     12  N   LIG    1       -2.981  -5.329   0.002  0.00  0.00    -0.600 N 
ATOM     13  C   LIG    1       -3.684  -5.754   1.218  0.00  0.00    +0.290 C 
ATOM     14  C   LIG    1       -4.674  -6.848   0.761  0.00  0.00    +0.190 C 
ATOM     15  C   LIG    1       -4.892  -6.475  -0.724  0.00  0.00    +0.040 C 
ATOM     16  C   LIG    1       -3.643  -5.711  -1.104  0.00  0.00    +0.530 C 
ATOM     17  O   LIG    1       -3.288  -5.482  -2.240  0.00  0.00    -0.520 OA
BRANCH  14  18
ATOM     18  O   LIG    1       -5.898  -6.770   1.494  0.00  0.00    -0.550 OA
ATOM     19  H   LIG    1       -6.551  -7.437   1.242  0.00  0.00    +0.390 HD
ENDBRANCH  14  18
ENDBRANCH  11  12
ENDBRANCH   3  11
TORSDOF 5
ENDMDL
MODEL      401
REMARK  Name = ZINC000038276558
REMARK                            x       y       z     vdW  Elec       q    Type
REMARK                         _______ _______ _______ _____ _____    ______ ____
ROOT
ATOM      1  N   LIG    1       -1.005  -2.212  -0.000  0.00  0.00    -0.720 N 
ATOM      2  H   LIG    1       -0.087  -2.523  -0.011  0.00  0.00    +0.410 HD
ATOM      3  C   LIG    1       -2.018  -3.102   0.005  0.00  0.00    +0.500 C 
ATOM      4  O   LIG    1       -3.167  -2.713   0.018  0.00  0.00    -0.530 OA
ENDROOT
BRANCH   1   5
ATOM      5  C   LIG    1       -1.293  -0.775   0.010  0.00  0.00    +0.300 C 
BRANCH   5   9
ATOM      6  N   LIG    1       -0.016   1.344   0.009  0.00  0.00    -0.850 N 
ATOM      7  H   LIG    1       -0.863   1.817   0.016  0.00  0.00    +0.410 HD
ATOM      8  H   LIG    1        0.817   1.840   0.004  0.00  0.00    +0.410 HD
ATOM      9  C   LIG    1        0.002  -0.004   0.002  0.00  0.00    +0.510 C 
ATOM     10  O   LIG    1        1.060  -0.596  -0.011  0.00  0.00    -0.540 OA
ENDBRANCH   5   9
ENDBRANCH   1   5
BRANCH   3  11
ATOM     11  C   LIG    1       -1.722  -4.579  -0.006  0.00  0.00    +0.350 C 
BRANCH  11  12
ATOM     12  N   LIG    1       -2.981  -5.329   0.002  0.00  0.00    -0.600 N 
ATOM     13  C   LIG    1       -3.684  -5.754   1.218  0.00  0.00    +0.290 C 
ATOM     14  C   LIG    1       -5.120  -6.100   0.765  0.00  0.00    +0.190 C 
ATOM     15  C   LIG    1       -4.903  -6.458  -0.724  0.00  0.00    +0.040 C 
ATOM     16  C   LIG    1       -3.643  -5.711  -1.104  0.00  0.00    +0.530 C 
ATOM     17  O   LIG    1       -3.280  -5.494  -2.240  0.00  0.00    -0.520 OA
BRANCH  14  18
ATOM     18  O   LIG    1       -5.630  -7.219   1.492  0.00  0.00    -0.550 OA
ATOM     19  H   LIG    1       -6.529  -7.474   1.242  0.00  0.00    +0.390 HD
ENDBRANCH  14  18
ENDBRANCH  11  12
ENDBRANCH   3  11
TORSDOF 5
ENDMDL
MODEL      402
REMARK  Name = ZINC000005760781
REMARK                            x       y       z     vdW  Elec       q    Type
REMARK                         _______ _______ _______ _____ _____    ______ ____
ROOT
ATOM      1  C   UNK A  1        1.460  -3.889  -2.507  0.00  0.00    +0.280 C 
ATOM      2  N   UNK A  1        0.081  -4.353  -2.575  0.00  0.00    -0.710 N 
ATOM      3  H   UNK A  1       -0.462  -4.312  -1.772  0.00  0.00    +0.420 HD
ATOM      4  C   GLY A  2       -0.469  -4.832  -3.695  0.00  0.00    +0.510 C 
ATOM      5  CA  GLY A  2        0.284  -4.937  -4.987  0.00  0.00    +0.320 C 
ATOM      6  N   GLY A  2        1.724  -4.910  -4.763  0.00  0.00    -0.710 N 
ATOM      7  H   GLY A  2        2.308  -5.250  -5.459  0.00  0.00    +0.420 HD
ATOM      8  O   GLY A  2       -1.626  -5.196  -3.666  0.00  0.00    -0.530 OA
ATOM      9  C   UNK A  1        2.273  -4.436  -3.642  0.00  0.00    +0.520 C 
ATOM     10  O   UNK A  1        3.481  -4.449  -3.536  0.00  0.00    -0.520 OA
ENDROOT
BRANCH   1  11
ATOM     11  C   UNK A  1        1.479  -2.361  -2.569  0.00  0.00    +0.120 C 
BRANCH  11  12
ATOM     12  C   UNK A  1        0.786  -1.801  -1.353  0.00  0.00    +0.470 C 
ATOM     13  O   UNK A  1        0.325  -2.548  -0.523  0.00  0.00    -0.510 OA
BRANCH  12  14
ATOM     14  O   UNK A  1        0.682  -0.472  -1.193  0.00  0.00    -0.350 OA
BRANCH  14  16
ATOM     15  C   UNK A  1       -0.019   1.526   0.010  0.00  0.00    +0.070 C 
ATOM     16  C   UNK A  1        0.002  -0.004   0.002  0.00  0.00    +0.200 C 
ENDBRANCH  14  16
ENDBRANCH  12  14
ENDBRANCH  11  12
ENDBRANCH   1  11
TORSDOF 4
ENDMDL
MODEL      403
REMARK  Name = ZINC000001592678
REMARK                            x       y       z     vdW  Elec       q    Type
REMARK                         _______ _______ _______ _____ _____    ______ ____
ROOT
ATOM      1  N   LIG    1       -1.005  -2.212  -0.000  0.00  0.00    -0.710 N 
ATOM      2  H   LIG    1       -0.087  -2.523  -0.011  0.00  0.00    +0.420 HD
ATOM      3  C   LIG    1       -2.018  -3.102   0.005  0.00  0.00    +0.500 C 
ATOM      4  O   LIG    1       -3.167  -2.713   0.018  0.00  0.00    -0.520 OA
ENDROOT
BRANCH   1   5
ATOM      5  C   LIG    1       -1.293  -0.775   0.010  0.00  0.00    +0.300 C 
BRANCH   5   9
ATOM      6  N   LIG    1       -0.016   1.344   0.009  0.00  0.00    -0.850 N 
ATOM      7  H   LIG    1       -0.863   1.817   0.016  0.00  0.00    +0.410 HD
ATOM      8  H   LIG    1        0.817   1.840   0.004  0.00  0.00    +0.410 HD
ATOM      9  C   LIG    1        0.002  -0.004   0.002  0.00  0.00    +0.510 C 
ATOM     10  O   LIG    1        1.060  -0.596  -0.011  0.00  0.00    -0.540 OA
ENDBRANCH   5   9
ENDBRANCH   1   5
BRANCH   3  11
ATOM     11  C   LIG    1       -1.722  -4.579  -0.006  0.00  0.00    +0.360 C 
BRANCH  11  12
ATOM     12  N   LIG    1       -2.981  -5.329   0.002  0.00  0.00    -0.520 N 
ATOM     13  C   LIG    1       -3.555  -5.677   1.194  0.00  0.00    +0.360 A 
ATOM     14  C   LIG    1       -4.715  -6.368   1.202  0.00  0.00    -0.120 A 
ATOM     15  C   LIG    1       -5.316  -6.718  -0.032  0.00  0.00    +0.550 A 
ATOM     16  N   LIG    1       -4.719  -6.356  -1.185  0.00  0.00    -0.660 N 
ATOM     17  H   LIG    1       -5.124  -6.593  -2.034  0.00  0.00    +0.430 HD
ATOM     18  O   LIG    1       -6.362  -7.341  -0.050  0.00  0.00    -0.510 OA
ATOM     19  C   LIG    1       -3.565  -5.664  -1.163  0.00  0.00    +0.700 A 
ATOM     20  O   LIG    1       -3.038  -5.344  -2.211  0.00  0.00    -0.540 OA
ENDBRANCH  11  12
ENDBRANCH   3  11
TORSDOF 4
ENDMDL
MODEL      404
REMARK  Name = ZINC000032116932
REMARK                            x       y       z     vdW  Elec       q    Type
REMARK                         _______ _______ _______ _____ _____    ______ ____
ROOT
ATOM      1  N   LIG    1        1.272  -4.165  -2.169  0.00  0.00    -0.700 N 
ATOM      2  H   LIG    1        0.847  -4.592  -1.409  0.00  0.00    +0.420 HD
ATOM      3  C   LIG    1        1.828  -4.916  -3.140  0.00  0.00    +0.510 C 
ATOM      4  O   LIG    1        2.360  -4.381  -4.091  0.00  0.00    -0.520 OA
ENDROOT
BRANCH   3   5
ATOM      5  C   LIG    1        1.790  -6.407  -3.045  0.00  0.00    +0.510 C 
ATOM      6  N   LIG    1        2.346  -7.158  -4.016  0.00  0.00    -0.690 N 
ATOM      7  H   LIG    1        2.771  -6.731  -4.776  0.00  0.00    +0.420 HD
ATOM      8  O   LIG    1        1.259  -6.941  -2.094  0.00  0.00    -0.520 OA
BRANCH   6   9
ATOM      9  C   LIG    1        2.309  -8.619  -3.924  0.00  0.00    +0.290 C 
BRANCH   9  10
ATOM     10  C   LIG    1        3.005  -9.226  -5.144  0.00  0.00    +0.180 C 
BRANCH  10  11
ATOM     11  O   LIG    1        4.391  -8.880  -5.122  0.00  0.00    -0.390 OA
ATOM     12  C   LIG    1        5.137  -9.400  -6.225  0.00  0.00    +0.200 C 
ENDBRANCH  10  11
ENDBRANCH   9  10
ENDBRANCH   6   9
ENDBRANCH   3   5
BRANCH   1  13
ATOM     13  C   LIG    1        1.309  -2.703  -2.261  0.00  0.00    +0.280 C 
BRANCH  13  14
ATOM     14  C   LIG    1        0.613  -2.097  -1.041  0.00  0.00    +0.030 C 
BRANCH  14  15
ATOM     15  C   LIG    1        0.652  -0.570  -1.138  0.00  0.00    +0.160 C 
BRANCH  15  17
ATOM     16  C   LIG    1       -0.017   1.425   0.010  0.00  0.00    +0.200 C 
ATOM     17  O   LIG    1        0.002  -0.004   0.002  0.00  0.00    -0.390 OA
ENDBRANCH  15  17
ENDBRANCH  14  15
ENDBRANCH  13  14
ENDBRANCH   1  13
TORSDOF 8
ENDMDL
MODEL      405
REMARK  Name = ZINC000032116934
REMARK                            x       y       z     vdW  Elec       q    Type
REMARK                         _______ _______ _______ _____ _____    ______ ____
ROOT
ATOM      1  N   LIG    1        1.312  -4.188   2.103  0.00  0.00    -0.700 N 
ATOM      2  H   LIG    1        0.873  -4.606   1.347  0.00  0.00    +0.420 HD
ATOM      3  C   LIG    1        1.887  -4.949   3.055  0.00  0.00    +0.510 C 
ATOM      4  O   LIG    1        2.437  -4.425   4.002  0.00  0.00    -0.520 OA
ENDROOT
BRANCH   3   5
ATOM      5  C   LIG    1        1.847  -6.439   2.946  0.00  0.00    +0.510 C 
ATOM      6  N   LIG    1        2.422  -7.200   3.898  0.00  0.00    -0.700 N 
ATOM      7  H   LIG    1        2.861  -6.781   4.654  0.00  0.00    +0.420 HD
ATOM      8  O   LIG    1        1.298  -6.963   1.999  0.00  0.00    -0.520 OA
BRANCH   6   9
ATOM      9  C   LIG    1        2.383  -8.661   3.790  0.00  0.00    +0.280 C 
BRANCH   9  10
ATOM     10  C   LIG    1        3.102  -9.280   4.990  0.00  0.00    +0.020 C 
BRANCH  10  11
ATOM     11  C   LIG    1        3.061 -10.805   4.878  0.00  0.00    +0.180 C 
BRANCH  11  12
ATOM     12  O   LIG    1        3.732 -11.384   5.999  0.00  0.00    -0.570 OA
ATOM     13  H   LIG    1        3.745 -12.351   5.994  0.00  0.00    +0.390 HD
ENDBRANCH  11  12
ENDBRANCH  10  11
ENDBRANCH   9  10
ENDBRANCH   6   9
ENDBRANCH   3   5
BRANCH   1  14
ATOM     14  C   LIG    1        1.351  -2.727   2.211  0.00  0.00    +0.280 C 
BRANCH  14  15
ATOM     15  C   LIG    1        0.633  -2.108   1.011  0.00  0.00    +0.030 C 
BRANCH  15  16
ATOM     16  C   LIG    1        0.673  -0.582   1.123  0.00  0.00    +0.160 C 
BRANCH  16  18
ATOM     17  C   LIG    1       -0.017   1.425   0.010  0.00  0.00    +0.200 C 
ATOM     18  O   LIG    1        0.002  -0.004   0.002  0.00  0.00    -0.390 OA
ENDBRANCH  16  18
ENDBRANCH  15  16
ENDBRANCH  14  15
ENDBRANCH   1  14
TORSDOF 9
ENDMDL
MODEL      406
REMARK  Name = ZINC000032116933
REMARK                            x       y       z     vdW  Elec       q    Type
REMARK                         _______ _______ _______ _____ _____    ______ ____
ROOT
ATOM      1  N   LIG    1        1.272  -4.165  -2.169  0.00  0.00    -0.700 N 
ATOM      2  H   LIG    1        0.847  -4.592  -1.409  0.00  0.00    +0.420 HD
ATOM      3  C   LIG    1        1.828  -4.916  -3.140  0.00  0.00    +0.510 C 
ATOM      4  O   LIG    1        2.360  -4.381  -4.091  0.00  0.00    -0.520 OA
ENDROOT
BRANCH   3   5
ATOM      5  C   LIG    1        1.790  -6.407  -3.045  0.00  0.00    +0.510 C 
ATOM      6  N   LIG    1        2.346  -7.158  -4.016  0.00  0.00    -0.690 N 
ATOM      7  H   LIG    1        2.771  -6.731  -4.776  0.00  0.00    +0.420 HD
ATOM      8  O   LIG    1        1.259  -6.941  -2.094  0.00  0.00    -0.520 OA
BRANCH   6   9
ATOM      9  C   LIG    1        2.309  -8.619  -3.924  0.00  0.00    +0.290 C 
BRANCH   9  10
ATOM     10  C   LIG    1        3.005  -9.226  -5.144  0.00  0.00    +0.190 C 
BRANCH  10  11
ATOM     11  O   LIG    1        4.391  -8.880  -5.122  0.00  0.00    -0.570 OA
ATOM     12  H   LIG    1        4.896  -9.232  -5.868  0.00  0.00    +0.390 HD
ENDBRANCH  10  11
ENDBRANCH   9  10
ENDBRANCH   6   9
ENDBRANCH   3   5
BRANCH   1  13
ATOM     13  C   LIG    1        1.309  -2.703  -2.261  0.00  0.00    +0.280 C 
BRANCH  13  14
ATOM     14  C   LIG    1        0.613  -2.097  -1.041  0.00  0.00    +0.030 C 
BRANCH  14  15
ATOM     15  C   LIG    1        0.652  -0.570  -1.138  0.00  0.00    +0.160 C 
BRANCH  15  17
ATOM     16  C   LIG    1       -0.017   1.425   0.010  0.00  0.00    +0.200 C 
ATOM     17  O   LIG    1        0.002  -0.004   0.002  0.00  0.00    -0.390 OA
ENDBRANCH  15  17
ENDBRANCH  14  15
ENDBRANCH  13  14
ENDBRANCH   1  13
TORSDOF 8
ENDMDL
MODEL      407
REMARK  Name = ZINC000005496022
REMARK                            x       y       z     vdW  Elec       q    Type
REMARK                         _______ _______ _______ _____ _____    ______ ____
ROOT
ATOM      1  C   LIG    1       -2.179  -3.002   0.007  0.00  0.00    +0.290 C 
ATOM      2  O   LIG    1       -2.885  -2.820   1.236  0.00  0.00    -0.380 OA
ATOM      3  C   LIG    1       -4.088  -3.585   1.337  0.00  0.00    +0.190 C 
ATOM      4  C   LIG    1       -3.751  -5.076   1.253  0.00  0.00    +0.180 C 
ATOM      5  C   LIG    1       -3.015  -5.353  -0.062  0.00  0.00    +0.160 C 
ATOM      6  C   LIG    1       -1.766  -4.470  -0.130  0.00  0.00    +0.140 C 
ENDROOT
BRANCH   5   7
ATOM      7  O   LIG    1       -2.635  -6.729  -0.116  0.00  0.00    -0.550 OA
ATOM      8  H   LIG    1       -2.163  -6.975  -0.923  0.00  0.00    +0.390 HD
ENDBRANCH   5   7
BRANCH   4   9
ATOM      9  O   LIG    1       -4.957  -5.841   1.297  0.00  0.00    -0.560 OA
ATOM     10  H   LIG    1       -4.819  -6.797   1.248  0.00  0.00    +0.390 HD
ENDBRANCH   4   9
BRANCH   6  11
ATOM     11  O   LIG    1       -0.876  -4.818   0.933  0.00  0.00    -0.540 OA
ATOM     12  H   LIG    1       -0.061  -4.298   0.950  0.00  0.00    +0.390 HD
ENDBRANCH   6  11
BRANCH   1  13
ATOM     13  O   LIG    1       -1.012  -2.176   0.000  0.00  0.00    -0.340 OA
BRANCH  13  14
ATOM     14  C   LIG    1       -1.293  -0.775   0.010  0.00  0.00    +0.220 C 
BRANCH  14  18
ATOM     15  N   LIG    1       -0.016   1.344   0.009  0.00  0.00    -0.850 N 
ATOM     16  H   LIG    1       -0.863   1.817   0.016  0.00  0.00    +0.400 HD
ATOM     17  H   LIG    1        0.817   1.840   0.004  0.00  0.00    +0.410 HD
ATOM     18  C   LIG    1        0.002  -0.004   0.002  0.00  0.00    +0.520 C 
ATOM     19  O   LIG    1        1.060  -0.596  -0.011  0.00  0.00    -0.520 OA
ENDBRANCH  14  18
ENDBRANCH  13  14
ENDBRANCH   1  13
BRANCH   3  20
ATOM     20  C   LIG    1       -4.769  -3.289   2.674  0.00  0.00    +0.230 C 
BRANCH  20  21
ATOM     21  O   LIG    1       -5.187  -1.923   2.704  0.00  0.00    -0.570 OA
ATOM     22  H   LIG    1       -5.628  -1.665   3.525  0.00  0.00    +0.380 HD
ENDBRANCH  20  21
ENDBRANCH   3  20
TORSDOF 8
ENDMDL
MODEL      408
REMARK  Name = ZINC000005496024
REMARK                            x       y       z     vdW  Elec       q    Type
REMARK                         _______ _______ _______ _____ _____    ______ ____
ROOT
ATOM      1  C   LIG    1       -2.179  -3.002   0.007  0.00  0.00    +0.320 C 
ATOM      2  O   LIG    1       -2.885  -2.820   1.236  0.00  0.00    -0.370 OA
ATOM      3  C   LIG    1       -2.117  -3.130   2.401  0.00  0.00    +0.210 C 
ATOM      4  C   LIG    1       -1.702  -4.602   2.360  0.00  0.00    +0.170 C 
ATOM      5  C   LIG    1       -0.909  -4.866   1.077  0.00  0.00    +0.160 C 
ATOM      6  C   LIG    1       -1.766  -4.470  -0.130  0.00  0.00    +0.150 C 
ENDROOT
BRANCH   5   7
ATOM      7  O   LIG    1        0.291  -4.090   1.088  0.00  0.00    -0.540 OA
ATOM      8  H   LIG    1        0.843  -4.208   0.303  0.00  0.00    +0.390 HD
ENDBRANCH   5   7
BRANCH   4   9
ATOM      9  O   LIG    1       -2.868  -5.428   2.381  0.00  0.00    -0.550 OA
ATOM     10  H   LIG    1       -2.678  -6.376   2.357  0.00  0.00    +0.380 HD
ENDBRANCH   4   9
BRANCH   6  11
ATOM     11  O   LIG    1       -1.010  -4.645  -1.331  0.00  0.00    -0.550 OA
ATOM     12  H   LIG    1       -1.492  -4.413  -2.136  0.00  0.00    +0.390 HD
ENDBRANCH   6  11
BRANCH   1  13
ATOM     13  O   LIG    1       -1.012  -2.176   0.000  0.00  0.00    -0.340 OA
BRANCH  13  14
ATOM     14  C   LIG    1       -1.293  -0.775   0.010  0.00  0.00    +0.210 C 
BRANCH  14  18
ATOM     15  N   LIG    1       -0.016   1.344   0.009  0.00  0.00    -0.860 N 
ATOM     16  H   LIG    1       -0.863   1.817   0.016  0.00  0.00    +0.400 HD
ATOM     17  H   LIG    1        0.817   1.840   0.004  0.00  0.00    +0.410 HD
ATOM     18  C   LIG    1        0.002  -0.004   0.002  0.00  0.00    +0.520 C 
ATOM     19  O   LIG    1        1.060  -0.596  -0.011  0.00  0.00    -0.520 OA
ENDBRANCH  14  18
ENDBRANCH  13  14
ENDBRANCH   1  13
BRANCH   3  20
ATOM     20  C   LIG    1       -2.961  -2.871   3.651  0.00  0.00    +0.210 C 
BRANCH  20  21
ATOM     21  O   LIG    1       -3.252  -1.476   3.749  0.00  0.00    -0.570 OA
ATOM     22  H   LIG    1       -3.785  -1.239   4.521  0.00  0.00    +0.380 HD
ENDBRANCH  20  21
ENDBRANCH   3  20
TORSDOF 8
ENDMDL
MODEL      409
REMARK  Name = ZINC000005496021
REMARK                            x       y       z     vdW  Elec       q    Type
REMARK                         _______ _______ _______ _____ _____    ______ ____
ROOT
ATOM      1  C   LIG    1       -2.179  -3.002   0.007  0.00  0.00    +0.310 C 
ATOM      2  O   LIG    1       -2.885  -2.820   1.236  0.00  0.00    -0.370 OA
ATOM      3  C   LIG    1       -2.117  -3.130   2.401  0.00  0.00    +0.190 C 
ATOM      4  C   LIG    1       -1.702  -4.602   2.360  0.00  0.00    +0.170 C 
ATOM      5  C   LIG    1       -0.909  -4.866   1.077  0.00  0.00    +0.150 C 
ATOM      6  C   LIG    1       -1.766  -4.470  -0.130  0.00  0.00    +0.150 C 
ENDROOT
BRANCH   5   7
ATOM      7  O   LIG    1        0.291  -4.090   1.088  0.00  0.00    -0.530 OA
ATOM      8  H   LIG    1        0.843  -4.208   0.303  0.00  0.00    +0.390 HD
ENDBRANCH   5   7
BRANCH   4   9
ATOM      9  O   LIG    1       -0.887  -4.900   3.496  0.00  0.00    -0.540 OA
ATOM     10  H   LIG    1       -0.587  -5.819   3.535  0.00  0.00    +0.380 HD
ENDBRANCH   4   9
BRANCH   6  11
ATOM     11  O   LIG    1       -1.010  -4.645  -1.331  0.00  0.00    -0.550 OA
ATOM     12  H   LIG    1       -1.492  -4.413  -2.136  0.00  0.00    +0.390 HD
ENDBRANCH   6  11
BRANCH   1  13
ATOM     13  O   LIG    1       -1.012  -2.176   0.000  0.00  0.00    -0.340 OA
BRANCH  13  14
ATOM     14  C   LIG    1       -1.293  -0.775   0.010  0.00  0.00    +0.210 C 
BRANCH  14  18
ATOM     15  N   LIG    1       -0.016   1.344   0.009  0.00  0.00    -0.860 N 
ATOM     16  H   LIG    1       -0.863   1.817   0.016  0.00  0.00    +0.400 HD
ATOM     17  H   LIG    1        0.817   1.840   0.004  0.00  0.00    +0.410 HD
ATOM     18  C   LIG    1        0.002  -0.004   0.002  0.00  0.00    +0.520 C 
ATOM     19  O   LIG    1        1.060  -0.596  -0.011  0.00  0.00    -0.520 OA
ENDBRANCH  14  18
ENDBRANCH  13  14
ENDBRANCH   1  13
BRANCH   3  20
ATOM     20  C   LIG    1       -2.961  -2.871   3.651  0.00  0.00    +0.210 C 
BRANCH  20  21
ATOM     21  O   LIG    1       -3.252  -1.476   3.749  0.00  0.00    -0.570 OA
ATOM     22  H   LIG    1       -3.785  -1.239   4.521  0.00  0.00    +0.380 HD
ENDBRANCH  20  21
ENDBRANCH   3  20
TORSDOF 8
ENDMDL
MODEL      410
REMARK  Name = ZINC000223809578
REMARK                            x       y       z     vdW  Elec       q    Type
REMARK                         _______ _______ _______ _____ _____    ______ ____
ROOT
ATOM      1  C   LIG    1       -1.844  -4.522  -0.005  0.00  0.00    +0.110 C 
ENDROOT
BRANCH   1   2
ATOM      2  C   LIG    1       -2.061  -3.031   0.005  0.00  0.00    +0.470 C 
ATOM      3  O   LIG    1       -3.184  -2.584   0.019  0.00  0.00    -0.500 OA
BRANCH   2   4
ATOM      4  O   LIG    1       -1.008  -2.199  -0.000  0.00  0.00    -0.330 OA
BRANCH   4   5
ATOM      5  C   LIG    1       -1.293  -0.775   0.010  0.00  0.00    +0.270 C 
BRANCH   5   9
ATOM      6  N   LIG    1       -0.016   1.344   0.009  0.00  0.00    -0.850 N 
ATOM      7  H   LIG    1       -0.863   1.817   0.016  0.00  0.00    +0.410 HD
ATOM      8  H   LIG    1        0.817   1.840   0.004  0.00  0.00    +0.410 HD
ATOM      9  C   LIG    1        0.002  -0.004   0.002  0.00  0.00    +0.520 C 
ATOM     10  O   LIG    1        1.060  -0.596  -0.011  0.00  0.00    -0.520 OA
ENDBRANCH   5   9
ENDBRANCH   4   5
ENDBRANCH   2   4
ENDBRANCH   1   2
BRANCH   1  11
ATOM     11  C   LIG    1       -3.197  -5.235   0.004  0.00  0.00    +0.350 C 
BRANCH  11  12
ATOM     12  N   LIG    1       -2.986  -6.685  -0.005  0.00  0.00    -0.540 N 
ATOM     13  C   LIG    1       -2.893  -7.348  -1.198  0.00  0.00    +0.350 A 
ATOM     14  C   LIG    1       -2.698  -8.684  -1.208  0.00  0.00    -0.120 A 
ATOM     15  C   LIG    1       -2.592  -9.373   0.025  0.00  0.00    +0.550 A 
ATOM     16  N   LIG    1       -2.688  -8.683   1.179  0.00  0.00    -0.660 N 
ATOM     17  H   LIG    1       -2.617  -9.148   2.027  0.00  0.00    +0.430 HD
ATOM     18  O   LIG    1       -2.415 -10.578   0.042  0.00  0.00    -0.510 OA
ATOM     19  C   LIG    1       -2.878  -7.351   1.159  0.00  0.00    +0.700 A 
ATOM     20  O   LIG    1       -2.963  -6.741   2.208  0.00  0.00    -0.530 OA
ENDBRANCH  11  12
ENDBRANCH   1  11
TORSDOF 6
ENDMDL
MODEL      411
REMARK  Name = ZINC000005496019
REMARK                            x       y       z     vdW  Elec       q    Type
REMARK                         _______ _______ _______ _____ _____    ______ ____
ROOT
ATOM      1  C   LIG    1       -2.179  -3.002   0.007  0.00  0.00    +0.280 C 
ATOM      2  O   LIG    1       -2.885  -2.820   1.236  0.00  0.00    -0.370 OA
ATOM      3  C   LIG    1       -4.088  -3.585   1.337  0.00  0.00    +0.190 C 
ATOM      4  C   LIG    1       -3.751  -5.076   1.253  0.00  0.00    +0.160 C 
ATOM      5  C   LIG    1       -3.015  -5.353  -0.062  0.00  0.00    +0.160 C 
ATOM      6  C   LIG    1       -1.766  -4.470  -0.130  0.00  0.00    +0.140 C 
ENDROOT
BRANCH   5   7
ATOM      7  O   LIG    1       -2.635  -6.729  -0.116  0.00  0.00    -0.550 OA
ATOM      8  H   LIG    1       -2.163  -6.975  -0.923  0.00  0.00    +0.390 HD
ENDBRANCH   5   7
BRANCH   4   9
ATOM      9  O   LIG    1       -2.916  -5.440   2.355  0.00  0.00    -0.530 OA
ATOM     10  H   LIG    1       -2.664  -6.373   2.365  0.00  0.00    +0.390 HD
ENDBRANCH   4   9
BRANCH   6  11
ATOM     11  O   LIG    1       -0.876  -4.818   0.933  0.00  0.00    -0.520 OA
ATOM     12  H   LIG    1       -0.061  -4.298   0.950  0.00  0.00    +0.380 HD
ENDBRANCH   6  11
BRANCH   1  13
ATOM     13  O   LIG    1       -1.012  -2.176   0.000  0.00  0.00    -0.340 OA
BRANCH  13  14
ATOM     14  C   LIG    1       -1.293  -0.775   0.010  0.00  0.00    +0.220 C 
BRANCH  14  18
ATOM     15  N   LIG    1       -0.016   1.344   0.009  0.00  0.00    -0.850 N 
ATOM     16  H   LIG    1       -0.863   1.817   0.016  0.00  0.00    +0.400 HD
ATOM     17  H   LIG    1        0.817   1.840   0.004  0.00  0.00    +0.410 HD
ATOM     18  C   LIG    1        0.002  -0.004   0.002  0.00  0.00    +0.520 C 
ATOM     19  O   LIG    1        1.060  -0.596  -0.011  0.00  0.00    -0.520 OA
ENDBRANCH  14  18
ENDBRANCH  13  14
ENDBRANCH   1  13
BRANCH   3  20
ATOM     20  C   LIG    1       -4.769  -3.289   2.674  0.00  0.00    +0.220 C 
BRANCH  20  21
ATOM     21  O   LIG    1       -5.187  -1.923   2.704  0.00  0.00    -0.570 OA
ATOM     22  H   LIG    1       -5.628  -1.665   3.525  0.00  0.00    +0.380 HD
ENDBRANCH  20  21
ENDBRANCH   3  20
TORSDOF 8
ENDMDL
MODEL      412
REMARK  Name = ZINC000004692109
REMARK                            x       y       z     vdW  Elec       q    Type
REMARK                         _______ _______ _______ _____ _____    ______ ____
ROOT
ATOM      1  C   LIG    1       -3.014  -2.361   0.018  0.00  0.00    +0.260 C 
ATOM      2  C   LIG    1       -3.047  -3.764  -0.596  0.00  0.00    +0.200 C 
ATOM      3  C   LIG    1       -4.474  -4.314  -0.509  0.00  0.00    +0.130 C 
ATOM      4  C   LIG    1       -4.926  -4.310   0.954  0.00  0.00    +0.150 C 
ATOM      5  O   LIG    1       -4.842  -2.981   1.473  0.00  0.00    -0.390 OA
ATOM      6  C   LIG    1       -3.523  -2.431   1.460  0.00  0.00    +0.320 C 
ENDROOT
BRANCH   1   8
ATOM      7  C   LIG    1       -1.412  -0.526   0.013  0.00  0.00    +0.510 C 
ATOM      8  N   LIG    1       -1.640  -1.854   0.008  0.00  0.00    -0.720 N 
ATOM      9  H   LIG    1       -0.894  -2.474  -0.003  0.00  0.00    +0.400 HD
ATOM     10  O   LIG    1       -2.344   0.250   0.026  0.00  0.00    -0.510 OA
BRANCH   7  12
ATOM     11  C   LIG    1       -0.019   1.526   0.010  0.00  0.00    +0.040 C 
ATOM     12  C   LIG    1        0.002  -0.004   0.002  0.00  0.00    +0.040 C 
ENDBRANCH   7  12
ENDBRANCH   1   8
BRANCH   3  13
ATOM     13  O   LIG    1       -5.351  -3.493  -1.283  0.00  0.00    -0.550 OA
ATOM     14  H   LIG    1       -6.273  -3.784  -1.273  0.00  0.00    +0.380 HD
ENDBRANCH   3  13
BRANCH   2  15
ATOM     15  O   LIG    1       -2.158  -4.621   0.122  0.00  0.00    -0.550 OA
ATOM     16  H   LIG    1       -2.128  -5.527  -0.214  0.00  0.00    +0.390 HD
ENDBRANCH   2  15
BRANCH   6  17
ATOM     17  O   LIG    1       -3.550  -1.117   2.023  0.00  0.00    -0.520 OA
ATOM     18  H   LIG    1       -3.863  -1.087   2.937  0.00  0.00    +0.380 HD
ENDBRANCH   6  17
BRANCH   4  19
ATOM     19  C   LIG    1       -6.372  -4.803   1.042  0.00  0.00    +0.200 C 
BRANCH  19  20
ATOM     20  O   LIG    1       -6.755  -4.910   2.415  0.00  0.00    -0.560 OA
ATOM     21  H   LIG    1       -7.662  -5.217   2.547  0.00  0.00    +0.380 HD
ENDBRANCH  19  20
ENDBRANCH   4  19
TORSDOF 7
ENDMDL
MODEL      413
REMARK  Name = ZINC000004692107
REMARK                            x       y       z     vdW  Elec       q    Type
REMARK                         _______ _______ _______ _____ _____    ______ ____
ROOT
ATOM      1  C   LIG    1        1.583  -2.313   2.615  0.00  0.00    +0.260 C 
ATOM      2  C   LIG    1        3.087  -2.346   2.334  0.00  0.00    +0.310 C 
ATOM      3  O   LIG    1        3.771  -2.874   3.473  0.00  0.00    -0.380 OA
ATOM      4  C   LIG    1        3.398  -4.212   3.809  0.00  0.00    +0.150 C 
ATOM      5  C   LIG    1        1.906  -4.254   4.148  0.00  0.00    +0.130 C 
ATOM      6  C   LIG    1        1.102  -3.727   2.955  0.00  0.00    +0.190 C 
ENDROOT
BRANCH   1   8
ATOM      7  C   LIG    1        0.731  -0.503   1.223  0.00  0.00    +0.510 C 
ATOM      8  N   LIG    1        0.874  -1.828   1.428  0.00  0.00    -0.720 N 
ATOM      9  H   LIG    1        0.508  -2.459   0.789  0.00  0.00    +0.400 HD
ATOM     10  O   LIG    1        1.189   0.287   2.021  0.00  0.00    -0.510 OA
BRANCH   7  12
ATOM     11  C   LIG    1       -0.019   1.526   0.010  0.00  0.00    +0.040 C 
ATOM     12  C   LIG    1        0.002  -0.004   0.002  0.00  0.00    +0.040 C 
ENDBRANCH   7  12
ENDBRANCH   1   8
BRANCH   5  13
ATOM     13  O   LIG    1        1.653  -3.436   5.293  0.00  0.00    -0.540 OA
ATOM     14  H   LIG    1        2.134  -3.710   6.086  0.00  0.00    +0.380 HD
ENDBRANCH   5  13
BRANCH   2  15
ATOM     15  O   LIG    1        3.552  -1.021   2.071  0.00  0.00    -0.520 OA
ATOM     16  H   LIG    1        4.500  -0.966   1.885  0.00  0.00    +0.380 HD
ENDBRANCH   2  15
BRANCH   6  17
ATOM     17  O   LIG    1       -0.287  -3.696   3.290  0.00  0.00    -0.540 OA
ATOM     18  H   LIG    1       -0.655  -4.560   3.522  0.00  0.00    +0.380 HD
ENDBRANCH   6  17
BRANCH   4  19
ATOM     19  C   LIG    1        4.210  -4.680   5.018  0.00  0.00    +0.210 C 
BRANCH  19  20
ATOM     20  O   LIG    1        5.593  -4.751   4.665  0.00  0.00    -0.560 OA
ATOM     21  H   LIG    1        6.168  -5.041   5.385  0.00  0.00    +0.390 HD
ENDBRANCH  19  20
ENDBRANCH   4  19
TORSDOF 7
ENDMDL
MODEL      414
REMARK  Name = ZINC000036644194
REMARK                            x       y       z     vdW  Elec       q    Type
REMARK                         _______ _______ _______ _____ _____    ______ ____
ROOT
ATOM      1  C   LIG    1       -4.260  -4.295   0.131  0.00  0.00    -0.330 A 
ATOM      2  C   LIG    1       -4.437  -5.661   0.236  0.00  0.00    +0.470 A 
ATOM      3  N   LIG    1       -5.695  -6.162   0.346  0.00  0.00    -0.520 N 
ATOM      4  C   LIG    1       -6.771  -5.359   0.356  0.00  0.00    +0.700 A 
ATOM      5  N   LIG    1       -6.667  -4.023   0.257  0.00  0.00    -0.650 N 
ATOM      6  H   LIG    1       -7.468  -3.476   0.268  0.00  0.00    +0.440 HD
ATOM      7  O   LIG    1       -7.875  -5.858   0.458  0.00  0.00    -0.520 OA
ATOM      8  C   LIG    1       -5.881  -7.611   0.458  0.00  0.00    +0.370 C 
ATOM      9  C   LIG    1       -5.456  -3.437   0.149  0.00  0.00    +0.570 A 
ATOM     10  O   LIG    1       -5.356  -2.228   0.059  0.00  0.00    -0.500 OA
ENDROOT
BRANCH   1  14
ATOM     11  C   LIG    1       -1.517  -1.844   0.014  0.00  0.00    +0.640 C 
ATOM     12  N   LIG    1       -2.756  -2.376   0.018  0.00  0.00    -0.650 N 
ATOM     13  H   LIG    1       -3.533  -1.795   0.027  0.00  0.00    +0.430 HD
ATOM     14  C   LIG    1       -2.915  -3.714   0.010  0.00  0.00    +0.610 C 
ATOM     15  O   LIG    1       -1.946  -4.441  -0.098  0.00  0.00    -0.470 OA
ATOM     16  O   LIG    1       -0.544  -2.571   0.003  0.00  0.00    -0.510 OA
BRANCH  11  17
ATOM     17  O   LIG    1       -1.358  -0.508   0.023  0.00  0.00    -0.360 OA
BRANCH  17  19
ATOM     18  C   LIG    1       -0.016   1.524   0.029  0.00  0.00    +0.080 C 
ATOM     19  C   LIG    1        0.004  -0.006   0.018  0.00  0.00    +0.230 C 
ENDBRANCH  17  19
ENDBRANCH  11  17
ENDBRANCH   1  14
TORSDOF 3
ENDMDL
MODEL      415
REMARK  Name = ZINC000001625037
REMARK                            x       y       z     vdW  Elec       q    Type
REMARK                         _______ _______ _______ _____ _____    ______ ____
ROOT
ATOM      1  C   LIG    1       -4.260  -4.295   0.131  0.00  0.00    -0.330 A 
ATOM      2  C   LIG    1       -4.437  -5.662   0.230  0.00  0.00    +0.490 A 
ATOM      3  N   LIG    1       -5.694  -6.163   0.341  0.00  0.00    -0.620 N 
ATOM      4  H   LIG    1       -5.817  -7.123   0.410  0.00  0.00    +0.450 HD
ATOM      5  C   LIG    1       -6.770  -5.361   0.355  0.00  0.00    +0.700 A 
ATOM      6  N   LIG    1       -6.667  -4.024   0.262  0.00  0.00    -0.650 N 
ATOM      7  H   LIG    1       -7.468  -3.477   0.276  0.00  0.00    +0.440 HD
ATOM      8  O   LIG    1       -7.874  -5.860   0.456  0.00  0.00    -0.520 OA
ATOM      9  C   LIG    1       -5.456  -3.438   0.155  0.00  0.00    +0.570 A 
ATOM     10  O   LIG    1       -5.356  -2.228   0.071  0.00  0.00    -0.500 OA
ENDROOT
BRANCH   1  14
ATOM     11  C   LIG    1       -1.517  -1.844   0.020  0.00  0.00    +0.640 C 
ATOM     12  N   LIG    1       -2.756  -2.376   0.024  0.00  0.00    -0.650 N 
ATOM     13  H   LIG    1       -3.533  -1.795   0.037  0.00  0.00    +0.430 HD
ATOM     14  C   LIG    1       -2.915  -3.714   0.010  0.00  0.00    +0.610 C 
ATOM     15  O   LIG    1       -1.946  -4.440  -0.103  0.00  0.00    -0.470 OA
ATOM     16  O   LIG    1       -0.544  -2.571   0.004  0.00  0.00    -0.510 OA
BRANCH  11  17
ATOM     17  O   LIG    1       -1.358  -0.508   0.034  0.00  0.00    -0.360 OA
BRANCH  17  19
ATOM     18  C   LIG    1       -0.015   1.524   0.047  0.00  0.00    +0.080 C 
ATOM     19  C   LIG    1        0.004  -0.006   0.029  0.00  0.00    +0.230 C 
ENDBRANCH  17  19
ENDBRANCH  11  17
ENDBRANCH   1  14
TORSDOF 3
ENDMDL
MODEL      416
REMARK  Name = ZINC000004692108
REMARK                            x       y       z     vdW  Elec       q    Type
REMARK                         _______ _______ _______ _____ _____    ______ ____
ROOT
ATOM      1  C   LIG    1       -3.014  -2.361   0.018  0.00  0.00    +0.250 C 
ATOM      2  C   LIG    1       -3.020  -3.815   0.501  0.00  0.00    +0.180 C 
ATOM      3  C   LIG    1       -2.227  -4.673  -0.489  0.00  0.00    +0.120 C 
ATOM      4  C   LIG    1       -2.836  -4.523  -1.885  0.00  0.00    +0.150 C 
ATOM      5  O   LIG    1       -2.828  -3.144  -2.261  0.00  0.00    -0.390 OA
ATOM      6  C   LIG    1       -3.594  -2.298  -1.398  0.00  0.00    +0.350 C 
ENDROOT
BRANCH   1   8
ATOM      7  C   LIG    1       -1.107  -1.330   1.129  0.00  0.00    +0.520 C 
ATOM      8  N   LIG    1       -1.640  -1.854   0.008  0.00  0.00    -0.690 N 
ATOM      9  H   LIG    1       -1.114  -1.895  -0.806  0.00  0.00    +0.410 HD
ATOM     10  O   LIG    1       -1.764  -1.278   2.147  0.00  0.00    -0.550 OA
BRANCH   7  12
ATOM     11  C   LIG    1        0.663  -0.272   2.506  0.00  0.00    +0.040 C 
ATOM     12  C   LIG    1        0.307  -0.808   1.118  0.00  0.00    +0.040 C 
ENDBRANCH   7  12
ENDBRANCH   1   8
BRANCH   3  13
ATOM     13  O   LIG    1       -0.865  -4.241  -0.511  0.00  0.00    -0.540 OA
ATOM     14  H   LIG    1       -0.303  -4.742  -1.118  0.00  0.00    +0.380 HD
ENDBRANCH   3  13
BRANCH   2  15
ATOM     15  O   LIG    1       -4.366  -4.288   0.576  0.00  0.00    -0.550 OA
ATOM     16  H   LIG    1       -4.445  -5.204   0.875  0.00  0.00    +0.390 HD
ENDBRANCH   2  15
BRANCH   6  17
ATOM     17  O   LIG    1       -3.539  -0.953  -1.877  0.00  0.00    -0.540 OA
ATOM     18  H   LIG    1       -3.890  -0.841  -2.772  0.00  0.00    +0.390 HD
ENDBRANCH   6  17
BRANCH   4  19
ATOM     19  C   LIG    1       -2.013  -5.330  -2.890  0.00  0.00    +0.200 C 
BRANCH  19  20
ATOM     20  O   LIG    1       -2.646  -5.285  -4.171  0.00  0.00    -0.560 OA
ATOM     21  H   LIG    1       -2.178  -5.777  -4.859  0.00  0.00    +0.380 HD
ENDBRANCH  19  20
ENDBRANCH   4  19
TORSDOF 7
ENDMDL
MODEL      417
REMARK  Name = ZINC000004692106
REMARK                            x       y       z     vdW  Elec       q    Type
REMARK                         _______ _______ _______ _____ _____    ______ ____
ROOT
ATOM      1  C   LIG    1        1.583  -2.313   2.615  0.00  0.00    +0.250 C 
ATOM      2  C   LIG    1        0.645  -2.270   3.824  0.00  0.00    +0.340 C 
ATOM      3  O   LIG    1       -0.464  -3.142   3.596  0.00  0.00    -0.390 OA
ATOM      4  C   LIG    1       -0.102  -4.513   3.421  0.00  0.00    +0.150 C 
ATOM      5  C   LIG    1        0.806  -4.646   2.195  0.00  0.00    +0.120 C 
ATOM      6  C   LIG    1        2.040  -3.756   2.383  0.00  0.00    +0.180 C 
ENDROOT
BRANCH   1   8
ATOM      7  C   LIG    1        1.559  -1.238   0.428  0.00  0.00    +0.520 C 
ATOM      8  N   LIG    1        0.874  -1.828   1.428  0.00  0.00    -0.690 N 
ATOM      9  H   LIG    1       -0.088  -1.931   1.361  0.00  0.00    +0.410 HD
ATOM     10  O   LIG    1        2.762  -1.109   0.511  0.00  0.00    -0.540 OA
BRANCH   7  12
ATOM     11  C   LIG    1        1.833  -0.117  -1.767  0.00  0.00    +0.040 C 
ATOM     12  C   LIG    1        0.830  -0.739  -0.793  0.00  0.00    +0.040 C 
ENDBRANCH   7  12
ENDBRANCH   1   8
BRANCH   5  13
ATOM     13  O   LIG    1        0.094  -4.236   1.026  0.00  0.00    -0.530 OA
ATOM     14  H   LIG    1       -0.703  -4.755   0.849  0.00  0.00    +0.370 HD
ENDBRANCH   5  13
BRANCH   2  15
ATOM     15  O   LIG    1        0.171  -0.935   4.012  0.00  0.00    -0.530 OA
ATOM     16  H   LIG    1       -0.430  -0.833   4.762  0.00  0.00    +0.390 HD
ENDBRANCH   2  15
BRANCH   6  17
ATOM     17  O   LIG    1        2.858  -3.820   1.213  0.00  0.00    -0.530 OA
ATOM     18  H   LIG    1        3.177  -4.709   1.004  0.00  0.00    +0.380 HD
ENDBRANCH   6  17
BRANCH   4  19
ATOM     19  C   LIG    1       -1.365  -5.352   3.214  0.00  0.00    +0.210 C 
BRANCH  19  20
ATOM     20  O   LIG    1       -2.157  -5.320   4.403  0.00  0.00    -0.560 OA
ATOM     21  H   LIG    1       -2.976  -5.832   4.344  0.00  0.00    +0.390 HD
ENDBRANCH  19  20
ENDBRANCH   4  19
TORSDOF 7
ENDMDL
MODEL      418
REMARK  Name = ZINC000001737816
REMARK                            x       y       z     vdW  Elec       q    Type
REMARK                         _______ _______ _______ _____ _____    ______ ____
ROOT
ATOM      1  CA  GLY A  2       -3.718  -0.594  -0.052  0.00  0.00    +0.320 C 
ENDROOT
BRANCH   1   4
ATOM      2  N   ALA A  3       -1.244  -0.643  -0.048  0.00  0.00    -0.660 N 
ATOM      3  H   ALA A  3       -1.293  -1.612  -0.043  0.00  0.00    +0.400 HD
ATOM      4  C   GLY A  2       -2.375   0.088  -0.111  0.00  0.00    +0.510 C 
ATOM      5  O   GLY A  2       -2.312   1.294  -0.216  0.00  0.00    -0.510 OA
BRANCH   2   7
ATOM      6  CB  ALA A  3        0.918  -0.239  -0.935  0.00  0.00    +0.040 C 
ATOM      7  CA  ALA A  3        0.002  -0.004   0.010  0.00  0.00    +0.040 C 
BRANCH   7   8
ATOM      8  C   ALA A  3        0.301   0.926   1.110  0.00  0.00    +0.520 C 
ATOM      9  OXT ALA A  3       -0.538   1.141   1.975  0.00  0.00    -0.680 OA
ATOM     10  O   ALA A  3        1.389   1.484   1.161  0.00  0.00    -0.680 OA
ENDBRANCH   7   8
ENDBRANCH   2   7
ENDBRANCH   1   4
BRANCH   1  11
ATOM     11  N   GLY A  2       -4.780   0.411  -0.138  0.00  0.00    -0.680 N 
ATOM     12  H   GLY A  2       -4.553   1.351  -0.220  0.00  0.00    +0.420 HD
ATOM     13  C   GLY A  1       -6.072   0.030  -0.105  0.00  0.00    +0.490 C 
ATOM     14  O   GLY A  1       -6.356  -1.144  -0.003  0.00  0.00    -0.540 OA
BRANCH  13  15
ATOM     15  CA  GLY A  1       -7.165   1.064  -0.194  0.00  0.00    +0.310 C 
BRANCH  15  16
ATOM     16  N   GLY A  1       -8.474   0.400  -0.136  0.00  0.00    -0.620 N 
ATOM     17  H1  GLY A  1       -8.557  -0.103   0.735  0.00  0.00    +0.440 HD
ATOM     18  H2  GLY A  1       -8.558  -0.246  -0.907  0.00  0.00    +0.440 HD
ATOM     19  H3  GLY A  1       -9.205   1.092  -0.195  0.00  0.00    +0.440 HD
ENDBRANCH  15  16
ENDBRANCH  13  15
ENDBRANCH   1  11
TORSDOF 6
ENDMDL
MODEL      419
REMARK  Name = ZINC000218763501
REMARK                            x       y       z     vdW  Elec       q    Type
REMARK                         _______ _______ _______ _____ _____    ______ ____
ROOT
ATOM      1  N   ASN A  1       -0.311  -2.648   1.246  0.00  0.00    -0.480 N 
ATOM      2  H1  ASN A  1       -0.935  -2.506   2.026  0.00  0.00    +0.420 HD
ATOM      3  H2  ASN A  1        0.511  -2.074   1.364  0.00  0.00    +0.410 HD
ENDROOT
BRANCH   1   4
ATOM      4  CA  ASN A  1       -0.993  -2.276  -0.001  0.00  0.00    +0.110 C 
BRANCH   4   5
ATOM      5  C   ASN A  1       -2.283  -3.045  -0.116  0.00  0.00    +0.490 C 
ATOM      6  OXT ASN A  1       -2.696  -3.689   0.833  0.00  0.00    -0.670 OA
ATOM      7  O   ASN A  1       -2.914  -3.024  -1.159  0.00  0.00    -0.630 OA
ENDBRANCH   4   5
BRANCH   4   8
ATOM      8  CB  ASN A  1       -1.293  -0.775   0.010  0.00  0.00    +0.100 C 
BRANCH   8  12
ATOM      9  ND2 ASN A  1       -0.016   1.344   0.009  0.00  0.00    -0.840 N 
ATOM     10 HD21 ASN A  1       -0.863   1.817   0.016  0.00  0.00    +0.410 HD
ATOM     11 HD22 ASN A  1        0.817   1.840   0.004  0.00  0.00    +0.410 HD
ATOM     12  CG  ASN A  1        0.002  -0.004   0.002  0.00  0.00    +0.510 C 
ATOM     13  OD1 ASN A  1        1.060  -0.596  -0.011  0.00  0.00    -0.560 OA
ENDBRANCH   8  12
ENDBRANCH   4   8
ENDBRANCH   1   4
BRANCH   1  14
ATOM     14  C   UNK A  0        0.084  -4.061   1.185  0.00  0.00    +0.350 C 
BRANCH  14  15
ATOM     15  C   UNK A  0        0.783  -4.443   2.464  0.00  0.00    -0.320 A 
ATOM     16  C   UNK A  0        2.157  -4.305   2.589  0.00  0.00    +0.400 A 
ATOM     17  N   UNK A  0        2.740  -4.649   3.725  0.00  0.00    -0.570 NA
ATOM     18  C   UNK A  0        2.026  -5.120   4.737  0.00  0.00    +0.580 A 
ATOM     19  N   UNK A  0        0.712  -5.264   4.651  0.00  0.00    -0.570 NA
ATOM     20  C   UNK A  0        0.067  -4.935   3.544  0.00  0.00    +0.410 A 
BRANCH  18  21
ATOM     21  N   UNK A  0        2.668  -5.471   5.912  0.00  0.00    -0.810 N 
ATOM     22  H   UNK A  0        2.157  -5.817   6.659  0.00  0.00    +0.420 HD
ATOM     23  H   UNK A  0        3.630  -5.369   5.987  0.00  0.00    +0.420 HD
ENDBRANCH  18  21
ENDBRANCH  14  15
ENDBRANCH   1  14
TORSDOF 7
ENDMDL
MODEL      420
REMARK  Name = ZINC000218763530
REMARK                            x       y       z     vdW  Elec       q    Type
REMARK                         _______ _______ _______ _____ _____    ______ ____
ROOT
ATOM      1  N   ASN A  1       -0.335  -2.634  -1.264  0.00  0.00    -0.480 N 
ATOM      2  H1  ASN A  1        0.484  -2.059  -1.392  0.00  0.00    +0.410 HD
ATOM      3  H2  ASN A  1       -0.974  -2.484  -2.030  0.00  0.00    +0.420 HD
ENDROOT
BRANCH   1   4
ATOM      4  CA  ASN A  1       -0.993  -2.276  -0.001  0.00  0.00    +0.110 C 
BRANCH   4   5
ATOM      5  C   ASN A  1       -2.281  -3.046   0.131  0.00  0.00    +0.490 C 
ATOM      6  OXT ASN A  1       -2.702  -3.346   1.236  0.00  0.00    -0.630 OA
ATOM      7  O   ASN A  1       -2.902  -3.370  -0.866  0.00  0.00    -0.660 OA
ENDBRANCH   4   5
BRANCH   4   8
ATOM      8  CB  ASN A  1       -1.293  -0.775   0.010  0.00  0.00    +0.110 C 
BRANCH   8  12
ATOM      9  ND2 ASN A  1       -0.016   1.344   0.009  0.00  0.00    -0.840 N 
ATOM     10 HD21 ASN A  1       -0.863   1.817   0.016  0.00  0.00    +0.410 HD
ATOM     11 HD22 ASN A  1        0.817   1.840   0.004  0.00  0.00    +0.410 HD
ATOM     12  CG  ASN A  1        0.002  -0.004   0.002  0.00  0.00    +0.510 C 
ATOM     13  OD1 ASN A  1        1.060  -0.596  -0.011  0.00  0.00    -0.560 OA
ENDBRANCH   8  12
ENDBRANCH   4   8
ENDBRANCH   1   4
BRANCH   1  14
ATOM     14  C   UNK A  0        0.061  -4.048  -1.226  0.00  0.00    +0.340 C 
BRANCH  14  15
ATOM     15  C   UNK A  0        0.736  -4.416  -2.522  0.00  0.00    -0.330 A 
ATOM     16  C   UNK A  0       -0.002  -4.891  -3.595  0.00  0.00    +0.410 A 
ATOM     17  N   UNK A  0        0.621  -5.205  -4.719  0.00  0.00    -0.570 NA
ATOM     18  C   UNK A  0        1.935  -5.069  -4.825  0.00  0.00    +0.580 A 
ATOM     19  N   UNK A  0        2.669  -4.618  -3.819  0.00  0.00    -0.570 NA
ATOM     20  C   UNK A  0        2.107  -4.282  -2.670  0.00  0.00    +0.410 A 
BRANCH  18  21
ATOM     21  N   UNK A  0        2.554  -5.407  -6.016  0.00  0.00    -0.810 N 
ATOM     22  H   UNK A  0        3.516  -5.312  -6.106  0.00  0.00    +0.420 HD
ATOM     23  H   UNK A  0        2.028  -5.738  -6.760  0.00  0.00    +0.420 HD
ENDBRANCH  18  21
ENDBRANCH  14  15
ENDBRANCH   1  14
TORSDOF 7
ENDMDL
MODEL      421
REMARK  Name = ZINC000002387113
REMARK                            x       y       z     vdW  Elec       q    Type
REMARK                         _______ _______ _______ _____ _____    ______ ____
ROOT
ATOM      1  C   LIG    1       -1.136  -2.159   0.001  0.00  0.00    +0.180 C 
ATOM      2  C   LIG    1       -1.067  -2.694   1.417  0.00  0.00    +0.470 C 
ATOM      3  O   LIG    1       -2.312  -3.034   1.797  0.00  0.00    -0.340 OA
ATOM      4  C   LIG    1       -3.035  -3.519   0.626  0.00  0.00    +0.170 C 
ATOM      5  O   LIG    1       -0.067  -2.797   2.088  0.00  0.00    -0.420 OA
ATOM      6  C   LIG    1       -2.463  -2.712  -0.563  0.00  0.00    +0.180 C 
ENDROOT
BRANCH   1   9
ATOM      7  C   LIG    1       -0.018   1.503   0.010  0.00  0.00    +0.110 C 
ATOM      8  C   LIG    1        0.002  -0.004   0.002  0.00  0.00    +0.510 C 
ATOM      9  N   LIG    1       -1.156  -0.694   0.009  0.00  0.00    -0.710 N 
ATOM     10  H   LIG    1       -2.002  -0.220   0.020  0.00  0.00    +0.420 HD
ATOM     11  O   LIG    1        1.060  -0.596  -0.011  0.00  0.00    -0.530 OA
ENDBRANCH   1   9
BRANCH   6  12
ATOM     12  O   LIG    1       -3.346  -1.647  -0.923  0.00  0.00    -0.510 OA
ATOM     13  H   LIG    1       -3.033  -1.111  -1.664  0.00  0.00    +0.380 HD
ENDBRANCH   6  12
BRANCH   4  14
ATOM     14  C   LIG    1       -4.534  -3.253   0.779  0.00  0.00    +0.260 C 
BRANCH  14  15
ATOM     15  O   LIG    1       -4.765  -1.844   0.834  0.00  0.00    -0.520 OA
ATOM     16  H   LIG    1       -4.320  -1.401   1.569  0.00  0.00    +0.370 HD
ENDBRANCH  14  15
BRANCH  14  17
ATOM     17  C   LIG    1       -5.037  -3.903   2.070  0.00  0.00    +0.150 C 
BRANCH  17  18
ATOM     18  O   LIG    1       -6.456  -3.756   2.155  0.00  0.00    -0.560 OA
ATOM     19  H   LIG    1       -6.845  -4.146   2.950  0.00  0.00    +0.380 HD
ENDBRANCH  17  18
ENDBRANCH  14  17
ENDBRANCH   4  14
TORSDOF 6
ENDMDL
MODEL      422
REMARK  Name = ZINC000004159924
REMARK                            x       y       z     vdW  Elec       q    Type
REMARK                         _______ _______ _______ _____ _____    ______ ____
ROOT
ATOM      1  C   LIG    1       -0.019   1.526   0.010  0.00  0.00    +0.070 C 
ATOM      2  C   LIG    1        0.002  -0.004   0.002  0.00  0.00    +0.250 C 
ATOM      3  O   LIG    1        0.714  -0.480  -1.175  0.00  0.00    -0.350 OA
ATOM      4  C   LIG    1        1.689  -1.331  -0.675  0.00  0.00    +0.280 C 
ATOM      5  O   LIG    1        2.946  -1.699  -1.138  0.00  0.00    -0.340 OA
ATOM      6  C   LIG    1        3.570  -2.362   0.003  0.00  0.00    +0.130 C 
ATOM      7  C   LIG    1        2.915  -1.763   1.281  0.00  0.00    +0.190 C 
ATOM      8  C   LIG    1        2.035  -0.654   0.704  0.00  0.00    +0.110 C 
ATOM      9  C   LIG    1       -1.431  -0.541  -0.006  0.00  0.00    +0.070 C 
ATOM     10  O   LIG    1        0.706  -0.494   1.180  0.00  0.00    -0.340 OA
ENDROOT
BRANCH   7  11
ATOM     11  O   LIG    1        2.150  -2.754   1.970  0.00  0.00    -0.540 OA
ATOM     12  H   LIG    1        2.671  -3.508   2.279  0.00  0.00    +0.390 HD
ENDBRANCH   7  11
BRANCH   6  13
ATOM     13  C   LIG    1        5.076  -2.089   0.008  0.00  0.00    +0.250 C 
BRANCH  13  14
ATOM     14  O   LIG    1        5.306  -0.690   0.183  0.00  0.00    -0.550 OA
ATOM     15  H   LIG    1        4.918  -0.138  -0.510  0.00  0.00    +0.380 HD
ENDBRANCH  13  14
BRANCH  13  16
ATOM     16  C   LIG    1        5.681  -2.544  -1.321  0.00  0.00    +0.170 C 
BRANCH  16  17
ATOM     17  O   LIG    1        7.101  -2.397  -1.273  0.00  0.00    -0.570 OA
ATOM     18  H   LIG    1        7.553  -2.667  -2.085  0.00  0.00    +0.380 HD
ENDBRANCH  16  17
ENDBRANCH  13  16
ENDBRANCH   6  13
TORSDOF 5
ENDMDL
MODEL      423
REMARK  Name = ZINC000004159922
REMARK                            x       y       z     vdW  Elec       q    Type
REMARK                         _______ _______ _______ _____ _____    ______ ____
ROOT
ATOM      1  C   LIG    1        0.012   0.752   0.596  0.00  0.00    +0.050 C 
ATOM      2  C   LIG    1        0.307  -0.728   0.848  0.00  0.00    +0.250 C 
ATOM      3  O   LIG    1        0.832  -1.326  -0.348  0.00  0.00    -0.350 OA
ATOM      4  C   LIG    1        2.269  -1.260  -0.203  0.00  0.00    +0.360 C 
ATOM      5  O   LIG    1        2.693   0.100  -0.405  0.00  0.00    -0.370 OA
ATOM      6  C   LIG    1        3.813   0.340   0.461  0.00  0.00    +0.100 C 
ATOM      7  C   LIG    1        3.688  -0.628   1.652  0.00  0.00    +0.160 C 
ATOM      8  C   LIG    1        2.439  -1.502   1.331  0.00  0.00    +0.160 C 
ATOM      9  C   LIG    1       -0.981  -1.446   1.257  0.00  0.00    +0.080 C 
ATOM     10  O   LIG    1        1.282  -0.855   1.892  0.00  0.00    -0.330 OA
ENDROOT
BRANCH   7  11
ATOM     11  O   LIG    1        3.504   0.100   2.868  0.00  0.00    -0.510 OA
ATOM     12  H   LIG    1        4.239   0.688   3.089  0.00  0.00    +0.380 HD
ENDBRANCH   7  11
BRANCH   6  13
ATOM     13  C   LIG    1        3.785   1.786   0.958  0.00  0.00    +0.220 C 
BRANCH  13  14
ATOM     14  O   LIG    1        2.624   1.991   1.764  0.00  0.00    -0.530 OA
ATOM     15  H   LIG    1        1.792   1.957   1.272  0.00  0.00    +0.370 HD
ENDBRANCH  13  14
BRANCH  13  16
ATOM     16  C   LIG    1        3.748   2.737  -0.241  0.00  0.00    +0.150 C 
BRANCH  16  17
ATOM     17  O   LIG    1        3.840   4.087   0.218  0.00  0.00    -0.570 OA
ATOM     18  H   LIG    1        3.822   4.745  -0.490  0.00  0.00    +0.380 HD
ENDBRANCH  16  17
ENDBRANCH  13  16
ENDBRANCH   6  13
TORSDOF 5
ENDMDL
MODEL      424
REMARK  Name = ZINC000004653593
REMARK                            x       y       z     vdW  Elec       q    Type
REMARK                         _______ _______ _______ _____ _____    ______ ____
ROOT
ATOM      1  N   LIG    1        1.461  -3.825  -2.510  0.00  0.00    -0.620 N 
ATOM      2  C   LIG    1        2.002  -4.567  -1.536  0.00  0.00    +0.710 C 
ATOM      3  N   LIG    1        1.853  -5.886  -1.711  0.00  0.00    -0.740 N 
ATOM      4  H   LIG    1        2.179  -6.572  -1.109  0.00  0.00    +0.430 HD
ATOM      5  C   LIG    1        1.117  -6.131  -2.960  0.00  0.00    +0.470 C 
ATOM      6  N   LIG    1        2.015  -6.740  -3.951  0.00  0.00    -0.740 N 
ATOM      7  H   LIG    1        2.374  -7.640  -3.905  0.00  0.00    +0.440 HD
ATOM      8  C   LIG    1        2.260  -5.858  -4.928  0.00  0.00    +0.710 C 
ATOM      9  N   LIG    1        1.647  -4.680  -4.763  0.00  0.00    -0.740 N 
ATOM     10  H   LIG    1        1.710  -3.925  -5.370  0.00  0.00    +0.430 HD
ATOM     11  O   LIG    1        2.976  -6.106  -5.880  0.00  0.00    -0.570 OA
ATOM     12  O   LIG    1        2.576  -4.087  -0.578  0.00  0.00    -0.550 OA
ATOM     13  C   LIG    1        0.841  -4.708  -3.508  0.00  0.00    +0.480 C 
ENDROOT
BRANCH   1  14
ATOM     14  C   LIG    1        1.479  -2.361  -2.569  0.00  0.00    +0.320 C 
ATOM     15  C   LIG    1        2.927  -1.869  -2.602  0.00  0.00    +0.090 C 
BRANCH  14  16
ATOM     16  C   LIG    1        0.786  -1.801  -1.353  0.00  0.00    +0.450 C 
ATOM     17  O   LIG    1        0.325  -2.548  -0.523  0.00  0.00    -0.480 OA
BRANCH  16  18
ATOM     18  O   LIG    1        0.682  -0.472  -1.193  0.00  0.00    -0.360 OA
BRANCH  18  20
ATOM     19  C   LIG    1       -0.019   1.526   0.010  0.00  0.00    +0.070 C 
ATOM     20  C   LIG    1        0.002  -0.004   0.002  0.00  0.00    +0.200 C 
ENDBRANCH  18  20
ENDBRANCH  16  18
ENDBRANCH  14  16
ENDBRANCH   1  14
TORSDOF 4
ENDMDL
MODEL      425
REMARK  Name = ZINC000585162587
REMARK                            x       y       z     vdW  Elec       q    Type
REMARK                         _______ _______ _______ _____ _____    ______ ____
ROOT
ATOM      1  C   LIG    1        2.330  -5.820   3.781  0.00  0.00    +0.440 C 
ATOM      2  O   LIG    1        1.272  -6.296   4.615  0.00  0.00    -0.360 OA
ATOM      3  C   LIG    1        1.248  -5.711   5.918  0.00  0.00    +0.200 C 
ATOM      4  C   LIG    1        2.551  -6.043   6.650  0.00  0.00    +0.130 C 
ATOM      5  C   LIG    1        3.735  -5.532   5.824  0.00  0.00    +0.190 C 
ATOM      6  C   LIG    1        3.677  -6.157   4.426  0.00  0.00    +0.180 C 
ENDROOT
BRANCH   1   8
ATOM      7  C   LIG    1        1.573  -3.856   2.554  0.00  0.00    +0.660 C 
ATOM      8  N   LIG    1        2.213  -4.368   3.624  0.00  0.00    -0.720 N 
ATOM      9  H   LIG    1        2.596  -3.776   4.290  0.00  0.00    +0.410 HD
ATOM     10  O   LIG    1        1.093  -4.598   1.720  0.00  0.00    -0.560 OA
BRANCH   7  11
ATOM     11  O   LIG    1        1.465  -2.522   2.409  0.00  0.00    -0.370 OA
BRANCH  11  12
ATOM     12  C   LIG    1        0.763  -2.041   1.233  0.00  0.00    +0.230 C 
BRANCH  12  13
ATOM     13  C   LIG    1        0.742  -0.511   1.242  0.00  0.00    +0.040 C 
BRANCH  13  15
ATOM     14  C   LIG    1       -0.019   1.526   0.010  0.00  0.00    +0.030 C 
ATOM     15  C   LIG    1        0.002  -0.004   0.002  0.00  0.00    +0.020 C 
ENDBRANCH  13  15
ENDBRANCH  12  13
ENDBRANCH  11  12
ENDBRANCH   7  11
ENDBRANCH   1   8
BRANCH   5  16
ATOM     16  O   LIG    1        4.959  -5.900   6.463  0.00  0.00    -0.550 OA
ATOM     17  H   LIG    1        5.059  -5.542   7.356  0.00  0.00    +0.390 HD
ENDBRANCH   5  16
BRANCH   4  18
ATOM     18  O   LIG    1        2.554  -5.412   7.932  0.00  0.00    -0.560 OA
ATOM     19  H   LIG    1        1.827  -5.687   8.507  0.00  0.00    +0.390 HD
ENDBRANCH   4  18
BRANCH   6  20
ATOM     20  O   LIG    1        3.817  -7.575   4.531  0.00  0.00    -0.530 OA
ATOM     21  H   LIG    1        3.789  -8.037   3.682  0.00  0.00    +0.390 HD
ENDBRANCH   6  20
TORSDOF 8
ENDMDL
MODEL      426
REMARK  Name = ZINC000004403267
REMARK                            x       y       z     vdW  Elec       q    Type
REMARK                         _______ _______ _______ _____ _____    ______ ____
ROOT
ATOM      1  C   LIG    1        0.002  -0.004   0.002  0.00  0.00    +0.260 C 
ENDROOT
BRANCH   1   2
ATOM      2  C   LIG    1        0.742  -0.511   1.242  0.00  0.00    +0.150 C 
ATOM      3  O   LIG    1        2.114  -0.110   1.178  0.00  0.00    -0.390 OA
ATOM      4  C   LIG    1        2.881  -0.496   2.321  0.00  0.00    +0.400 C 
ATOM      5  O   LIG    1        2.303   0.075   3.497  0.00  0.00    -0.390 OA
ATOM      6  C   LIG    1        0.944  -0.314   3.719  0.00  0.00    +0.180 C 
ATOM      7  C   LIG    1        0.105   0.088   2.500  0.00  0.00    +0.120 C 
BRANCH   7   8
ATOM      8  O   LIG    1        0.073   1.512   2.389  0.00  0.00    -0.530 OA
ATOM      9  H   LIG    1       -0.310   1.958   3.157  0.00  0.00    +0.370 HD
ENDBRANCH   7   8
ENDBRANCH   1   2
BRANCH   1  10
ATOM     10  C   LIG    1        0.718  -0.497  -1.257  0.00  0.00    +0.150 C 
ATOM     11  O   LIG    1        0.734  -1.928  -1.269  0.00  0.00    -0.380 OA
ATOM     12  C   LIG    1        1.341  -2.488  -2.436  0.00  0.00    +0.400 C 
ATOM     13  O   LIG    1        0.642  -2.038  -3.599  0.00  0.00    -0.390 OA
ATOM     14  C   LIG    1        0.619  -0.615  -3.745  0.00  0.00    +0.180 C 
ATOM     15  C   LIG    1       -0.025   0.005  -2.500  0.00  0.00    +0.130 C 
BRANCH  15  16
ATOM     16  O   LIG    1       -1.397  -0.385  -2.426  0.00  0.00    -0.540 OA
ATOM     17  H   LIG    1       -1.926  -0.108  -3.188  0.00  0.00    +0.380 HD
ENDBRANCH  15  16
ENDBRANCH   1  10
BRANCH   1  18
ATOM     18  O   LIG    1       -0.017   1.425   0.010  0.00  0.00    -0.520 OA
ATOM     19  H   LIG    1        0.861   1.830   0.004  0.00  0.00    +0.380 HD
ENDBRANCH   1  18
TORSDOF 5
ENDMDL
MODEL      427
REMARK  Name = ZINC000585162589
REMARK                            x       y       z     vdW  Elec       q    Type
REMARK                         _______ _______ _______ _____ _____    ______ ____
ROOT
ATOM      1  C   LIG    1        2.330  -5.820   3.781  0.00  0.00    +0.400 C 
ATOM      2  O   LIG    1        1.272  -6.296   4.615  0.00  0.00    -0.380 OA
ATOM      3  C   LIG    1        1.277  -7.711   4.814  0.00  0.00    +0.220 C 
ATOM      4  C   LIG    1        2.582  -8.124   5.501  0.00  0.00    +0.110 C 
ATOM      5  C   LIG    1        3.767  -7.670   4.643  0.00  0.00    +0.210 C 
ATOM      6  C   LIG    1        3.677  -6.157   4.426  0.00  0.00    +0.160 C 
ENDROOT
BRANCH   1   8
ATOM      7  C   LIG    1        1.573  -3.856   2.554  0.00  0.00    +0.660 C 
ATOM      8  N   LIG    1        2.213  -4.368   3.624  0.00  0.00    -0.690 N 
ATOM      9  H   LIG    1        2.596  -3.776   4.290  0.00  0.00    +0.410 HD
ATOM     10  O   LIG    1        1.093  -4.598   1.720  0.00  0.00    -0.560 OA
BRANCH   7  11
ATOM     11  O   LIG    1        1.465  -2.522   2.409  0.00  0.00    -0.370 OA
BRANCH  11  12
ATOM     12  C   LIG    1        0.763  -2.041   1.233  0.00  0.00    +0.230 C 
BRANCH  12  13
ATOM     13  C   LIG    1        0.742  -0.511   1.242  0.00  0.00    +0.040 C 
BRANCH  13  15
ATOM     14  C   LIG    1       -0.019   1.526   0.010  0.00  0.00    +0.030 C 
ATOM     15  C   LIG    1        0.002  -0.004   0.002  0.00  0.00    +0.020 C 
ENDBRANCH  13  15
ENDBRANCH  12  13
ENDBRANCH  11  12
ENDBRANCH   7  11
ENDBRANCH   1   8
BRANCH   5  16
ATOM     16  O   LIG    1        4.990  -7.988   5.310  0.00  0.00    -0.540 OA
ATOM     17  H   LIG    1        5.109  -8.932   5.485  0.00  0.00    +0.380 HD
ENDBRANCH   5  16
BRANCH   4  18
ATOM     18  O   LIG    1        2.659  -7.508   6.788  0.00  0.00    -0.520 OA
ATOM     19  H   LIG    1        1.936  -7.748   7.383  0.00  0.00    +0.370 HD
ENDBRANCH   4  18
BRANCH   6  20
ATOM     20  O   LIG    1        3.786  -5.487   5.684  0.00  0.00    -0.510 OA
ATOM     21  H   LIG    1        3.737  -4.523   5.622  0.00  0.00    +0.370 HD
ENDBRANCH   6  20
TORSDOF 8
ENDMDL
MODEL      428
REMARK  Name = ZINC000585162588
REMARK                            x       y       z     vdW  Elec       q    Type
REMARK                         _______ _______ _______ _____ _____    ______ ____
ROOT
ATOM      1  C   LIG    1        2.330  -5.820   3.781  0.00  0.00    +0.400 C 
ATOM      2  O   LIG    1        1.272  -6.296   4.615  0.00  0.00    -0.380 OA
ATOM      3  C   LIG    1        1.277  -7.711   4.814  0.00  0.00    +0.220 C 
ATOM      4  C   LIG    1        2.582  -8.124   5.501  0.00  0.00    +0.120 C 
ATOM      5  C   LIG    1        3.767  -7.670   4.643  0.00  0.00    +0.210 C 
ATOM      6  C   LIG    1        3.677  -6.157   4.426  0.00  0.00    +0.170 C 
ENDROOT
BRANCH   1   8
ATOM      7  C   LIG    1        1.573  -3.856   2.554  0.00  0.00    +0.660 C 
ATOM      8  N   LIG    1        2.213  -4.368   3.624  0.00  0.00    -0.690 N 
ATOM      9  H   LIG    1        2.596  -3.776   4.290  0.00  0.00    +0.410 HD
ATOM     10  O   LIG    1        1.093  -4.598   1.720  0.00  0.00    -0.560 OA
BRANCH   7  11
ATOM     11  O   LIG    1        1.465  -2.522   2.409  0.00  0.00    -0.370 OA
BRANCH  11  12
ATOM     12  C   LIG    1        0.763  -2.041   1.233  0.00  0.00    +0.230 C 
BRANCH  12  13
ATOM     13  C   LIG    1        0.742  -0.511   1.242  0.00  0.00    +0.040 C 
BRANCH  13  15
ATOM     14  C   LIG    1       -0.019   1.526   0.010  0.00  0.00    +0.030 C 
ATOM     15  C   LIG    1        0.002  -0.004   0.002  0.00  0.00    +0.020 C 
ENDBRANCH  13  15
ENDBRANCH  12  13
ENDBRANCH  11  12
ENDBRANCH   7  11
ENDBRANCH   1   8
BRANCH   5  16
ATOM     16  O   LIG    1        4.990  -7.988   5.310  0.00  0.00    -0.540 OA
ATOM     17  H   LIG    1        5.109  -8.932   5.485  0.00  0.00    +0.380 HD
ENDBRANCH   5  16
BRANCH   4  18
ATOM     18  O   LIG    1        2.659  -7.508   6.788  0.00  0.00    -0.540 OA
ATOM     19  H   LIG    1        1.936  -7.748   7.383  0.00  0.00    +0.380 HD
ENDBRANCH   4  18
BRANCH   6  20
ATOM     20  O   LIG    1        4.738  -5.733   3.568  0.00  0.00    -0.540 OA
ATOM     21  H   LIG    1        4.743  -4.783   3.387  0.00  0.00    +0.380 HD
ENDBRANCH   6  20
TORSDOF 8
ENDMDL
MODEL      429
REMARK  Name = ZINC000005725696
REMARK                            x       y       z     vdW  Elec       q    Type
REMARK                         _______ _______ _______ _____ _____    ______ ____
ROOT
ATOM      1  C   LIG    1       -1.433  -0.534   0.013  0.00  0.00    -0.040 C 
ATOM      2  C   LIG    1       -2.133  -0.124  -1.280  0.00  0.00    +0.220 C 
ATOM      3  O   LIG    1       -3.329  -0.888  -1.445  0.00  0.00    -0.350 OA
ATOM      4  C   LIG    1       -4.418  -0.447  -0.633  0.00  0.00    +0.190 C 
ATOM      5  C   LIG    1       -4.220  -0.927   0.802  0.00  0.00    +0.100 C 
ATOM      6  C   LIG    1       -3.783  -2.389   0.814  0.00  0.00    +0.160 C 
ATOM      7  C   LIG    1       -2.330  -2.491   1.284  0.00  0.00    +0.160 C 
ATOM      8  C   LIG    1       -1.410  -2.054   0.138  0.00  0.00    +0.230 C 
ENDROOT
BRANCH   7   9
ATOM      9  O   LIG    1       -2.038  -3.841   1.648  0.00  0.00    -0.560 OA
ATOM     10  H   LIG    1       -2.593  -4.185   2.361  0.00  0.00    +0.380 HD
ENDBRANCH   7   9
BRANCH   6  11
ATOM     11  O   LIG    1       -3.893  -2.929  -0.505  0.00  0.00    -0.530 OA
ATOM     12  H   LIG    1       -4.789  -2.902  -0.868  0.00  0.00    +0.380 HD
ENDBRANCH   6  11
BRANCH   5  13
ATOM     13  O   LIG    1       -5.450  -0.799   1.518  0.00  0.00    -0.560 OA
ATOM     14  H   LIG    1       -5.787   0.106   1.563  0.00  0.00    +0.380 HD
ENDBRANCH   5  13
BRANCH   8  15
ATOM     15  O   LIG    1       -0.075  -2.486   0.410  0.00  0.00    -0.560 OA
ATOM     16  H   LIG    1        0.017  -3.444   0.501  0.00  0.00    +0.390 HD
ENDBRANCH   8  15
BRANCH   1  17
ATOM     17  C   LIG    1        0.002  -0.004   0.002  0.00  0.00    +0.200 C 
BRANCH  17  18
ATOM     18  O   LIG    1       -0.017   1.425   0.010  0.00  0.00    -0.580 OA
ATOM     19  H   LIG    1        0.861   1.830   0.004  0.00  0.00    +0.380 HD
ENDBRANCH  17  18
ENDBRANCH   1  17
TORSDOF 6
ENDMDL
MODEL      430
REMARK  Name = ZINC000004653595
REMARK                            x       y       z     vdW  Elec       q    Type
REMARK                         _______ _______ _______ _____ _____    ______ ____
ROOT
ATOM      1  N   LIG    1        1.461  -3.825  -2.510  0.00  0.00    -0.630 N 
ATOM      2  C   LIG    1        1.998  -4.620  -1.538  0.00  0.00    +0.740 C 
ATOM      3  N   LIG    1        1.526  -5.910  -1.609  0.00  0.00    -0.720 N 
ATOM      4  H   LIG    1        1.899  -6.707  -1.200  0.00  0.00    +0.430 HD
ATOM      5  C   LIG    1        0.378  -5.804  -2.412  0.00  0.00    +0.380 C 
ATOM      6  N   LIG    1       -0.519  -6.559  -3.180  0.00  0.00    -0.720 N 
ATOM      7  H   LIG    1       -0.672  -7.516  -3.141  0.00  0.00    +0.430 HD
ATOM      8  C   LIG    1       -1.131  -5.644  -3.998  0.00  0.00    +0.730 C 
ATOM      9  N   LIG    1       -0.477  -4.445  -4.009  0.00  0.00    -0.740 N 
ATOM     10  H   LIG    1       -0.821  -3.592  -4.315  0.00  0.00    +0.430 HD
ATOM     11  O   LIG    1       -2.139  -5.873  -4.639  0.00  0.00    -0.530 OA
ATOM     12  O   LIG    1        2.799  -4.233  -0.708  0.00  0.00    -0.520 OA
ATOM     13  C   LIG    1        0.858  -4.743  -3.478  0.00  0.00    +0.440 C 
ENDROOT
BRANCH   1  14
ATOM     14  C   LIG    1        1.479  -2.361  -2.569  0.00  0.00    +0.320 C 
ATOM     15  C   LIG    1        2.927  -1.869  -2.602  0.00  0.00    +0.080 C 
BRANCH  14  16
ATOM     16  C   LIG    1        0.786  -1.801  -1.353  0.00  0.00    +0.450 C 
ATOM     17  O   LIG    1        0.325  -2.548  -0.523  0.00  0.00    -0.490 OA
BRANCH  16  18
ATOM     18  O   LIG    1        0.682  -0.472  -1.193  0.00  0.00    -0.350 OA
BRANCH  18  20
ATOM     19  C   LIG    1       -0.019   1.526   0.010  0.00  0.00    +0.070 C 
ATOM     20  C   LIG    1        0.002  -0.004   0.002  0.00  0.00    +0.200 C 
ENDBRANCH  18  20
ENDBRANCH  16  18
ENDBRANCH  14  16
ENDBRANCH   1  14
TORSDOF 4
ENDMDL
MODEL      431
REMARK  Name = ZINC000005613303
REMARK                            x       y       z     vdW  Elec       q    Type
REMARK                         _______ _______ _______ _____ _____    ______ ____
ROOT
ATOM      1  C   LIG    1       -1.136  -2.159   0.001  0.00  0.00    +0.400 C 
ATOM      2  O   LIG    1       -1.260  -2.630  -1.342  0.00  0.00    -0.340 OA
ATOM      3  C   LIG    1       -2.452  -2.200  -2.003  0.00  0.00    +0.180 C 
ATOM      4  C   LIG    1       -3.673  -2.733  -1.248  0.00  0.00    +0.160 C 
ATOM      5  C   LIG    1       -3.623  -2.239   0.201  0.00  0.00    +0.150 C 
ATOM      6  C   LIG    1       -2.304  -2.690   0.837  0.00  0.00    +0.120 C 
ENDROOT
BRANCH   1   9
ATOM      7  C   LIG    1       -0.018   1.503   0.010  0.00  0.00    +0.100 C 
ATOM      8  C   LIG    1        0.002  -0.004   0.002  0.00  0.00    +0.520 C 
ATOM      9  N   LIG    1       -1.156  -0.694   0.009  0.00  0.00    -0.750 N 
ATOM     10  H   LIG    1       -2.002  -0.220   0.020  0.00  0.00    +0.400 HD
ATOM     11  O   LIG    1        1.060  -0.596  -0.011  0.00  0.00    -0.530 OA
ENDBRANCH   1   9
BRANCH   5  12
ATOM     12  O   LIG    1       -4.720  -2.790   0.932  0.00  0.00    -0.550 OA
ATOM     13  H   LIG    1       -4.751  -2.518   1.860  0.00  0.00    +0.390 HD
ENDBRANCH   5  12
BRANCH   4  14
ATOM     14  O   LIG    1       -3.661  -4.162  -1.268  0.00  0.00    -0.530 OA
ATOM     15  H   LIG    1       -4.407  -4.568  -0.807  0.00  0.00    +0.380 HD
ENDBRANCH   4  14
BRANCH   6  16
ATOM     16  O   LIG    1       -2.255  -4.117   0.875  0.00  0.00    -0.520 OA
ATOM     17  H   LIG    1       -1.445  -4.473   1.266  0.00  0.00    +0.380 HD
ENDBRANCH   6  16
BRANCH   3  18
ATOM     18  C   LIG    1       -2.463  -2.737  -3.436  0.00  0.00    +0.220 C 
BRANCH  18  19
ATOM     19  O   LIG    1       -1.390  -2.150  -4.173  0.00  0.00    -0.570 OA
ATOM     20  H   LIG    1       -1.336  -2.446  -5.092  0.00  0.00    +0.380 HD
ENDBRANCH  18  19
ENDBRANCH   3  18
TORSDOF 6
ENDMDL
MODEL      432
REMARK  Name = ZINC000005725694
REMARK                            x       y       z     vdW  Elec       q    Type
REMARK                         _______ _______ _______ _____ _____    ______ ____
ROOT
ATOM      1  C   LIG    1       -1.433  -0.534   0.013  0.00  0.00    -0.030 C 
ATOM      2  C   LIG    1       -2.133  -0.124  -1.280  0.00  0.00    +0.220 C 
ATOM      3  O   LIG    1       -3.329  -0.888  -1.445  0.00  0.00    -0.320 OA
ATOM      4  C   LIG    1       -4.418  -0.447  -0.633  0.00  0.00    +0.180 C 
ATOM      5  C   LIG    1       -4.220  -0.927   0.802  0.00  0.00    +0.090 C 
ATOM      6  C   LIG    1       -3.783  -2.389   0.814  0.00  0.00    +0.150 C 
ATOM      7  C   LIG    1       -2.330  -2.491   1.284  0.00  0.00    +0.150 C 
ATOM      8  C   LIG    1       -1.410  -2.054   0.138  0.00  0.00    +0.190 C 
ENDROOT
BRANCH   7   9
ATOM      9  O   LIG    1       -2.038  -3.841   1.648  0.00  0.00    -0.560 OA
ATOM     10  H   LIG    1       -2.593  -4.185   2.361  0.00  0.00    +0.380 HD
ENDBRANCH   7   9
BRANCH   6  11
ATOM     11  O   LIG    1       -3.893  -2.929  -0.505  0.00  0.00    -0.500 OA
ATOM     12  H   LIG    1       -4.789  -2.902  -0.868  0.00  0.00    +0.360 HD
ENDBRANCH   6  11
BRANCH   5  13
ATOM     13  O   LIG    1       -5.450  -0.799   1.518  0.00  0.00    -0.560 OA
ATOM     14  H   LIG    1       -5.787   0.106   1.563  0.00  0.00    +0.380 HD
ENDBRANCH   5  13
BRANCH   8  15
ATOM     15  O   LIG    1       -1.861  -2.642  -1.084  0.00  0.00    -0.510 OA
ATOM     16  H   LIG    1       -1.869  -3.609  -1.076  0.00  0.00    +0.380 HD
ENDBRANCH   8  15
BRANCH   1  17
ATOM     17  C   LIG    1        0.002  -0.004   0.002  0.00  0.00    +0.190 C 
BRANCH  17  18
ATOM     18  O   LIG    1       -0.017   1.425   0.010  0.00  0.00    -0.570 OA
ATOM     19  H   LIG    1        0.861   1.830   0.004  0.00  0.00    +0.380 HD
ENDBRANCH  17  18
ENDBRANCH   1  17
TORSDOF 6
ENDMDL
MODEL      433
REMARK  Name = ZINC000005725724
REMARK                            x       y       z     vdW  Elec       q    Type
REMARK                         _______ _______ _______ _____ _____    ______ ____
ROOT
ATOM      1  C   LIG    1       -1.437  -0.535   0.013  0.00  0.00    +0.010 C 
ATOM      2  C   LIG    1       -2.106  -0.125   1.321  0.00  0.00    +0.220 C 
ATOM      3  O   LIG    1       -3.056  -1.106   1.718  0.00  0.00    -0.380 OA
ATOM      4  C   LIG    1       -4.389  -0.882   1.276  0.00  0.00    +0.190 C 
ATOM      5  C   LIG    1       -4.582  -1.424  -0.137  0.00  0.00    +0.110 C 
ATOM      6  C   LIG    1       -3.816  -2.717  -0.338  0.00  0.00    +0.170 C 
ATOM      7  C   LIG    1       -2.487  -2.563  -1.059  0.00  0.00    +0.160 C 
ATOM      8  C   LIG    1       -1.409  -2.053  -0.110  0.00  0.00    +0.210 C 
ENDROOT
BRANCH   7   9
ATOM      9  O   LIG    1       -2.583  -1.757  -2.226  0.00  0.00    -0.530 OA
ATOM     10  H   LIG    1       -3.195  -2.100  -2.891  0.00  0.00    +0.380 HD
ENDBRANCH   7   9
BRANCH   6  11
ATOM     11  O   LIG    1       -4.640  -3.638  -1.070  0.00  0.00    -0.570 OA
ATOM     12  H   LIG    1       -5.471  -3.859  -0.628  0.00  0.00    +0.380 HD
ENDBRANCH   6  11
BRANCH   5  13
ATOM     13  O   LIG    1       -4.234  -0.424  -1.087  0.00  0.00    -0.530 OA
ATOM     14  H   LIG    1       -4.761   0.383  -1.019  0.00  0.00    +0.370 HD
ENDBRANCH   5  13
BRANCH   8  15
ATOM     15  O   LIG    1       -0.123  -2.456  -0.600  0.00  0.00    -0.560 OA
ATOM     16  H   LIG    1       -0.014  -3.414  -0.674  0.00  0.00    +0.380 HD
ENDBRANCH   8  15
BRANCH   1  17
ATOM     17  C   LIG    1        0.002  -0.004   0.002  0.00  0.00    +0.190 C 
BRANCH  17  18
ATOM     18  O   LIG    1       -0.017   1.425   0.010  0.00  0.00    -0.580 OA
ATOM     19  H   LIG    1        0.861   1.830   0.004  0.00  0.00    +0.380 HD
ENDBRANCH  17  18
ENDBRANCH   1  17
TORSDOF 6
ENDMDL
MODEL      434
REMARK  Name = ZINC000031771706
REMARK                            x       y       z     vdW  Elec       q    Type
REMARK                         _______ _______ _______ _____ _____    ______ ____
ROOT
ATOM      1  C   LIG    1       -0.350   0.029  -0.001  0.00  0.00    +0.110 C 
ATOM      2  C   LIG    1        0.590  -0.476  -1.098  0.00  0.00    +0.190 C 
ATOM      3  O   LIG    1        0.586  -1.905  -1.106  0.00  0.00    -0.380 OA
ATOM      4  C   LIG    1       -0.692  -2.484  -1.378  0.00  0.00    +0.310 C 
ATOM      5  C   LIG    1       -1.684  -2.059  -0.292  0.00  0.00    +0.190 C 
ATOM      6  C   LIG    1       -1.756  -0.530  -0.245  0.00  0.00    +0.160 C 
ENDROOT
BRANCH   1   7
ATOM      7  O   LIG    1       -0.393   1.457  -0.028  0.00  0.00    -0.560 OA
ATOM      8  H   LIG    1        0.465   1.879   0.118  0.00  0.00    +0.390 HD
ENDBRANCH   1   7
BRANCH   5   9
ATOM      9  O   LIG    1       -1.247  -2.557   0.974  0.00  0.00    -0.540 OA
ATOM     10  H   LIG    1       -1.830  -2.325   1.710  0.00  0.00    +0.390 HD
ENDBRANCH   5   9
BRANCH   4  11
ATOM     11  O   LIG    1       -1.158  -2.033  -2.652  0.00  0.00    -0.540 OA
ATOM     12  H   LIG    1       -0.534  -2.184  -3.375  0.00  0.00    +0.390 HD
ENDBRANCH   4  11
BRANCH   6  13
ATOM     13  O   LIG    1       -2.257  -0.036  -1.488  0.00  0.00    -0.530 OA
ATOM     14  H   LIG    1       -2.329   0.928  -1.528  0.00  0.00    +0.380 HD
ENDBRANCH   6  13
BRANCH   4  15
ATOM     15  C   LIG    1       -0.570  -4.009  -1.391  0.00  0.00    +0.200 C 
BRANCH  15  16
ATOM     16  N   LIG    1        0.256  -4.425  -2.532  0.00  0.00    -0.540 NA
ATOM     17  C   LIG    1        0.175  -5.878  -2.739  0.00  0.00    +0.150 C 
ATOM     18  C   LIG    1        1.001  -6.259  -3.971  0.00  0.00    +0.220 C 
ATOM     19  O   LIG    1        2.347  -5.812  -3.793  0.00  0.00    -0.390 OA
ATOM     20  C   LIG    1        2.463  -4.401  -3.590  0.00  0.00    +0.220 C 
ATOM     21  C   LIG    1        1.652  -4.001  -2.354  0.00  0.00    +0.150 C 
ENDBRANCH  15  16
ENDBRANCH   4  15
TORSDOF 6
ENDMDL
MODEL      435
REMARK  Name = ZINC000225590477
REMARK                            x       y       z     vdW  Elec       q    Type
REMARK                         _______ _______ _______ _____ _____    ______ ____
ROOT
ATOM      1  O   LIG    1        0.002  -0.004   0.002  0.00  0.00    -0.930 OA
ATOM      2  S   LIG    1       -0.017   1.417   0.010  0.00  0.00    +2.390 S 
ATOM      3  C   LIG    1       -0.474   2.004   1.677  0.00  0.00    -0.300 C 
ATOM      4  C   LIG    1        0.872   2.282   2.378  0.00  0.00    +0.020 C 
ATOM      5  C   LIG    1        0.931   3.724   2.930  0.00  0.00    +0.020 C 
ATOM      6  C   LIG    1        1.316   4.156   1.502  0.00  0.00    -0.010 C 
ATOM      7  C   LIG    1        1.909   2.730   1.343  0.00  0.00    +0.030 C 
ATOM      8  O   LIG    1       -0.780   2.118  -0.963  0.00  0.00    -0.940 OA
ATOM      9  C   LIG    1        1.698   2.043  -0.003  0.00  0.00    -0.310 C 
ENDROOT
BRANCH   6  10
ATOM     10  C   LIG    1        2.362   5.272   1.458  0.00  0.00    +0.190 C 
BRANCH  10  11
ATOM     11  O   LIG    1        1.712   6.539   1.586  0.00  0.00    -0.560 OA
ATOM     12  H   LIG    1        2.316   7.294   1.566  0.00  0.00    +0.380 HD
ENDBRANCH  10  11
ENDBRANCH   6  10
BRANCH   5  13
ATOM     13  C   LIG    1       -0.425   4.261   3.392  0.00  0.00    +0.180 C 
BRANCH  13  14
ATOM     14  O   LIG    1       -0.248   5.547   3.990  0.00  0.00    -0.560 OA
ATOM     15  H   LIG    1       -1.069   5.949   4.307  0.00  0.00    +0.380 HD
ENDBRANCH  13  14
ENDBRANCH   5  13
TORSDOF 4
ENDMDL
MODEL      436
REMARK  Name = ZINC000008627921
REMARK                            x       y       z     vdW  Elec       q    Type
REMARK                         _______ _______ _______ _____ _____    ______ ____
ROOT
ATOM      1  C   LIG    1        0.002  -0.004   0.002  0.00  0.00    +0.630 A 
ATOM      2  N   LIG    1       -1.139  -0.678   0.004  0.00  0.00    -0.640 NA
ATOM      3  C   LIG    1       -1.126  -2.014  -0.004  0.00  0.00    +0.660 A 
ATOM      4  N   LIG    1        0.054  -2.668  -0.013  0.00  0.00    -0.550 N 
ATOM      5  C   LIG    1        1.207  -1.963  -0.014  0.00  0.00    +0.670 A 
ATOM      6  O   LIG    1       -2.173  -2.638  -0.002  0.00  0.00    -0.530 OA
ATOM      7  N   LIG    1        1.174  -0.654  -0.013  0.00  0.00    -0.600 NA
ENDROOT
BRANCH   4   8
ATOM      8  C1* LIG    1        0.085  -4.133  -0.021  0.00  0.00    +0.420 C 
ATOM      9  C2* LIG    1        0.736  -4.649  -1.329  0.00  0.00    +0.010 C 
ATOM     10  C3* LIG    1        1.247  -6.043  -0.874  0.00  0.00    +0.180 C 
ATOM     11  C4* LIG    1        1.637  -5.785   0.598  0.00  0.00    +0.200 C 
ATOM     12  O4* LIG    1        0.926  -4.620   1.037  0.00  0.00    -0.360 OA
BRANCH  10  13
ATOM     13  O3* LIG    1        0.207  -7.020  -0.964  0.00  0.00    -0.550 OA
ATOM     14  H3* LIG    1       -0.130  -7.153  -1.861  0.00  0.00    +0.390 HD
ENDBRANCH  10  13
BRANCH  11  15
ATOM     15  C5* LIG    1        1.243  -6.987   1.458  0.00  0.00    +0.200 C 
BRANCH  15  16
ATOM     16  O5* LIG    1        1.711  -6.791   2.794  0.00  0.00    -0.570 OA
ATOM     17  H5* LIG    1        1.497  -7.516   3.396  0.00  0.00    +0.380 HD
ENDBRANCH  15  16
ENDBRANCH  11  15
ENDBRANCH   4   8
BRANCH   1  18
ATOM     18  N   LIG    1       -0.017   1.368   0.010  0.00  0.00    -0.790 N 
ATOM     19  H   LIG    1       -0.863   1.842   0.016  0.00  0.00    +0.420 HD
ATOM     20  H   LIG    1        0.817   1.865   0.004  0.00  0.00    +0.420 HD
ENDBRANCH   1  18
TORSDOF 5
ENDMDL
MODEL      437
REMARK  Name = ZINC000004578655
REMARK                            x       y       z     vdW  Elec       q    Type
REMARK                         _______ _______ _______ _____ _____    ______ ____
ROOT
ATOM      1  C   LIG    1       -1.136  -2.159   0.001  0.00  0.00    +0.430 C 
ATOM      2  O   LIG    1       -1.377  -2.631  -1.326  0.00  0.00    -0.350 OA
ATOM      3  C   LIG    1       -2.622  -2.203  -1.881  0.00  0.00    +0.190 C 
ATOM      4  C   LIG    1       -3.772  -2.735  -1.022  0.00  0.00    +0.170 C 
ATOM      5  C   LIG    1       -3.596  -2.240   0.417  0.00  0.00    +0.160 C 
ATOM      6  C   LIG    1       -2.226  -2.689   0.936  0.00  0.00    +0.130 C 
ENDROOT
BRANCH   1  11
ATOM      7  N   LIG    1       -0.016   1.343   0.024  0.00  0.00    -0.860 N 
ATOM      8  H   LIG    1       -0.863   1.817   0.020  0.00  0.00    +0.400 HD
ATOM      9  H   LIG    1        0.817   1.840   0.030  0.00  0.00    +0.420 HD
ATOM     10  C   LIG    1        0.002  -0.004   0.017  0.00  0.00    +0.710 C 
ATOM     11  N   LIG    1       -1.156  -0.694   0.009  0.00  0.00    -0.740 N 
ATOM     12  H   LIG    1       -2.002  -0.220   0.009  0.00  0.00    +0.400 HD
ATOM     13  O   LIG    1        1.063  -0.598   0.017  0.00  0.00    -0.590 OA
ENDBRANCH   1  11
BRANCH   5  14
ATOM     14  O   LIG    1       -3.675  -0.813   0.445  0.00  0.00    -0.560 OA
ATOM     15  H   LIG    1       -3.571  -0.431   1.327  0.00  0.00    +0.400 HD
ENDBRANCH   5  14
BRANCH   4  16
ATOM     16  O   LIG    1       -3.760  -4.164  -1.041  0.00  0.00    -0.540 OA
ATOM     17  H   LIG    1       -4.464  -4.570  -0.516  0.00  0.00    +0.380 HD
ENDBRANCH   4  16
BRANCH   6  18
ATOM     18  O   LIG    1       -2.021  -2.172   2.253  0.00  0.00    -0.560 OA
ATOM     19  H   LIG    1       -1.172  -2.418   2.644  0.00  0.00    +0.390 HD
ENDBRANCH   6  18
BRANCH   3  20
ATOM     20  C   LIG    1       -2.757  -2.742  -3.306  0.00  0.00    +0.220 C 
BRANCH  20  21
ATOM     21  O   LIG    1       -1.752  -2.155  -4.135  0.00  0.00    -0.570 OA
ATOM     22  H   LIG    1       -1.779  -2.452  -5.055  0.00  0.00    +0.380 HD
ENDBRANCH  20  21
ENDBRANCH   3  20
TORSDOF 6
ENDMDL
MODEL      438
REMARK  Name = ZINC000018067619
REMARK                            x       y       z     vdW  Elec       q    Type
REMARK                         _______ _______ _______ _____ _____    ______ ____
ROOT
ATOM      1  C   LIG    1        0.002  -0.004   0.002  0.00  0.00    +0.250 C 
ENDROOT
BRANCH   1   2
ATOM      2  C   LIG    1        0.742  -0.511   1.242  0.00  0.00    +0.130 C 
ATOM      3  O   LIG    1        2.114  -0.110   1.178  0.00  0.00    -0.350 OA
ATOM      4  C   LIG    1        2.881  -0.496   2.321  0.00  0.00    +0.390 C 
ATOM      5  O   LIG    1        2.303   0.075   3.497  0.00  0.00    -0.390 OA
ATOM      6  C   LIG    1        0.944  -0.314   3.719  0.00  0.00    +0.180 C 
ATOM      7  C   LIG    1        0.105   0.088   2.500  0.00  0.00    +0.120 C 
BRANCH   7   8
ATOM      8  O   LIG    1        0.073   1.512   2.389  0.00  0.00    -0.520 OA
ATOM      9  H   LIG    1       -0.310   1.958   3.157  0.00  0.00    +0.370 HD
ENDBRANCH   7   8
ENDBRANCH   1   2
BRANCH   1  10
ATOM     10  C   LIG    1        0.718  -0.497  -1.257  0.00  0.00    +0.130 C 
ATOM     11  O   LIG    1        2.091  -0.097  -1.215  0.00  0.00    -0.350 OA
ATOM     12  C   LIG    1        2.836  -0.471  -2.376  0.00  0.00    +0.390 C 
ATOM     13  O   LIG    1        2.236   0.113  -3.535  0.00  0.00    -0.390 OA
ATOM     14  C   LIG    1        0.873  -0.274  -3.735  0.00  0.00    +0.180 C 
ATOM     15  C   LIG    1        0.057   0.115  -2.497  0.00  0.00    +0.120 C 
BRANCH  15  16
ATOM     16  O   LIG    1        0.027   1.538  -2.369  0.00  0.00    -0.520 OA
ATOM     17  H   LIG    1       -0.370   1.992  -3.125  0.00  0.00    +0.370 HD
ENDBRANCH  15  16
ENDBRANCH   1  10
BRANCH   1  18
ATOM     18  O   LIG    1       -0.017   1.425   0.010  0.00  0.00    -0.510 OA
ATOM     19  H   LIG    1        0.861   1.830   0.004  0.00  0.00    +0.390 HD
ENDBRANCH   1  18
TORSDOF 5
ENDMDL
MODEL      439
REMARK  Name = ZINC000001608768
REMARK                            x       y       z     vdW  Elec       q    Type
REMARK                         _______ _______ _______ _____ _____    ______ ____
ROOT
ATOM      1  N   LIG    1       -0.016   1.344   0.009  0.00  0.00    -0.850 N 
ATOM      2  H   LIG    1       -0.863   1.817   0.016  0.00  0.00    +0.400 HD
ATOM      3  H   LIG    1        0.817   1.840   0.004  0.00  0.00    +0.420 HD
ATOM      4  C   LIG    1        0.002  -0.004   0.002  0.00  0.00    +0.700 C 
ATOM      5  N   LIG    1       -1.156  -0.694   0.009  0.00  0.00    -0.680 N 
ATOM      6  H   LIG    1       -2.002  -0.220   0.020  0.00  0.00    +0.410 HD
ATOM      7  C   LIG    1       -1.137  -2.041   0.002  0.00  0.00    +0.550 C 
ATOM      8  O   LIG    1       -0.077  -2.635  -0.011  0.00  0.00    -0.450 OA
ATOM      9  O   LIG    1        1.063  -0.597  -0.011  0.00  0.00    -0.530 OA
ENDROOT
BRANCH   7  10
ATOM     10  C   LIG    1       -2.406  -2.797   0.010  0.00  0.00    +0.030 C 
ATOM     11  C   LIG    1       -2.387  -4.140   0.003  0.00  0.00    +0.070 C 
BRANCH  11  12
ATOM     12  C   LIG    1       -3.655  -4.895   0.011  0.00  0.00    +0.490 C 
ATOM     13  O   LIG    1       -4.715  -4.302   0.024  0.00  0.00    -0.500 OA
BRANCH  12  14
ATOM     14  O   LIG    1       -3.637  -6.242   0.003  0.00  0.00    -0.340 OA
BRANCH  14  15
ATOM     15  C   LIG    1       -4.921  -6.919   0.012  0.00  0.00    +0.240 C 
BRANCH  15  16
ATOM     16  C   LIG    1       -4.700  -8.433   0.002  0.00  0.00    +0.210 C 
BRANCH  16  17
ATOM     17  O   LIG    1       -4.056  -8.828   1.214  0.00  0.00    -0.570 OA
ATOM     18  H   LIG    1       -3.885  -9.778   1.277  0.00  0.00    +0.390 HD
ENDBRANCH  16  17
ENDBRANCH  15  16
ENDBRANCH  14  15
ENDBRANCH  12  14
ENDBRANCH  11  12
ENDBRANCH   7  10
TORSDOF 6
ENDMDL
MODEL      440
REMARK  Name = ZINC000033413802
REMARK                            x       y       z     vdW  Elec       q    Type
REMARK                         _______ _______ _______ _____ _____    ______ ____
ROOT
ATOM      1  C   LIG    1        3.449  -2.534  -0.026  0.00  0.00    +0.180 C 
ATOM      2  O   LIG    1        3.614  -1.824  -1.265  0.00  0.00    -0.320 OA
ATOM      3  C   LIG    1        5.021  -1.852  -1.583  0.00  0.00    +0.190 C 
ATOM      4  C   LIG    1        5.451  -3.289  -1.193  0.00  0.00    +0.190 C 
ATOM      5  C   LIG    1        4.606  -3.546   0.082  0.00  0.00    +0.150 C 
ENDROOT
BRANCH   4   6
ATOM      6  O   LIG    1        5.117  -4.220  -2.225  0.00  0.00    -0.540 OA
ATOM      7  H   LIG    1        5.366  -5.133  -2.028  0.00  0.00    +0.390 HD
ENDBRANCH   4   6
BRANCH   5   8
ATOM      8  O   LIG    1        5.385  -3.303   1.255  0.00  0.00    -0.540 OA
ATOM      9  H   LIG    1        4.905  -3.448   2.083  0.00  0.00    +0.390 HD
ENDBRANCH   5   8
BRANCH   1  10
ATOM     10  S   LIG    1        1.864  -3.409  -0.024  0.00  0.00    +0.030 S 
BRANCH  10  15
ATOM     11  C   LIG    1        0.002  -0.004   0.002  0.00  0.00    +0.490 A 
ATOM     12  N   LIG    1       -1.055  -0.780   0.002  0.00  0.00    -0.360 NA
ATOM     13  N   LIG    1       -0.590  -2.105  -0.007  0.00  0.00    -0.460 N 
ATOM     14  H   LIG    1       -1.131  -2.910  -0.009  0.00  0.00    +0.440 HD
ATOM     15  C   LIG    1        0.758  -2.038  -0.012  0.00  0.00    +0.280 A 
ATOM     16  N   LIG    1        1.101  -0.766  -0.013  0.00  0.00    -0.550 NA
BRANCH  11  17
ATOM     17  N   LIG    1       -0.017   1.391   0.010  0.00  0.00    -0.820 N 
ATOM     18  H   LIG    1       -0.863   1.865   0.016  0.00  0.00    +0.410 HD
ATOM     19  H   LIG    1        0.817   1.888   0.004  0.00  0.00    +0.420 HD
ENDBRANCH  11  17
ENDBRANCH  10  15
ENDBRANCH   1  10
BRANCH   3  20
ATOM     20  C   LIG    1        5.241  -1.608  -3.078  0.00  0.00    +0.220 C 
BRANCH  20  21
ATOM     21  O   LIG    1        4.849  -0.273  -3.405  0.00  0.00    -0.570 OA
ATOM     22  H   LIG    1        4.961  -0.047  -4.338  0.00  0.00    +0.380 HD
ENDBRANCH  20  21
ENDBRANCH   3  20
TORSDOF 7
ENDMDL
MODEL      441
REMARK  Name = ZINC000077286426
REMARK                            x       y       z     vdW  Elec       q    Type
REMARK                         _______ _______ _______ _____ _____    ______ ____
ROOT
ATOM      1  C1* LIG    1        2.413   1.176  -0.021  0.00  0.00    +0.420 C 
ATOM      2  O4* LIG    1        2.418   0.234  -1.107  0.00  0.00    -0.340 OA
ATOM      3  C4* LIG    1        3.172  -0.915  -0.665  0.00  0.00    +0.150 C 
ATOM      4  C3* LIG    1        2.729  -1.094   0.810  0.00  0.00    +0.140 C 
ATOM      5  C2* LIG    1        2.582   0.375   1.285  0.00  0.00    +0.170 C 
ENDROOT
BRANCH   1  12
ATOM      6  O   LIG    1        0.002  -0.004   0.002  0.00  0.00    -0.500 OA
ATOM      7  C   LIG    1       -0.015   1.217   0.009  0.00  0.00    +0.530 A 
ATOM      8  C   LIG    1       -1.237   1.899   0.030  0.00  0.00    -0.150 A 
ATOM      9  C   LIG    1       -1.236   3.281   0.038  0.00  0.00    +0.220 A 
ATOM     10  C   LIG    1       -0.003   3.963   0.024  0.00  0.00    -0.140 A 
ATOM     11  C   LIG    1        1.151   3.263   0.004  0.00  0.00    +0.340 A 
ATOM     12  N   LIG    1        1.143   1.904   0.001  0.00  0.00    -0.510 N 
BRANCH   9  13
ATOM     13  O   LIG    1       -2.403   3.970   0.059  0.00  0.00    -0.460 OA
ATOM     14  H   LIG    1       -2.292   4.930   0.062  0.00  0.00    +0.400 HD
ENDBRANCH   9  13
ENDBRANCH   1  12
BRANCH   4  15
ATOM     15  O3* LIG    1        1.480  -1.785   0.886  0.00  0.00    -0.520 OA
ATOM     16  H3* LIG    1        1.502  -2.678   0.517  0.00  0.00    +0.380 HD
ENDBRANCH   4  15
BRANCH   5  17
ATOM     17  O2* LIG    1        3.753   0.793   1.988  0.00  0.00    -0.550 OA
ATOM     18  H2* LIG    1        3.936   0.281   2.788  0.00  0.00    +0.390 HD
ENDBRANCH   5  17
BRANCH   3  19
ATOM     19  C5* LIG    1        2.810  -2.149  -1.493  0.00  0.00    +0.210 C 
BRANCH  19  20
ATOM     20  O5* LIG    1        3.243  -1.961  -2.842  0.00  0.00    -0.560 OA
ATOM     21  H5* LIG    1        3.045  -2.706  -3.426  0.00  0.00    +0.380 HD
ENDBRANCH  19  20
ENDBRANCH   3  19
TORSDOF 6
ENDMDL
MODEL      442
REMARK  Name = ZINC000003014560
REMARK                            x       y       z     vdW  Elec       q    Type
REMARK                         _______ _______ _______ _____ _____    ______ ____
ROOT
ATOM      1  C   LIG    1       -2.409  -2.799   0.010  0.00  0.00    +0.150 A 
ATOM      2  N   LIG    1       -3.547  -2.149   0.019  0.00  0.00    -0.330 NA
ATOM      3  C   LIG    1       -4.710  -2.811   0.026  0.00  0.00    +0.120 A 
ATOM      4  N   LIG    1       -5.989  -2.513   0.037  0.00  0.00    -0.260 NA
ATOM      5  O   LIG    1       -6.633  -3.542   0.040  0.00  0.00    +0.390 OA
ATOM      6  N   LIG    1       -5.993  -4.574   0.034  0.00  0.00    -0.340 NA
ATOM      7  C   LIG    1       -4.722  -4.291   0.025  0.00  0.00    +0.220 A 
ATOM      8  N   LIG    1       -3.531  -4.978   0.015  0.00  0.00    -0.580 N 
ATOM      9  H   LIG    1       -3.519  -5.948   0.013  0.00  0.00    +0.440 HD
ATOM     10  C   LIG    1       -2.376  -4.274   0.002  0.00  0.00    +0.530 A 
ATOM     11  O   LIG    1       -1.309  -4.857  -0.007  0.00  0.00    -0.430 OA
ENDROOT
BRANCH   1  18
ATOM     12  N   LIG    1       -0.016   1.344   0.009  0.00  0.00    -0.850 N 
ATOM     13  H   LIG    1       -0.863   1.817   0.016  0.00  0.00    +0.400 HD
ATOM     14  H   LIG    1        0.817   1.840   0.004  0.00  0.00    +0.420 HD
ATOM     15  C   LIG    1        0.002  -0.004   0.002  0.00  0.00    +0.700 C 
ATOM     16  N   LIG    1       -1.156  -0.694   0.009  0.00  0.00    -0.670 N 
ATOM     17  H   LIG    1       -2.002  -0.220   0.020  0.00  0.00    +0.420 HD
ATOM     18  C   LIG    1       -1.137  -2.041   0.002  0.00  0.00    +0.580 C 
ATOM     19  O   LIG    1       -0.077  -2.634  -0.011  0.00  0.00    -0.400 OA
ATOM     20  O   LIG    1        1.063  -0.597  -0.011  0.00  0.00    -0.530 OA
ENDBRANCH   1  18
TORSDOF 1
ENDMDL
MODEL      443
REMARK  Name = ZINC000001664923
REMARK                            x       y       z     vdW  Elec       q    Type
REMARK                         _______ _______ _______ _____ _____    ______ ____
ROOT
ATOM      1  C   LIG    1       -2.198  -4.179   0.001  0.00  0.00    +0.290 C 
ENDROOT
BRANCH   1   2
ATOM      2  O   LIG    1       -2.294  -2.730   0.009  0.00  0.00    -0.360 OA
BRANCH   2   9
ATOM      3  N   LIG    1       -0.016   1.344   0.009  0.00  0.00    -0.850 N 
ATOM      4  H   LIG    1       -0.863   1.817   0.016  0.00  0.00    +0.400 HD
ATOM      5  H   LIG    1        0.817   1.840   0.004  0.00  0.00    +0.430 HD
ATOM      6  C   LIG    1        0.002  -0.004   0.002  0.00  0.00    +0.710 C 
ATOM      7  N   LIG    1       -1.156  -0.694   0.009  0.00  0.00    -0.660 N 
ATOM      8  H   LIG    1       -2.002  -0.220   0.020  0.00  0.00    +0.420 HD
ATOM      9  C   LIG    1       -1.137  -2.041   0.002  0.00  0.00    +0.660 C 
ATOM     10  O   LIG    1       -0.077  -2.634  -0.011  0.00  0.00    -0.500 OA
ATOM     11  O   LIG    1        1.063  -0.597  -0.011  0.00  0.00    -0.520 OA
ENDBRANCH   2   9
ENDBRANCH   1   2
BRANCH   1  12
ATOM     12  C   LIG    1       -3.604  -4.783   0.011  0.00  0.00    +0.290 C 
BRANCH  12  13
ATOM     13  O   LIG    1       -4.289  -4.436  -1.222  0.00  0.00    -0.360 OA
BRANCH  13  14
ATOM     14  C   LIG    1       -5.546  -4.893  -1.372  0.00  0.00    +0.660 C 
ATOM     15  N   LIG    1       -6.237  -4.607  -2.493  0.00  0.00    -0.660 N 
ATOM     16  H   LIG    1       -5.830  -4.071  -3.191  0.00  0.00    +0.420 HD
ATOM     17  C   LIG    1       -7.496  -5.065  -2.643  0.00  0.00    +0.710 C 
ATOM     18  O   LIG    1       -8.007  -5.736  -1.768  0.00  0.00    -0.520 OA
ATOM     19  N   LIG    1       -8.188  -4.779  -3.764  0.00  0.00    -0.850 N 
ATOM     20  H   LIG    1       -9.094  -5.108  -3.872  0.00  0.00    +0.430 HD
ATOM     21  H   LIG    1       -7.780  -4.243  -4.462  0.00  0.00    +0.400 HD
ATOM     22  O   LIG    1       -6.056  -5.564  -0.497  0.00  0.00    -0.500 OA
ENDBRANCH  13  14
ENDBRANCH  12  13
ENDBRANCH   1  12
TORSDOF 5
ENDMDL
MODEL      444
REMARK  Name = ZINC000005047978
REMARK                            x       y       z     vdW  Elec       q    Type
REMARK                         _______ _______ _______ _____ _____    ______ ____
ROOT
ATOM      1  C   LIG    1        0.682  -1.996  -3.823  0.00  0.00    +0.180 C 
ENDROOT
BRANCH   1   2
ATOM      2  O   LIG    1       -0.667  -2.446  -3.678  0.00  0.00    -0.530 OA
ATOM      3  H   LIG    1       -0.752  -3.401  -3.553  0.00  0.00    +0.370 HD
ENDBRANCH   1   2
BRANCH   1   4
ATOM      4  C   LIG    1        1.479  -2.361  -2.569  0.00  0.00    +0.240 C 
BRANCH   4   5
ATOM      5  C   LIG    1        0.786  -1.801  -1.353  0.00  0.00    +0.440 C 
ATOM      6  O   LIG    1        0.325  -2.548  -0.523  0.00  0.00    -0.500 OA
BRANCH   5   7
ATOM      7  O   LIG    1        0.682  -0.472  -1.193  0.00  0.00    -0.350 OA
BRANCH   7   9
ATOM      8  C   LIG    1       -0.019   1.526   0.010  0.00  0.00    +0.070 C 
ATOM      9  C   LIG    1        0.002  -0.004   0.002  0.00  0.00    +0.200 C 
ENDBRANCH   7   9
ENDBRANCH   5   7
ENDBRANCH   4   5
BRANCH   4  10
ATOM     10  O   LIG    1        1.564  -3.783  -2.455  0.00  0.00    -0.520 OA
ATOM     11  H   LIG    1        0.707  -4.224  -2.387  0.00  0.00    +0.380 HD
ENDBRANCH   4  10
ENDBRANCH   1   4
BRANCH   1  12
ATOM     12  C   LIG    1        1.315  -2.668  -5.043  0.00  0.00    +0.170 C 
BRANCH  12  13
ATOM     13  O   LIG    1        2.663  -2.219  -5.188  0.00  0.00    -0.520 OA
ATOM     14  H   LIG    1        2.748  -1.264  -5.312  0.00  0.00    +0.380 HD
ENDBRANCH  12  13
BRANCH  12  15
ATOM     15  C   LIG    1        0.518  -2.304  -6.297  0.00  0.00    +0.200 C 
BRANCH  15  16
ATOM     16  C   LIG    1        1.151  -2.976  -7.517  0.00  0.00    +0.130 C 
ATOM     17  C   LIG    1        0.354  -2.612  -8.771  0.00  0.00    +0.010 C 
BRANCH  16  18
ATOM     18  O   LIG    1        2.500  -2.526  -7.662  0.00  0.00    -0.550 OA
ATOM     19  H   LIG    1        2.964  -2.913  -8.417  0.00  0.00    +0.380 HD
ENDBRANCH  16  18
ENDBRANCH  15  16
BRANCH  15  20
ATOM     20  O   LIG    1       -0.831  -2.754  -6.152  0.00  0.00    -0.530 OA
ATOM     21  H   LIG    1       -0.916  -3.709  -6.027  0.00  0.00    +0.370 HD
ENDBRANCH  15  20
ENDBRANCH  12  15
ENDBRANCH   1  12
TORSDOF 12
ENDMDL
MODEL      445
REMARK  Name = ZINC000005047980
REMARK                            x       y       z     vdW  Elec       q    Type
REMARK                         _______ _______ _______ _____ _____    ______ ____
ROOT
ATOM      1  C   LIG    1        0.682  -1.996  -3.823  0.00  0.00    +0.180 C 
ENDROOT
BRANCH   1   2
ATOM      2  O   LIG    1        0.596  -0.574  -3.936  0.00  0.00    -0.530 OA
ATOM      3  H   LIG    1        1.454  -0.133  -4.005  0.00  0.00    +0.380 HD
ENDBRANCH   1   2
BRANCH   1   4
ATOM      4  C   LIG    1        1.479  -2.361  -2.569  0.00  0.00    +0.230 C 
BRANCH   4   5
ATOM      5  C   LIG    1        0.786  -1.801  -1.353  0.00  0.00    +0.440 C 
ATOM      6  O   LIG    1        0.325  -2.548  -0.523  0.00  0.00    -0.500 OA
BRANCH   5   7
ATOM      7  O   LIG    1        0.682  -0.472  -1.193  0.00  0.00    -0.340 OA
BRANCH   7   9
ATOM      8  C   LIG    1       -0.019   1.526   0.010  0.00  0.00    +0.070 C 
ATOM      9  C   LIG    1        0.002  -0.004   0.002  0.00  0.00    +0.200 C 
ENDBRANCH   7   9
ENDBRANCH   5   7
ENDBRANCH   4   5
BRANCH   4  10
ATOM     10  O   LIG    1        1.564  -3.783  -2.455  0.00  0.00    -0.520 OA
ATOM     11  H   LIG    1        0.707  -4.224  -2.387  0.00  0.00    +0.390 HD
ENDBRANCH   4  10
ENDBRANCH   1   4
BRANCH   1  12
ATOM     12  C   LIG    1        1.385  -2.565  -5.057  0.00  0.00    +0.170 C 
BRANCH  12  13
ATOM     13  O   LIG    1        2.738  -2.106  -5.088  0.00  0.00    -0.520 OA
ATOM     14  H   LIG    1        2.826  -1.144  -5.128  0.00  0.00    +0.370 HD
ENDBRANCH  12  13
BRANCH  12  15
ATOM     15  C   LIG    1        0.658  -2.096  -6.319  0.00  0.00    +0.200 C 
BRANCH  15  16
ATOM     16  C   LIG    1        1.361  -2.665  -7.553  0.00  0.00    +0.130 C 
ATOM     17  C   LIG    1        0.634  -2.196  -8.816  0.00  0.00    +0.010 C 
BRANCH  16  18
ATOM     18  O   LIG    1        2.714  -2.206  -7.585  0.00  0.00    -0.550 OA
ATOM     19  H   LIG    1        3.221  -2.528  -8.342  0.00  0.00    +0.380 HD
ENDBRANCH  16  18
ENDBRANCH  15  16
BRANCH  15  20
ATOM     20  O   LIG    1       -0.695  -2.555  -6.288  0.00  0.00    -0.540 OA
ATOM     21  H   LIG    1       -0.783  -3.517  -6.249  0.00  0.00    +0.380 HD
ENDBRANCH  15  20
ENDBRANCH  12  15
ENDBRANCH   1  12
TORSDOF 12
ENDMDL
MODEL      446
REMARK  Name = ZINC000006640378
REMARK                            x       y       z     vdW  Elec       q    Type
REMARK                         _______ _______ _______ _____ _____    ______ ____
ROOT
ATOM      1  C   LIG    1       -1.247  -2.113   0.003  0.00  0.00    -0.120 A 
ATOM      2  C   LIG    1       -2.443  -2.747   0.005  0.00  0.00    +0.110 A 
ATOM      3  C   LIG    1       -2.563  -4.196   0.011  0.00  0.00    +0.550 A 
ATOM      4  N   LIG    1       -1.581  -5.015   0.414  0.00  0.00    -0.380 N 
ATOM      5  C   LIG    1       -0.351  -4.516   0.792  0.00  0.00    +0.360 A 
ATOM      6  N   LIG    1        0.353  -5.105   1.718  0.00  0.00    -0.650 NA
ATOM      7  H   LIG    1        1.216  -4.743   1.974  0.00  0.00    +0.380 HD
ATOM      8  O   LIG    1       -3.608  -4.690  -0.369  0.00  0.00    -0.460 OA
ATOM      9  S   LIG    1        0.243  -3.058  -0.017  0.00  0.00    +0.060 S 
ENDROOT
BRANCH   4  10
ATOM     10  N   LIG    1       -1.801  -6.363   0.451  0.00  0.00    -0.580 N 
ATOM     11  H   LIG    1       -2.602  -6.583   1.024  0.00  0.00    +0.360 HD
ATOM     12  H   LIG    1       -0.981  -6.855   0.771  0.00  0.00    +0.380 HD
ENDBRANCH   4  10
BRANCH   1  13
ATOM     13  C   LIG    1       -1.190  -0.632   0.010  0.00  0.00    +0.520 C 
ATOM     14  O   LIG    1       -2.216   0.015   0.023  0.00  0.00    -0.470 OA
BRANCH  13  16
ATOM     15  C   LIG    1       -0.018   1.448   0.010  0.00  0.00    +0.290 C 
ATOM     16  O   LIG    1        0.002  -0.004   0.002  0.00  0.00    -0.340 OA
ENDBRANCH  13  16
ENDBRANCH   1  13
TORSDOF 3
ENDMDL
MODEL      447
REMARK  Name = ZINC000096516507
REMARK                            x       y       z     vdW  Elec       q    Type
REMARK                         _______ _______ _______ _____ _____    ______ ____
ROOT
ATOM      1  S   LIG    1        2.736   1.084  -0.025  0.00  0.00    +2.710 S 
ATOM      2  O   LIG    1        3.743   2.082  -0.125  0.00  0.00    -0.960 OA
ATOM      3  O   LIG    1        2.594   0.026  -0.962  0.00  0.00    -0.940 OA
ENDROOT
BRANCH   1  11
ATOM      4  O   LIG    1        0.002  -0.004   0.002  0.00  0.00    -0.520 OA
ATOM      5  C   LIG    1       -0.015   1.216   0.009  0.00  0.00    +0.560 A 
ATOM      6  N   LIG    1       -1.190   1.873   0.029  0.00  0.00    -0.610 N 
ATOM      7  H   LIG    1       -2.020   1.371   0.038  0.00  0.00    +0.420 HD
ATOM      8  C   LIG    1       -1.226   3.231   0.037  0.00  0.00    +0.380 A 
ATOM      9  C   LIG    1       -0.082   3.953   0.024  0.00  0.00    -0.100 A 
ATOM     10  C   LIG    1        1.158   3.299   0.003  0.00  0.00    +0.280 A 
ATOM     11  C   LIG    1        1.193   1.935   0.001  0.00  0.00    -0.820 A 
ENDBRANCH   1  11
BRANCH   1  12
ATOM     12  N   LIG    1        2.928   0.373   1.458  0.00  0.00    -1.000 NA
ATOM     13  C   LIG    1        3.590   1.089   2.559  0.00  0.00    +0.290 C 
ATOM     14  C   LIG    1        4.687   0.188   3.136  0.00  0.00    +0.180 C 
ATOM     15  N   LIG    1        4.107  -1.112   3.501  0.00  0.00    -0.690 NA
ATOM     16  H   LIG    1        4.779  -1.683   3.991  0.00  0.00    +0.350 HD
ATOM     17  C   LIG    1        3.583  -1.812   2.320  0.00  0.00    +0.170 C 
ATOM     18  C   LIG    1        2.436  -0.990   1.711  0.00  0.00    +0.300 C 
ENDBRANCH   1  12
TORSDOF 2
ENDMDL
MODEL      448
REMARK  Name = ZINC000393845320
REMARK                            x       y       z     vdW  Elec       q    Type
REMARK                         _______ _______ _______ _____ _____    ______ ____
ROOT
ATOM      1  C   LIG    1        1.274  -0.747   0.099  0.00  0.00    -0.260 A 
ATOM      2  C   LIG    1        2.467  -0.085   0.203  0.00  0.00    +0.390 A 
ATOM      3  N   LIG    1        3.622  -0.799   0.290  0.00  0.00    -0.510 N 
ATOM      4  C   LIG    1        3.619  -2.141   0.277  0.00  0.00    +0.710 A 
ATOM      5  N   LIG    1        2.481  -2.849   0.177  0.00  0.00    -0.650 N 
ATOM      6  H   LIG    1        2.514  -3.818   0.170  0.00  0.00    +0.440 HD
ATOM      7  O   LIG    1        4.678  -2.734   0.358  0.00  0.00    -0.530 OA
ATOM      8  C   LIG    1        1.291  -2.217   0.091  0.00  0.00    +0.570 A 
ATOM      9  O   LIG    1        0.256  -2.850   0.001  0.00  0.00    -0.490 OA
ENDROOT
BRANCH   1  12
ATOM     10  N   LIG    1       -1.132  -0.649   0.007  0.00  0.00    -0.720 NA
ATOM     11  H   LIG    1       -1.139  -1.619   0.001  0.00  0.00    +0.370 HD
ATOM     12  C   LIG    1        0.002  -0.004   0.002  0.00  0.00    +0.480 C 
BRANCH  12  13
ATOM     13  N   LIG    1        0.013   1.371  -0.093  0.00  0.00    -0.600 N 
ATOM     14  H   LIG    1        0.855   1.846  -0.171  0.00  0.00    +0.410 HD
BRANCH  13  15
ATOM     15  O   LIG    1       -1.207   2.091  -0.079  0.00  0.00    -0.300 OA
ATOM     16  H   LIG    1       -1.099   3.050  -0.150  0.00  0.00    +0.380 HD
ENDBRANCH  13  15
ENDBRANCH  12  13
ENDBRANCH   1  12
BRANCH   3  17
ATOM     17  C   LIG    1        4.897  -0.086   0.402  0.00  0.00    +0.360 C 
BRANCH  17  18
ATOM     18  C   LIG    1        5.219   0.144   1.856  0.00  0.00    +0.500 C 
ATOM     19  O   LIG    1        4.457  -0.249   2.715  0.00  0.00    -0.530 OA
ATOM     20  N   LIG    1        6.352   0.786   2.202  0.00  0.00    -0.850 N 
ATOM     21  H   LIG    1        6.559   0.934   3.138  0.00  0.00    +0.410 HD
ATOM     22  H   LIG    1        6.960   1.100   1.516  0.00  0.00    +0.410 HD
ENDBRANCH  17  18
ENDBRANCH   3  17
TORSDOF 5
ENDMDL
MODEL      449
REMARK  Name = ZINC000245231474
REMARK                            x       y       z     vdW  Elec       q    Type
REMARK                         _______ _______ _______ _____ _____    ______ ____
ROOT
ATOM      1  C   LIG    1       -1.136  -2.159   0.001  0.00  0.00    +0.270 C 
ATOM      2  C   LIG    1       -1.146  -2.662  -1.444  0.00  0.00    +0.350 C 
ATOM      3  O   LIG    1       -2.353  -2.243  -2.085  0.00  0.00    -0.390 OA
ATOM      4  C   LIG    1       -3.542  -2.750  -1.477  0.00  0.00    +0.150 C 
ATOM      5  C   LIG    1       -3.629  -2.250  -0.033  0.00  0.00    +0.120 C 
ATOM      6  C   LIG    1       -2.374  -2.691   0.729  0.00  0.00    +0.190 C 
ENDROOT
BRANCH   1  11
ATOM      7  N   LIG    1       -0.670   1.329   1.069  0.00  0.00    -0.860 N 
ATOM      8  H   LIG    1       -1.042   1.813   0.315  0.00  0.00    +0.400 HD
ATOM      9  H   LIG    1       -0.308   1.815   1.826  0.00  0.00    +0.410 HD
ATOM     10  C   LIG    1       -0.652  -0.019   1.062  0.00  0.00    +0.710 C 
ATOM     11  N   LIG    1       -1.156  -0.694   0.009  0.00  0.00    -0.700 N 
ATOM     12  H   LIG    1       -1.532  -0.210  -0.743  0.00  0.00    +0.410 HD
ATOM     13  O   LIG    1       -0.181  -0.626   2.004  0.00  0.00    -0.600 OA
ENDBRANCH   1  11
BRANCH   5  14
ATOM     14  O   LIG    1       -3.716  -0.824  -0.026  0.00  0.00    -0.540 OA
ATOM     15  H   LIG    1       -4.486  -0.474  -0.495  0.00  0.00    +0.380 HD
ENDBRANCH   5  14
BRANCH   2  16
ATOM     16  O   LIG    1       -0.023  -2.124  -2.144  0.00  0.00    -0.540 OA
ATOM     17  H   LIG    1        0.035  -2.402  -3.069  0.00  0.00    +0.390 HD
ENDBRANCH   2  16
BRANCH   6  18
ATOM     18  O   LIG    1       -2.323  -4.119   0.781  0.00  0.00    -0.550 OA
ATOM     19  H   LIG    1       -3.082  -4.523   1.223  0.00  0.00    +0.390 HD
ENDBRANCH   6  18
BRANCH   4  20
ATOM     20  C   LIG    1       -4.763  -2.263  -2.260  0.00  0.00    +0.200 C 
BRANCH  20  21
ATOM     21  O   LIG    1       -4.742  -2.824  -3.574  0.00  0.00    -0.560 OA
ATOM     22  H   LIG    1       -5.488  -2.557  -4.128  0.00  0.00    +0.380 HD
ENDBRANCH  20  21
ENDBRANCH   4  20
TORSDOF 6
ENDMDL
MODEL      450
REMARK  Name = ZINC000004718900
REMARK                            x       y       z     vdW  Elec       q    Type
REMARK                         _______ _______ _______ _____ _____    ______ ____
ROOT
ATOM      1  C   LIG    1       -1.136  -2.159   0.001  0.00  0.00    +0.280 C 
ATOM      2  C   LIG    1       -1.020  -2.661  -1.440  0.00  0.00    +0.360 C 
ATOM      3  O   LIG    1       -1.059  -4.089  -1.450  0.00  0.00    -0.380 OA
ATOM      4  C   LIG    1       -2.269  -4.644  -0.930  0.00  0.00    +0.150 C 
ATOM      5  C   LIG    1       -2.435  -4.221   0.532  0.00  0.00    +0.130 C 
ATOM      6  C   LIG    1       -2.433  -2.692   0.618  0.00  0.00    +0.190 C 
ENDROOT
BRANCH   1  11
ATOM      7  N   LIG    1       -0.016   1.344   0.009  0.00  0.00    -0.860 N 
ATOM      8  H   LIG    1       -0.863   1.817   0.016  0.00  0.00    +0.400 HD
ATOM      9  H   LIG    1        0.817   1.840   0.004  0.00  0.00    +0.420 HD
ATOM     10  C   LIG    1        0.002  -0.004   0.002  0.00  0.00    +0.710 C 
ATOM     11  N   LIG    1       -1.156  -0.694   0.009  0.00  0.00    -0.720 N 
ATOM     12  H   LIG    1       -2.002  -0.220   0.020  0.00  0.00    +0.410 HD
ATOM     13  O   LIG    1        1.063  -0.598  -0.011  0.00  0.00    -0.600 OA
ENDBRANCH   1  11
BRANCH   5  14
ATOM     14  O   LIG    1       -3.672  -4.727   1.038  0.00  0.00    -0.560 OA
ATOM     15  H   LIG    1       -3.744  -5.691   1.010  0.00  0.00    +0.390 HD
ENDBRANCH   5  14
BRANCH   2  16
ATOM     16  O   LIG    1       -2.108  -2.149  -2.212  0.00  0.00    -0.550 OA
ATOM     17  H   LIG    1       -2.099  -2.427  -3.138  0.00  0.00    +0.380 HD
ENDBRANCH   2  16
BRANCH   6  18
ATOM     18  O   LIG    1       -3.553  -2.170  -0.100  0.00  0.00    -0.540 OA
ATOM     19  H   LIG    1       -4.409  -2.473   0.233  0.00  0.00    +0.380 HD
ENDBRANCH   6  18
BRANCH   4  20
ATOM     20  C   LIG    1       -2.210  -6.170  -1.017  0.00  0.00    +0.200 C 
BRANCH  20  21
ATOM     21  O   LIG    1       -2.171  -6.568  -2.389  0.00  0.00    -0.560 OA
ATOM     22  H   LIG    1       -2.133  -7.525  -2.520  0.00  0.00    +0.380 HD
ENDBRANCH  20  21
ENDBRANCH   4  20
TORSDOF 6
ENDMDL
MODEL      451
REMARK  Name = ZINC000004718901
REMARK                            x       y       z     vdW  Elec       q    Type
REMARK                         _______ _______ _______ _____ _____    ______ ____
ROOT
ATOM      1  C   LIG    1       -1.136  -2.159   0.001  0.00  0.00    +0.280 C 
ATOM      2  C   LIG    1       -1.020  -2.661  -1.440  0.00  0.00    +0.320 C 
ATOM      3  O   LIG    1       -2.166  -2.240  -2.183  0.00  0.00    -0.390 OA
ATOM      4  C   LIG    1       -3.405  -2.747  -1.682  0.00  0.00    +0.150 C 
ATOM      5  C   LIG    1       -3.616  -2.248  -0.250  0.00  0.00    +0.120 C 
ATOM      6  C   LIG    1       -2.433  -2.692   0.618  0.00  0.00    +0.200 C 
ENDROOT
BRANCH   1  11
ATOM      7  N   LIG    1       -0.016   1.344   0.009  0.00  0.00    -0.870 N 
ATOM      8  H   LIG    1       -0.863   1.817   0.016  0.00  0.00    +0.390 HD
ATOM      9  H   LIG    1        0.817   1.840   0.004  0.00  0.00    +0.410 HD
ATOM     10  C   LIG    1        0.002  -0.004   0.002  0.00  0.00    +0.710 C 
ATOM     11  N   LIG    1       -1.156  -0.694   0.009  0.00  0.00    -0.720 N 
ATOM     12  H   LIG    1       -2.002  -0.220   0.020  0.00  0.00    +0.390 HD
ATOM     13  O   LIG    1        1.063  -0.598  -0.011  0.00  0.00    -0.580 OA
ENDBRANCH   1  11
BRANCH   5  14
ATOM     14  O   LIG    1       -4.826  -2.800   0.274  0.00  0.00    -0.550 OA
ATOM     15  H   LIG    1       -5.617  -2.562  -0.230  0.00  0.00    +0.390 HD
ENDBRANCH   5  14
BRANCH   2  16
ATOM     16  O   LIG    1        0.160  -2.122  -2.039  0.00  0.00    -0.510 OA
ATOM     17  H   LIG    1        0.298  -2.399  -2.955  0.00  0.00    +0.390 HD
ENDBRANCH   2  16
BRANCH   6  18
ATOM     18  O   LIG    1       -2.587  -2.170   1.939  0.00  0.00    -0.550 OA
ATOM     19  H   LIG    1       -3.393  -2.462   2.386  0.00  0.00    +0.390 HD
ENDBRANCH   6  18
BRANCH   4  20
ATOM     20  C   LIG    1       -4.552  -2.258  -2.568  0.00  0.00    +0.200 C 
BRANCH  20  21
ATOM     21  O   LIG    1       -4.417  -2.818  -3.875  0.00  0.00    -0.560 OA
ATOM     22  H   LIG    1       -5.112  -2.550  -4.492  0.00  0.00    +0.390 HD
ENDBRANCH  20  21
ENDBRANCH   4  20
TORSDOF 6
ENDMDL
MODEL      452
REMARK  Name = ZINC000004718899
REMARK                            x       y       z     vdW  Elec       q    Type
REMARK                         _______ _______ _______ _____ _____    ______ ____
ROOT
ATOM      1  C   LIG    1       -1.136  -2.159   0.001  0.00  0.00    +0.270 C 
ATOM      2  C   LIG    1       -1.146  -2.662  -1.444  0.00  0.00    +0.340 C 
ATOM      3  O   LIG    1       -2.353  -2.243  -2.085  0.00  0.00    -0.390 OA
ATOM      4  C   LIG    1       -3.542  -2.750  -1.477  0.00  0.00    +0.150 C 
ATOM      5  C   LIG    1       -3.629  -2.250  -0.033  0.00  0.00    +0.120 C 
ATOM      6  C   LIG    1       -2.374  -2.691   0.729  0.00  0.00    +0.180 C 
ENDROOT
BRANCH   1  11
ATOM      7  N   LIG    1       -0.616   1.330   1.040  0.00  0.00    -0.870 N 
ATOM      8  H   LIG    1       -1.027   1.813   0.307  0.00  0.00    +0.390 HD
ATOM      9  H   LIG    1       -0.213   1.816   1.777  0.00  0.00    +0.410 HD
ATOM     10  C   LIG    1       -0.597  -0.018   1.033  0.00  0.00    +0.710 C 
ATOM     11  N   LIG    1       -1.156  -0.694   0.009  0.00  0.00    -0.700 N 
ATOM     12  H   LIG    1       -1.571  -0.210  -0.722  0.00  0.00    +0.400 HD
ATOM     13  O   LIG    1       -0.077  -0.624   1.950  0.00  0.00    -0.590 OA
ENDBRANCH   1  11
BRANCH   5  14
ATOM     14  O   LIG    1       -3.716  -0.824  -0.026  0.00  0.00    -0.530 OA
ATOM     15  H   LIG    1       -4.486  -0.474  -0.495  0.00  0.00    +0.370 HD
ENDBRANCH   5  14
BRANCH   2  16
ATOM     16  O   LIG    1       -0.023  -2.124  -2.144  0.00  0.00    -0.530 OA
ATOM     17  H   LIG    1        0.035  -2.402  -3.069  0.00  0.00    +0.390 HD
ENDBRANCH   2  16
BRANCH   6  18
ATOM     18  O   LIG    1       -2.413  -2.168   2.058  0.00  0.00    -0.520 OA
ATOM     19  H   LIG    1       -3.177  -2.460   2.574  0.00  0.00    +0.370 HD
ENDBRANCH   6  18
BRANCH   4  20
ATOM     20  C   LIG    1       -4.763  -2.263  -2.260  0.00  0.00    +0.210 C 
BRANCH  20  21
ATOM     21  O   LIG    1       -4.742  -2.824  -3.574  0.00  0.00    -0.560 OA
ATOM     22  H   LIG    1       -5.488  -2.557  -4.128  0.00  0.00    +0.390 HD
ENDBRANCH  20  21
ENDBRANCH   4  20
TORSDOF 6
ENDMDL
MODEL      453
REMARK  Name = ZINC000004718902
REMARK                            x       y       z     vdW  Elec       q    Type
REMARK                         _______ _______ _______ _____ _____    ______ ____
ROOT
ATOM      1  C   LIG    1       -1.136  -2.159   0.001  0.00  0.00    +0.300 C 
ATOM      2  C   LIG    1       -1.020  -2.661  -1.440  0.00  0.00    +0.350 C 
ATOM      3  O   LIG    1       -1.059  -4.089  -1.450  0.00  0.00    -0.370 OA
ATOM      4  C   LIG    1       -2.269  -4.644  -0.930  0.00  0.00    +0.150 C 
ATOM      5  C   LIG    1       -2.435  -4.221   0.532  0.00  0.00    +0.130 C 
ATOM      6  C   LIG    1       -2.433  -2.692   0.618  0.00  0.00    +0.190 C 
ENDROOT
BRANCH   1  11
ATOM      7  N   LIG    1       -0.016   1.344   0.009  0.00  0.00    -0.870 N 
ATOM      8  H   LIG    1       -0.863   1.817   0.016  0.00  0.00    +0.400 HD
ATOM      9  H   LIG    1        0.817   1.840   0.004  0.00  0.00    +0.420 HD
ATOM     10  C   LIG    1        0.002  -0.004   0.002  0.00  0.00    +0.700 C 
ATOM     11  N   LIG    1       -1.156  -0.694   0.009  0.00  0.00    -0.730 N 
ATOM     12  H   LIG    1       -2.002  -0.220   0.020  0.00  0.00    +0.410 HD
ATOM     13  O   LIG    1        1.063  -0.598  -0.011  0.00  0.00    -0.590 OA
ENDBRANCH   1  11
BRANCH   5  14
ATOM     14  O   LIG    1       -1.354  -4.745   1.306  0.00  0.00    -0.550 OA
ATOM     15  H   LIG    1       -1.293  -5.710   1.294  0.00  0.00    +0.380 HD
ENDBRANCH   5  14
BRANCH   2  16
ATOM     16  O   LIG    1       -2.108  -2.149  -2.212  0.00  0.00    -0.550 OA
ATOM     17  H   LIG    1       -2.099  -2.427  -3.138  0.00  0.00    +0.380 HD
ENDBRANCH   2  16
BRANCH   6  18
ATOM     18  O   LIG    1       -3.553  -2.170  -0.100  0.00  0.00    -0.530 OA
ATOM     19  H   LIG    1       -4.409  -2.473   0.233  0.00  0.00    +0.380 HD
ENDBRANCH   6  18
BRANCH   4  20
ATOM     20  C   LIG    1       -2.210  -6.170  -1.017  0.00  0.00    +0.200 C 
BRANCH  20  21
ATOM     21  O   LIG    1       -2.171  -6.568  -2.389  0.00  0.00    -0.560 OA
ATOM     22  H   LIG    1       -2.133  -7.525  -2.520  0.00  0.00    +0.380 HD
ENDBRANCH  20  21
ENDBRANCH   4  20
TORSDOF 6
ENDMDL
MODEL      454
REMARK  Name = ZINC000245231473
REMARK                            x       y       z     vdW  Elec       q    Type
REMARK                         _______ _______ _______ _____ _____    ______ ____
ROOT
ATOM      1  C   LIG    1       -1.136  -2.159   0.001  0.00  0.00    +0.280 C 
ATOM      2  C   LIG    1       -1.020  -2.661  -1.440  0.00  0.00    +0.330 C 
ATOM      3  O   LIG    1       -2.166  -2.240  -2.183  0.00  0.00    -0.390 OA
ATOM      4  C   LIG    1       -3.405  -2.747  -1.682  0.00  0.00    +0.150 C 
ATOM      5  C   LIG    1       -3.616  -2.248  -0.250  0.00  0.00    +0.110 C 
ATOM      6  C   LIG    1       -2.433  -2.692   0.618  0.00  0.00    +0.200 C 
ENDROOT
BRANCH   1  11
ATOM      7  N   LIG    1       -0.016   1.344   0.009  0.00  0.00    -0.870 N 
ATOM      8  H   LIG    1       -0.863   1.817   0.016  0.00  0.00    +0.390 HD
ATOM      9  H   LIG    1        0.817   1.840   0.004  0.00  0.00    +0.420 HD
ATOM     10  C   LIG    1        0.002  -0.004   0.002  0.00  0.00    +0.710 C 
ATOM     11  N   LIG    1       -1.156  -0.694   0.009  0.00  0.00    -0.730 N 
ATOM     12  H   LIG    1       -2.002  -0.220   0.020  0.00  0.00    +0.390 HD
ATOM     13  O   LIG    1        1.063  -0.598  -0.011  0.00  0.00    -0.570 OA
ENDBRANCH   1  11
BRANCH   5  14
ATOM     14  O   LIG    1       -4.826  -2.800   0.274  0.00  0.00    -0.550 OA
ATOM     15  H   LIG    1       -5.617  -2.562  -0.230  0.00  0.00    +0.390 HD
ENDBRANCH   5  14
BRANCH   2  16
ATOM     16  O   LIG    1        0.160  -2.122  -2.039  0.00  0.00    -0.520 OA
ATOM     17  H   LIG    1        0.298  -2.399  -2.955  0.00  0.00    +0.380 HD
ENDBRANCH   2  16
BRANCH   6  18
ATOM     18  O   LIG    1       -2.387  -4.119   0.672  0.00  0.00    -0.550 OA
ATOM     19  H   LIG    1       -3.182  -4.524   1.046  0.00  0.00    +0.400 HD
ENDBRANCH   6  18
BRANCH   4  20
ATOM     20  C   LIG    1       -4.552  -2.258  -2.568  0.00  0.00    +0.200 C 
BRANCH  20  21
ATOM     21  O   LIG    1       -4.417  -2.818  -3.875  0.00  0.00    -0.560 OA
ATOM     22  H   LIG    1       -5.112  -2.550  -4.492  0.00  0.00    +0.380 HD
ENDBRANCH  20  21
ENDBRANCH   4  20
TORSDOF 6
ENDMDL
MODEL      455
REMARK  Name = ZINC000033832786
REMARK                            x       y       z     vdW  Elec       q    Type
REMARK                         _______ _______ _______ _____ _____    ______ ____
ROOT
ATOM      1  C   LIG    1        0.059  -4.184  -0.075  0.00  0.00    +0.270 C 
ENDROOT
BRANCH   1   6
ATOM      2  C   LIG    1       -0.018   1.503   0.010  0.00  0.00    +0.140 C 
ATOM      3  C   LIG    1        0.002  -0.004   0.002  0.00  0.00    +0.080 A 
ATOM      4  C   LIG    1        0.006  -0.689  -1.200  0.00  0.00    +0.220 A 
ATOM      5  N   LIG    1        0.024  -2.011  -1.207  0.00  0.00    -0.400 NA
ATOM      6  C   LIG    1        0.038  -2.677  -0.067  0.00  0.00    +0.030 A 
ATOM      7  C   LIG    1        0.034  -1.992   1.136  0.00  0.00    +0.230 A 
ATOM      8  N   LIG    1        0.022  -0.671   1.143  0.00  0.00    -0.440 NA
ENDBRANCH   1   6
BRANCH   1   9
ATOM      9  O   LIG    1       -0.046  -4.670   1.265  0.00  0.00    -0.540 OA
ATOM     10  H   LIG    1       -0.855  -4.398   1.720  0.00  0.00    +0.380 HD
ENDBRANCH   1   9
BRANCH   1  11
ATOM     11  C   LIG    1       -1.119  -4.706  -0.900  0.00  0.00    +0.170 C 
BRANCH  11  12
ATOM     12  O   LIG    1       -1.015  -4.221  -2.240  0.00  0.00    -0.530 OA
ATOM     13  H   LIG    1       -0.205  -4.492  -2.695  0.00  0.00    +0.380 HD
ENDBRANCH  11  12
BRANCH  11  14
ATOM     14  C   LIG    1       -1.098  -6.236  -0.908  0.00  0.00    +0.200 C 
BRANCH  14  15
ATOM     15  O   LIG    1        0.172  -6.692  -1.377  0.00  0.00    -0.540 OA
ATOM     16  H   LIG    1        0.390  -6.399  -2.273  0.00  0.00    +0.370 HD
ENDBRANCH  14  15
BRANCH  14  17
ATOM     17  C   LIG    1       -2.200  -6.756  -1.833  0.00  0.00    +0.160 C 
BRANCH  17  18
ATOM     18  O   LIG    1       -2.257  -8.182  -1.752  0.00  0.00    -0.570 OA
ATOM     19  H   LIG    1       -2.935  -8.581  -2.314  0.00  0.00    +0.380 HD
ENDBRANCH  17  18
ENDBRANCH  14  17
ENDBRANCH  11  14
ENDBRANCH   1  11
TORSDOF 8
ENDMDL
MODEL      456
REMARK  Name = ZINC000006512844
REMARK                            x       y       z     vdW  Elec       q    Type
REMARK                         _______ _______ _______ _____ _____    ______ ____
ROOT
ATOM      1  N   LIG    1       -1.005  -2.212  -0.000  0.00  0.00    -0.700 N 
ATOM      2  H   LIG    1       -0.167  -2.536  -0.365  0.00  0.00    +0.410 HD
ATOM      3  C   LIG    1       -1.906  -3.083   0.497  0.00  0.00    +0.570 C 
ATOM      4  O   LIG    1       -2.956  -2.676   0.954  0.00  0.00    -0.540 OA
ENDROOT
BRANCH   3   5
ATOM      5  C   LIG    1       -1.616  -4.532   0.486  0.00  0.00    -0.190 A 
ATOM      6  C   LIG    1       -2.545  -5.448   0.995  0.00  0.00    +0.140 A 
ATOM      7  C   LIG    1       -2.226  -6.794   0.961  0.00  0.00    -0.030 A 
ATOM      8  C   LIG    1       -1.010  -7.188   0.431  0.00  0.00    +0.290 A 
ATOM      9  N   LIG    1       -0.153  -6.303  -0.040  0.00  0.00    -0.490 NA
ATOM     10  C   LIG    1       -0.414  -5.012  -0.035  0.00  0.00    +0.300 A 
ENDBRANCH   3   5
BRANCH   1  11
ATOM     11  CA  LIG    1       -1.293  -0.775   0.010  0.00  0.00    +0.260 C 
BRANCH  11  15
ATOM     12  N   LIG    1       -0.016   1.344   0.009  0.00  0.00    -0.850 N 
ATOM     13  H   LIG    1       -0.863   1.817   0.016  0.00  0.00    +0.400 HD
ATOM     14  H   LIG    1        0.817   1.840   0.004  0.00  0.00    +0.410 HD
ATOM     15  C   LIG    1        0.002  -0.004   0.002  0.00  0.00    +0.530 C 
ATOM     16  O   LIG    1        1.060  -0.596  -0.011  0.00  0.00    -0.530 OA
ENDBRANCH  11  15
BRANCH  11  17
ATOM     17  C   LIG    1       -2.112  -0.410  -1.229  0.00  0.00    +0.200 C 
BRANCH  17  18
ATOM     18  O   LIG    1       -1.325  -0.630  -2.402  0.00  0.00    -0.570 OA
ATOM     19  H   LIG    1       -1.782  -0.418  -3.227  0.00  0.00    +0.390 HD
ENDBRANCH  17  18
ENDBRANCH  11  17
ENDBRANCH   1  11
TORSDOF 5
ENDMDL
MODEL      457
REMARK  Name = ZINC000034006468
REMARK                            x       y       z     vdW  Elec       q    Type
REMARK                         _______ _______ _______ _____ _____    ______ ____
ROOT
ATOM      1  C   LIG    1        1.385  -4.154   2.227  0.00  0.00    +0.260 C 
ATOM      2  C   LIG    1        1.534  -4.672   3.660  0.00  0.00    +0.190 C 
ATOM      3  C   LIG    1        1.632  -6.200   3.632  0.00  0.00    +0.130 C 
ATOM      4  C   LIG    1        2.806  -6.612   2.740  0.00  0.00    +0.150 C 
ATOM      5  O   LIG    1        2.620  -6.072   1.430  0.00  0.00    -0.370 OA
ATOM      6  C   LIG    1        2.567  -4.645   1.388  0.00  0.00    +0.370 C 
ENDROOT
BRANCH   1   8
ATOM      7  C   LIG    1        0.762  -2.018   1.233  0.00  0.00    +0.520 C 
ATOM      8  N   LIG    1        1.365  -2.689   2.235  0.00  0.00    -0.710 N 
ATOM      9  H   LIG    1        1.785  -2.202   2.961  0.00  0.00    +0.410 HD
ATOM     10  O   LIG    1        0.237  -2.626   0.325  0.00  0.00    -0.540 OA
BRANCH   7  11
ATOM     11  C   LIG    1        0.742  -0.511   1.242  0.00  0.00    +0.060 C 
BRANCH  11  13
ATOM     12  C   LIG    1       -0.019   1.526   0.010  0.00  0.00    +0.020 C 
ATOM     13  C   LIG    1        0.002  -0.004   0.002  0.00  0.00    +0.030 C 
ENDBRANCH  11  13
ENDBRANCH   7  11
ENDBRANCH   1   8
BRANCH   3  14
ATOM     14  O   LIG    1        1.843  -6.690   4.958  0.00  0.00    -0.560 OA
ATOM     15  H   LIG    1        1.915  -7.652   5.015  0.00  0.00    +0.390 HD
ENDBRANCH   3  14
BRANCH   2  16
ATOM     16  O   LIG    1        0.398  -4.278   4.432  0.00  0.00    -0.550 OA
ATOM     17  H   LIG    1        0.426  -4.573   5.353  0.00  0.00    +0.390 HD
ENDBRANCH   2  16
BRANCH   6  18
ATOM     18  O   LIG    1        3.781  -4.108   1.917  0.00  0.00    -0.570 OA
ATOM     19  H   LIG    1        4.574  -4.378   1.435  0.00  0.00    +0.390 HD
ENDBRANCH   6  18
BRANCH   4  20
ATOM     20  C   LIG    1        2.874  -8.138   2.659  0.00  0.00    +0.200 C 
BRANCH  20  21
ATOM     21  O   LIG    1        4.036  -8.525   1.923  0.00  0.00    -0.560 OA
ATOM     22  H   LIG    1        4.144  -9.482   1.831  0.00  0.00    +0.380 HD
ENDBRANCH  20  21
ENDBRANCH   4  20
TORSDOF 8
ENDMDL
MODEL      458
REMARK  Name = ZINC000034175209
REMARK                            x       y       z     vdW  Elec       q    Type
REMARK                         _______ _______ _______ _____ _____    ______ ____
ROOT
ATOM      1  C   LIG    1       -0.745  -0.295  -1.583  0.00  0.00    -0.590 A 
ATOM      2  C   LIG    1       -0.046  -0.987  -2.553  0.00  0.00    +0.090 A 
ATOM      3  C   LIG    1       -0.698  -1.435  -3.687  0.00  0.00    +0.060 A 
ATOM      4  C   LIG    1       -2.048  -1.192  -3.850  0.00  0.00    +0.060 A 
ATOM      5  C   LIG    1       -2.748  -0.500  -2.878  0.00  0.00    +0.130 A 
ATOM      6  C   LIG    1       -2.097  -0.055  -1.743  0.00  0.00    -0.590 A 
ENDROOT
BRANCH   1   7
ATOM      7  S   LIG    1        0.086   0.277  -0.138  0.00  0.00    +2.670 S 
ATOM      8  O   LIG    1        0.364   1.654  -0.353  0.00  0.00    -0.910 OA
ATOM      9  O   LIG    1       -0.663  -0.201   0.971  0.00  0.00    -0.940 OA
BRANCH   7  10
ATOM     10  N   LIG    1        1.551  -0.492  -0.078  0.00  0.00    -1.240 NA
ATOM     11  H   LIG    1        2.249  -0.258  -0.710  0.00  0.00    +0.420 HD
ATOM     12  H   LIG    1        1.711  -1.181   0.587  0.00  0.00    +0.430 HD
ENDBRANCH   7  10
ENDBRANCH   1   7
BRANCH   6  13
ATOM     13  S   LIG    1       -2.988   0.827  -0.505  0.00  0.00    +2.670 S 
ATOM     14  O   LIG    1       -4.328   0.923  -0.967  0.00  0.00    -0.950 OA
ATOM     15  O   LIG    1       -2.198   1.960  -0.172  0.00  0.00    -0.940 OA
BRANCH  13  16
ATOM     16  N   LIG    1       -3.027  -0.130   0.846  0.00  0.00    -1.220 NA
ATOM     17  H   LIG    1       -3.017  -1.096   0.757  0.00  0.00    +0.420 HD
ATOM     18  H   LIG    1       -3.060   0.275   1.727  0.00  0.00    +0.430 HD
ENDBRANCH  13  16
ENDBRANCH   6  13
TORSDOF 4
ENDMDL
MODEL      459
REMARK  Name = ZINC000005045592
REMARK                            x       y       z     vdW  Elec       q    Type
REMARK                         _______ _______ _______ _____ _____    ______ ____
ROOT
ATOM      1  C   LIG    1       -2.030  -0.519   1.326  0.00  0.00    +0.180 C 
ENDROOT
BRANCH   1   2
ATOM      2  O   LIG    1       -1.171  -0.837   2.423  0.00  0.00    -0.530 OA
ATOM      3  H   LIG    1       -0.874  -1.757   2.437  0.00  0.00    +0.380 HD
ENDBRANCH   1   2
BRANCH   1   4
ATOM      4  C   LIG    1       -1.293  -0.775   0.010  0.00  0.00    +0.200 C 
BRANCH   4   8
ATOM      5  N   LIG    1       -0.016   1.344   0.009  0.00  0.00    -0.850 N 
ATOM      6  H   LIG    1       -0.863   1.817   0.016  0.00  0.00    +0.400 HD
ATOM      7  H   LIG    1        0.817   1.840   0.004  0.00  0.00    +0.410 HD
ATOM      8  C   LIG    1        0.002  -0.004   0.002  0.00  0.00    +0.500 C 
ATOM      9  O   LIG    1        1.060  -0.596  -0.011  0.00  0.00    -0.530 OA
ENDBRANCH   4   8
BRANCH   4  10
ATOM     10  O   LIG    1       -1.016  -2.171  -0.117  0.00  0.00    -0.530 OA
ATOM     11  H   LIG    1       -0.466  -2.530   0.593  0.00  0.00    +0.380 HD
ENDBRANCH   4  10
ENDBRANCH   1   4
BRANCH   1  12
ATOM     12  C   LIG    1       -3.282  -1.397   1.388  0.00  0.00    +0.180 C 
BRANCH  12  13
ATOM     13  O   LIG    1       -4.141  -1.080   0.291  0.00  0.00    -0.540 OA
ATOM     14  H   LIG    1       -4.438  -0.160   0.277  0.00  0.00    +0.380 HD
ENDBRANCH  12  13
BRANCH  12  15
ATOM     15  C   LIG    1       -4.019  -1.142   2.704  0.00  0.00    +0.200 C 
BRANCH  15  16
ATOM     16  C   LIG    1       -5.252  -2.006   2.765  0.00  0.00    +0.490 C 
ATOM     17  O   LIG    1       -5.342  -2.876   3.606  0.00  0.00    -0.540 OA
ATOM     18  N   LIG    1       -6.255  -1.813   1.886  0.00  0.00    -0.840 N 
ATOM     19  H   LIG    1       -7.049  -2.369   1.925  0.00  0.00    +0.400 HD
ATOM     20  H   LIG    1       -6.184  -1.117   1.214  0.00  0.00    +0.400 HD
ENDBRANCH  15  16
BRANCH  15  21
ATOM     21  O   LIG    1       -3.160  -1.459   3.801  0.00  0.00    -0.510 OA
ATOM     22  H   LIG    1       -2.863  -2.379   3.815  0.00  0.00    +0.380 HD
ENDBRANCH  15  21
ENDBRANCH  12  15
ENDBRANCH   1  12
TORSDOF 9
ENDMDL
MODEL      460
REMARK  Name = ZINC000013310997
REMARK                            x       y       z     vdW  Elec       q    Type
REMARK                         _______ _______ _______ _____ _____    ______ ____
ROOT
ATOM      1  C   LIG    1       -2.030  -0.519   1.326  0.00  0.00    +0.190 C 
ENDROOT
BRANCH   1   2
ATOM      2  O   LIG    1       -2.307   0.877   1.454  0.00  0.00    -0.540 OA
ATOM      3  H   LIG    1       -2.857   1.235   0.744  0.00  0.00    +0.370 HD
ENDBRANCH   1   2
BRANCH   1   4
ATOM      4  C   LIG    1       -1.293  -0.775   0.010  0.00  0.00    +0.200 C 
BRANCH   4   8
ATOM      5  N   LIG    1       -0.016   1.344   0.009  0.00  0.00    -0.840 N 
ATOM      6  H   LIG    1       -0.863   1.817   0.016  0.00  0.00    +0.400 HD
ATOM      7  H   LIG    1        0.817   1.840   0.004  0.00  0.00    +0.400 HD
ATOM      8  C   LIG    1        0.002  -0.004   0.002  0.00  0.00    +0.490 C 
ATOM      9  O   LIG    1        1.060  -0.596  -0.011  0.00  0.00    -0.530 OA
ENDBRANCH   4   8
BRANCH   4  10
ATOM     10  O   LIG    1       -1.016  -2.171  -0.117  0.00  0.00    -0.520 OA
ATOM     11  H   LIG    1       -0.466  -2.530   0.593  0.00  0.00    +0.390 HD
ENDBRANCH   4  10
ENDBRANCH   1   4
BRANCH   1  12
ATOM     12  C   LIG    1       -3.345  -1.302   1.334  0.00  0.00    +0.190 C 
BRANCH  12  13
ATOM     13  O   LIG    1       -4.110  -0.961   0.177  0.00  0.00    -0.540 OA
ATOM     14  H   LIG    1       -4.337  -0.023   0.118  0.00  0.00    +0.370 HD
ENDBRANCH  12  13
BRANCH  12  15
ATOM     15  C   LIG    1       -4.140  -0.951   2.593  0.00  0.00    +0.200 C 
BRANCH  15  16
ATOM     16  C   LIG    1       -5.435  -1.722   2.601  0.00  0.00    +0.490 C 
ATOM     17  O   LIG    1       -5.639  -2.554   3.459  0.00  0.00    -0.530 OA
ATOM     18  N   LIG    1       -6.365  -1.486   1.655  0.00  0.00    -0.840 N 
ATOM     19  H   LIG    1       -7.199  -1.983   1.661  0.00  0.00    +0.400 HD
ATOM     20  H   LIG    1       -6.202  -0.820   0.969  0.00  0.00    +0.400 HD
ENDBRANCH  15  16
BRANCH  15  21
ATOM     21  O   LIG    1       -3.375  -1.292   3.751  0.00  0.00    -0.520 OA
ATOM     22  H   LIG    1       -3.148  -2.230   3.810  0.00  0.00    +0.390 HD
ENDBRANCH  15  21
ENDBRANCH  12  15
ENDBRANCH   1  12
TORSDOF 9
ENDMDL
MODEL      461
REMARK  Name = ZINC000001655603
REMARK                            x       y       z     vdW  Elec       q    Type
REMARK                         _______ _______ _______ _____ _____    ______ ____
ROOT
ATOM      1  C   LIG    1       -2.030  -0.519   1.326  0.00  0.00    +0.170 C 
ENDROOT
BRANCH   1   2
ATOM      2  O   LIG    1       -1.171  -0.837   2.423  0.00  0.00    -0.530 OA
ATOM      3  H   LIG    1       -0.874  -1.757   2.437  0.00  0.00    +0.370 HD
ENDBRANCH   1   2
BRANCH   1   4
ATOM      4  C   LIG    1       -1.293  -0.775   0.010  0.00  0.00    +0.190 C 
BRANCH   4   8
ATOM      5  N   LIG    1       -0.016   1.344   0.009  0.00  0.00    -0.850 N 
ATOM      6  H   LIG    1       -0.863   1.817   0.016  0.00  0.00    +0.400 HD
ATOM      7  H   LIG    1        0.817   1.840   0.004  0.00  0.00    +0.410 HD
ATOM      8  C   LIG    1        0.002  -0.004   0.002  0.00  0.00    +0.500 C 
ATOM      9  O   LIG    1        1.060  -0.596  -0.011  0.00  0.00    -0.530 OA
ENDBRANCH   4   8
BRANCH   4  10
ATOM     10  O   LIG    1       -1.016  -2.171  -0.117  0.00  0.00    -0.510 OA
ATOM     11  H   LIG    1       -0.466  -2.530   0.593  0.00  0.00    +0.380 HD
ENDBRANCH   4  10
ENDBRANCH   1   4
BRANCH   1  12
ATOM     12  C   LIG    1       -3.282  -1.397   1.388  0.00  0.00    +0.170 C 
BRANCH  12  13
ATOM     13  O   LIG    1       -2.914  -2.765   1.197  0.00  0.00    -0.530 OA
ATOM     14  H   LIG    1       -2.296  -3.102   1.860  0.00  0.00    +0.370 HD
ENDBRANCH  12  13
BRANCH  12  15
ATOM     15  C   LIG    1       -3.951  -1.235   2.754  0.00  0.00    +0.190 C 
BRANCH  15  16
ATOM     16  C   LIG    1       -5.113  -2.190   2.861  0.00  0.00    +0.500 C 
ATOM     17  O   LIG    1       -5.086  -3.088   3.676  0.00  0.00    -0.530 OA
ATOM     18  N   LIG    1       -6.180  -2.046   2.051  0.00  0.00    -0.850 N 
ATOM     19  H   LIG    1       -6.928  -2.660   2.120  0.00  0.00    +0.410 HD
ATOM     20  H   LIG    1       -6.201  -1.327   1.400  0.00  0.00    +0.400 HD
ENDBRANCH  15  16
BRANCH  15  21
ATOM     21  O   LIG    1       -3.004  -1.519   3.786  0.00  0.00    -0.510 OA
ATOM     22  H   LIG    1       -2.642  -2.415   3.751  0.00  0.00    +0.380 HD
ENDBRANCH  15  21
ENDBRANCH  12  15
ENDBRANCH   1  12
TORSDOF 9
ENDMDL
MODEL      462
REMARK  Name = ZINC000044960087
REMARK                            x       y       z     vdW  Elec       q    Type
REMARK                         _______ _______ _______ _____ _____    ______ ____
ROOT
ATOM      1  C   LIG    1       -1.136  -2.159   0.001  0.00  0.00    +0.270 C 
ATOM      2  C   LIG    1       -1.021  -2.662  -1.441  0.00  0.00    +0.160 C 
ATOM      3  C   LIG    1       -1.081  -4.191  -1.446  0.00  0.00    +0.300 C 
ATOM      4  O   LIG    1       -2.298  -4.622  -0.834  0.00  0.00    -0.380 OA
ATOM      5  C   LIG    1       -2.439  -4.221   0.530  0.00  0.00    +0.160 C 
ATOM      6  C   LIG    1       -2.433  -2.692   0.617  0.00  0.00    +0.160 C 
ENDROOT
BRANCH   1   9
ATOM      7  C   LIG    1       -0.018   1.503   0.010  0.00  0.00    +0.100 C 
ATOM      8  C   LIG    1        0.002  -0.004   0.002  0.00  0.00    +0.510 C 
ATOM      9  N   LIG    1       -1.156  -0.694   0.009  0.00  0.00    -0.710 N 
ATOM     10  H   LIG    1       -2.002  -0.220   0.020  0.00  0.00    +0.410 HD
ATOM     11  O   LIG    1        1.060  -0.596  -0.011  0.00  0.00    -0.550 OA
ENDBRANCH   1   9
BRANCH   3  12
ATOM     12  O   LIG    1       -1.030  -4.666  -2.793  0.00  0.00    -0.540 OA
ATOM     13  H   LIG    1       -1.064  -5.629  -2.872  0.00  0.00    +0.400 HD
ENDBRANCH   3  12
BRANCH   2  14
ATOM     14  O   LIG    1       -2.102  -2.138  -2.216  0.00  0.00    -0.550 OA
ATOM     15  H   LIG    1       -2.092  -2.417  -3.143  0.00  0.00    +0.390 HD
ENDBRANCH   2  14
BRANCH   6  16
ATOM     16  O   LIG    1       -2.517  -2.291   1.986  0.00  0.00    -0.550 OA
ATOM     17  H   LIG    1       -3.314  -2.599   2.438  0.00  0.00    +0.380 HD
ENDBRANCH   6  16
BRANCH   5  18
ATOM     18  C   LIG    1       -3.759  -4.758   1.087  0.00  0.00    +0.210 C 
BRANCH  18  19
ATOM     19  O   LIG    1       -3.717  -6.187   1.115  0.00  0.00    -0.560 OA
ATOM     20  H   LIG    1       -4.523  -6.597   1.457  0.00  0.00    +0.390 HD
ENDBRANCH  18  19
ENDBRANCH   5  18
TORSDOF 6
ENDMDL
MODEL      463
REMARK  Name = ZINC000087196326
REMARK                            x       y       z     vdW  Elec       q    Type
REMARK                         _______ _______ _______ _____ _____    ______ ____
ROOT
ATOM      1  C   LIG    1        0.847  -0.424  -1.486  0.00  0.00    -0.860 A 
ATOM      2  C   LIG    1        0.417  -0.168  -2.752  0.00  0.00    +0.470 A 
ATOM      3  N   LIG    1        1.350  -0.649  -3.605  0.00  0.00    -0.390 N 
ATOM      4  N   LIG    1        2.380  -1.214  -2.843  0.00  0.00    -0.290 NA
ATOM      5  C   LIG    1        2.081  -1.074  -1.577  0.00  0.00    +0.360 A 
ENDROOT
BRANCH   1   7
ATOM      6  C   LIG    1       -0.022   1.810   0.012  0.00  0.00    -0.280 C 
ATOM      7  S   LIG    1        0.002  -0.004   0.002  0.00  0.00    +2.540 S 
ATOM      8  O   LIG    1       -1.309  -0.519  -0.182  0.00  0.00    -0.940 OA
ATOM      9  O   LIG    1        0.845  -0.497   1.035  0.00  0.00    -0.940 OA
ENDBRANCH   1   7
BRANCH   2  10
ATOM     10  N   LIG    1       -0.768   0.472  -3.105  0.00  0.00    -0.840 N 
ATOM     11  H   LIG    1       -0.986   0.608  -4.040  0.00  0.00    +0.410 HD
ATOM     12  H   LIG    1       -1.375   0.783  -2.415  0.00  0.00    +0.420 HD
ENDBRANCH   2  10
BRANCH   3  13
ATOM     13  C   LIG    1        1.294  -0.588  -5.068  0.00  0.00    +0.340 C 
BRANCH  13  14
ATOM     14  C   LIG    1        1.953   0.705  -5.551  0.00  0.00    +0.170 C 
BRANCH  14  15
ATOM     15  O   LIG    1        1.899   0.764  -6.977  0.00  0.00    -0.570 OA
ATOM     16  H   LIG    1        2.299   1.560  -7.354  0.00  0.00    +0.390 HD
ENDBRANCH  14  15
ENDBRANCH  13  14
ENDBRANCH   3  13
TORSDOF 5
ENDMDL
MODEL      464
REMARK  Name = ZINC000033902612
REMARK                            x       y       z     vdW  Elec       q    Type
REMARK                         _______ _______ _______ _____ _____    ______ ____
ROOT
ATOM      1  C   LIG    1       -6.275   1.186   0.038  0.00  0.00    +0.200 C 
ENDROOT
BRANCH   1   2
ATOM      2  C   LIG    1       -4.847   0.703   0.029  0.00  0.00    +0.320 C 
ATOM      3  O   LIG    1       -4.611  -0.481   0.021  0.00  0.00    -0.410 OA
BRANCH   2   4
ATOM      4  C   LIG    1       -3.715   1.698   0.029  0.00  0.00    +0.260 C 
BRANCH   4   5
ATOM      5  N   LIG    1       -2.433   0.981   0.019  0.00  0.00    -0.480 N 
ATOM      6  H   LIG    1       -2.368   0.397   0.839  0.00  0.00    +0.430 HD
ATOM      7  H   LIG    1       -2.376   0.406  -0.808  0.00  0.00    +0.430 HD
BRANCH   5   8
ATOM      8  C   LIG    1       -1.330   1.951   0.019  0.00  0.00    +0.180 C 
BRANCH   8  10
ATOM      9  O   LIG    1        0.002  -0.004   0.002  0.00  0.00    -0.670 OA
ATOM     10  C   LIG    1       -0.015   1.215   0.009  0.00  0.00    +0.480 C 
ATOM     11  O   LIG    1        1.033   1.839   0.002  0.00  0.00    -0.640 OA
ENDBRANCH   8  10
ENDBRANCH   5   8
ENDBRANCH   4   5
ENDBRANCH   2   4
ENDBRANCH   1   2
BRANCH   1  12
ATOM     12  O   LIG    1       -7.145   0.108  -0.312  0.00  0.00    -0.520 OA
ATOM     13  H   LIG    1       -7.095  -0.648   0.288  0.00  0.00    +0.380 HD
ENDBRANCH   1  12
BRANCH   1  14
ATOM     14  C   LIG    1       -6.631   1.696   1.436  0.00  0.00    +0.170 C 
BRANCH  14  15
ATOM     15  O   LIG    1       -6.370   0.671   2.398  0.00  0.00    -0.550 OA
ATOM     16  H   LIG    1       -6.874  -0.141   2.253  0.00  0.00    +0.390 HD
ENDBRANCH  14  15
BRANCH  14  17
ATOM     17  C   LIG    1       -8.114   2.070   1.480  0.00  0.00    +0.210 C 
BRANCH  17  18
ATOM     18  O   LIG    1       -8.376   3.094   0.518  0.00  0.00    -0.540 OA
ATOM     19  H   LIG    1       -7.872   3.907   0.663  0.00  0.00    +0.370 HD
ENDBRANCH  17  18
BRANCH  17  20
ATOM     20  C   LIG    1       -8.471   2.579   2.877  0.00  0.00    +0.160 C 
BRANCH  20  21
ATOM     21  O   LIG    1       -9.878   2.818   2.952  0.00  0.00    -0.560 OA
ATOM     22  H   LIG    1      -10.176   3.144   3.813  0.00  0.00    +0.390 HD
ENDBRANCH  20  21
ENDBRANCH  17  20
ENDBRANCH  14  17
ENDBRANCH   1  14
TORSDOF 12
ENDMDL
MODEL      465
REMARK  Name = ZINC000225961505
REMARK                            x       y       z     vdW  Elec       q    Type
REMARK                         _______ _______ _______ _____ _____    ______ ____
ROOT
ATOM      1  N   LIG    1       -2.510  -2.708   0.011  0.00  0.00    -0.990 NA
ATOM      2  C   LIG    1       -3.247  -2.851  -1.246  0.00  0.00    +0.300 C 
ENDROOT
BRANCH   1   3
ATOM      3  S   LIG    1       -3.230  -3.119   1.445  0.00  0.00    +2.790 S 
ATOM      4  O   LIG    1       -2.177  -3.407   2.355  0.00  0.00    -0.980 OA
ATOM      5  O   LIG    1       -4.257  -4.048   1.126  0.00  0.00    -0.970 OA
BRANCH   3   6
ATOM      6  N   LIG    1       -3.987  -1.763   2.020  0.00  0.00    -1.000 NA
ATOM      7  C   LIG    1       -3.266  -0.839   2.898  0.00  0.00    +0.300 C 
ATOM      8  C   LIG    1       -5.378  -1.489   1.651  0.00  0.00    +0.300 C 
ENDBRANCH   3   6
ENDBRANCH   1   3
BRANCH   1   9
ATOM      9  C   LIG    1       -1.135  -2.201   0.001  0.00  0.00    +0.340 C 
BRANCH   9  13
ATOM     10  C   LIG    1       -0.018   1.461   0.010  0.00  0.00    +0.290 C 
ATOM     11  N   LIG    1        0.002  -0.004   0.002  0.00  0.00    -0.730 N 
ATOM     12  H   LIG    1        0.849  -0.478  -0.009  0.00  0.00    +0.400 HD
ATOM     13  C   LIG    1       -1.156  -0.694   0.009  0.00  0.00    +0.480 C 
ATOM     14  O   LIG    1       -2.214  -0.102   0.023  0.00  0.00    -0.520 OA
ENDBRANCH   9  13
ENDBRANCH   1   9
TORSDOF 4
ENDMDL
MODEL      466
REMARK  Name = ZINC000050855556
REMARK                            x       y       z     vdW  Elec       q    Type
REMARK                         _______ _______ _______ _____ _____    ______ ____
ROOT
ATOM      1  C   LIG    1       -1.333  -0.540  -0.022  0.00  0.00    +0.150 C 
ATOM      2  C   LIG    1       -2.030  -0.518   1.343  0.00  0.00    +0.290 C 
ATOM      3  N   LIG    1       -3.212  -1.391   1.274  0.00  0.00    -0.590 N 
ATOM      4  C   LIG    1       -3.035  -2.755   0.752  0.00  0.00    +0.270 C 
ATOM      5  C   LIG    1       -2.288  -2.668  -0.585  0.00  0.00    +0.230 C 
ATOM      6  C   LIG    1       -4.422  -0.955   1.678  0.00  0.00    +0.580 C 
ATOM      7  O   LIG    1       -4.553   0.183   2.083  0.00  0.00    -0.520 OA
ATOM      8  O   LIG    1       -1.099  -1.895  -0.410  0.00  0.00    -0.350 OA
ENDROOT
BRANCH   6   9
ATOM      9  C   LIG    1       -5.592  -1.862   1.627  0.00  0.00    +0.030 A 
ATOM     10  C   LIG    1       -6.877  -1.357   1.814  0.00  0.00    +0.310 A 
ATOM     11  N   LIG    1       -7.917  -2.170   1.768  0.00  0.00    -0.430 NA
ATOM     12  C   LIG    1       -7.740  -3.460   1.546  0.00  0.00    +0.260 A 
ATOM     13  C   LIG    1       -6.461  -3.967   1.361  0.00  0.00    +0.230 A 
ATOM     14  N   LIG    1       -5.419  -3.161   1.399  0.00  0.00    -0.410 NA
ENDBRANCH   6   9
BRANCH   1  18
ATOM     15  N   LIG    1        0.001   1.514   0.329  0.00  0.00    -0.850 N 
ATOM     16  H   LIG    1       -0.832   1.997   0.448  0.00  0.00    +0.400 HD
ATOM     17  H   LIG    1        0.847   1.984   0.390  0.00  0.00    +0.410 HD
ATOM     18  C   LIG    1       -0.018   0.191   0.073  0.00  0.00    +0.530 C 
ATOM     19  O   LIG    1        1.023  -0.412  -0.081  0.00  0.00    -0.510 OA
ENDBRANCH   1  18
TORSDOF 2
ENDMDL
MODEL      467
REMARK  Name = ZINC000004683172
REMARK                            x       y       z     vdW  Elec       q    Type
REMARK                         _______ _______ _______ _____ _____    ______ ____
ROOT
ATOM      1  C   LIG    1       -1.293  -0.775   0.010  0.00  0.00    +0.230 C 
ATOM      2  O   LIG    1       -1.015  -2.175   0.113  0.00  0.00    -0.350 OA
ATOM      3  C   LIG    1       -0.259  -2.693  -0.984  0.00  0.00    +0.430 C 
ATOM      4  O   LIG    1       -0.974  -2.470  -2.201  0.00  0.00    -0.370 OA
ATOM      5  C   LIG    1       -1.254  -1.093  -2.464  0.00  0.00    +0.110 C 
ATOM      6  C   LIG    1       -2.078  -0.980  -3.751  0.00  0.00    +0.230 C 
ATOM      7  O   LIG    1       -3.363  -1.575  -3.533  0.00  0.00    -0.360 OA
ATOM      8  C   LIG    1       -4.097  -1.010  -2.444  0.00  0.00    +0.410 C 
ATOM      9  O   LIG    1       -3.337  -1.142  -1.240  0.00  0.00    -0.370 OA
ATOM     10  C   LIG    1       -2.055  -0.510  -1.291  0.00  0.00    +0.120 C 
ENDROOT
BRANCH   1  14
ATOM     11  N   LIG    1       -0.016   1.344   0.009  0.00  0.00    -0.850 N 
ATOM     12  H   LIG    1       -0.863   1.817   0.016  0.00  0.00    +0.400 HD
ATOM     13  H   LIG    1        0.817   1.840   0.004  0.00  0.00    +0.410 HD
ATOM     14  C   LIG    1        0.002  -0.004   0.002  0.00  0.00    +0.500 C 
ATOM     15  O   LIG    1        1.060  -0.596  -0.011  0.00  0.00    -0.520 OA
ENDBRANCH   1  14
BRANCH   6  16
ATOM     16  C   LIG    1       -2.251   0.499  -4.100  0.00  0.00    +0.150 C 
BRANCH  16  17
ATOM     17  O   LIG    1       -2.937   0.617  -5.348  0.00  0.00    -0.560 OA
ATOM     18  H   LIG    1       -3.082   1.530  -5.633  0.00  0.00    +0.390 HD
ENDBRANCH  16  17
ENDBRANCH   6  16
TORSDOF 3
ENDMDL
MODEL      468
REMARK  Name = ZINC000004683171
REMARK                            x       y       z     vdW  Elec       q    Type
REMARK                         _______ _______ _______ _____ _____    ______ ____
ROOT
ATOM      1  C   LIG    1       -1.293  -0.775   0.010  0.00  0.00    +0.180 C 
ATOM      2  O   LIG    1       -1.019  -2.180   0.102  0.00  0.00    -0.360 OA
ATOM      3  C   LIG    1       -2.175  -3.016   0.041  0.00  0.00    +0.430 C 
ATOM      4  O   LIG    1       -2.910  -2.764  -1.163  0.00  0.00    -0.380 OA
ATOM      5  C   LIG    1       -3.312  -1.401  -1.290  0.00  0.00    +0.120 C 
ATOM      6  C   LIG    1       -4.071  -1.151  -2.592  0.00  0.00    +0.230 C 
ATOM      7  O   LIG    1       -4.344   0.254  -2.685  0.00  0.00    -0.370 OA
ATOM      8  C   LIG    1       -3.189   1.091  -2.623  0.00  0.00    +0.420 C 
ATOM      9  O   LIG    1       -2.455   0.839  -1.418  0.00  0.00    -0.380 OA
ATOM     10  C   LIG    1       -2.052  -0.523  -1.292  0.00  0.00    +0.120 C 
ENDROOT
BRANCH   1  14
ATOM     11  N   LIG    1       -0.016   1.344   0.009  0.00  0.00    -0.840 N 
ATOM     12  H   LIG    1       -0.863   1.817   0.016  0.00  0.00    +0.410 HD
ATOM     13  H   LIG    1        0.817   1.840   0.004  0.00  0.00    +0.410 HD
ATOM     14  C   LIG    1        0.002  -0.004   0.002  0.00  0.00    +0.530 C 
ATOM     15  O   LIG    1        1.060  -0.596  -0.011  0.00  0.00    -0.520 OA
ENDBRANCH   1  14
BRANCH   6  16
ATOM     16  C   LIG    1       -3.214  -1.591  -3.781  0.00  0.00    +0.170 C 
BRANCH  16  17
ATOM     17  O   LIG    1       -3.960  -1.433  -4.990  0.00  0.00    -0.560 OA
ATOM     18  H   LIG    1       -3.478  -1.694  -5.786  0.00  0.00    +0.380 HD
ENDBRANCH  16  17
ENDBRANCH   6  16
TORSDOF 3
ENDMDL
MODEL      469
REMARK  Name = ZINC000001590251
REMARK                            x       y       z     vdW  Elec       q    Type
REMARK                         _______ _______ _______ _____ _____    ______ ____
ROOT
ATOM      1  C   UNK A  1        1.479  -2.361  -2.569  0.00  0.00    +0.300 C 
ATOM      2  N   UNK A  1        1.919  -3.720  -2.283  0.00  0.00    -0.700 N 
ATOM      3  H   UNK A  1        2.727  -3.846  -1.763  0.00  0.00    +0.420 HD
ATOM      4  C   ALA A  2        1.256  -4.800  -2.708  0.00  0.00    +0.530 C 
ATOM      5  CA  ALA A  2       -0.001  -4.713  -3.519  0.00  0.00    +0.240 C 
ATOM      6  N   ALA A  2       -0.133  -3.408  -4.152  0.00  0.00    -0.710 N 
ATOM      7  H   ALA A  2       -0.729  -3.319  -4.912  0.00  0.00    +0.420 HD
ATOM      8  CB  ALA A  2        0.025  -5.794  -4.602  0.00  0.00    +0.090 C 
ATOM      9  O   ALA A  2        1.690  -5.897  -2.424  0.00  0.00    -0.510 OA
ATOM     10  C   UNK A  1        0.533  -2.328  -3.731  0.00  0.00    +0.530 C 
ATOM     11  O   UNK A  1        0.365  -1.278  -4.314  0.00  0.00    -0.500 OA
ENDROOT
BRANCH   1  12
ATOM     12  C   UNK A  1        0.786  -1.801  -1.353  0.00  0.00    +0.450 C 
ATOM     13  O   UNK A  1        0.325  -2.548  -0.523  0.00  0.00    -0.480 OA
BRANCH  12  14
ATOM     14  O   UNK A  1        0.682  -0.472  -1.193  0.00  0.00    -0.340 OA
BRANCH  14  16
ATOM     15  C   UNK A  1       -0.019   1.526   0.010  0.00  0.00    +0.070 C 
ATOM     16  C   UNK A  1        0.002  -0.004   0.002  0.00  0.00    +0.200 C 
ENDBRANCH  14  16
ENDBRANCH  12  14
ENDBRANCH   1  12
TORSDOF 3
ENDMDL
MODEL      470
REMARK  Name = ZINC000001715398
REMARK                            x       y       z     vdW  Elec       q    Type
REMARK                         _______ _______ _______ _____ _____    ______ ____
ROOT
ATOM      1  N   LIG    1        0.738  -1.962  -1.265  0.00  0.00    -0.690 N 
ATOM      2  H   LIG    1        0.332  -2.457  -0.536  0.00  0.00    +0.420 HD
ATOM      3  C   LIG    1        1.321  -2.623  -2.285  0.00  0.00    +0.510 C 
ATOM      4  O   LIG    1        1.830  -2.004  -3.196  0.00  0.00    -0.520 OA
ENDROOT
BRANCH   3   5
ATOM      5  C   LIG    1        1.341  -4.117  -2.293  0.00  0.00    +0.510 C 
ATOM      6  N   LIG    1        1.924  -4.778  -3.313  0.00  0.00    -0.690 N 
ATOM      7  H   LIG    1        2.331  -4.283  -4.042  0.00  0.00    +0.420 HD
ATOM      8  O   LIG    1        0.833  -4.736  -1.381  0.00  0.00    -0.520 OA
BRANCH   6   9
ATOM      9  C   LIG    1        1.944  -6.242  -3.321  0.00  0.00    +0.250 C 
BRANCH   9  10
ATOM     10  C   LIG    1        2.660  -6.736  -4.580  0.00  0.00    +0.120 C 
ATOM     11  C   LIG    1        1.995  -6.128  -5.816  0.00  0.00    +0.070 C 
ATOM     12  C   LIG    1        2.572  -8.262  -4.652  0.00  0.00    +0.020 C 
BRANCH  10  13
ATOM     13  O   LIG    1        4.032  -6.339  -4.534  0.00  0.00    -0.560 OA
ATOM     14  H   LIG    1        4.518  -6.689  -3.774  0.00  0.00    +0.380 HD
ENDBRANCH  10  13
ENDBRANCH   9  10
ENDBRANCH   6   9
ENDBRANCH   3   5
BRANCH   1  15
ATOM     15  C   LIG    1        0.718  -0.497  -1.257  0.00  0.00    +0.250 C 
BRANCH  15  17
ATOM     16  C   LIG    1       -0.019   1.526   0.010  0.00  0.00    +0.020 C 
ATOM     17  C   LIG    1        0.002  -0.004   0.002  0.00  0.00    +0.120 C 
ATOM     18  C   LIG    1        0.742  -0.511   1.242  0.00  0.00    +0.060 C 
BRANCH  17  19
ATOM     19  O   LIG    1       -1.339  -0.499   0.012  0.00  0.00    -0.560 OA
ATOM     20  H   LIG    1       -1.868  -0.216  -0.746  0.00  0.00    +0.380 HD
ENDBRANCH  17  19
ENDBRANCH  15  17
ENDBRANCH   1  15
TORSDOF 7
ENDMDL
MODEL      471
REMARK  Name = ZINC000001709544
REMARK                            x       y       z     vdW  Elec       q    Type
REMARK                         _______ _______ _______ _____ _____    ______ ____
ROOT
ATOM      1  C   LIG    1       -0.018   1.503   0.010  0.00  0.00    +0.150 C 
ATOM      2  C   LIG    1        0.002  -0.004   0.002  0.00  0.00    +0.230 A 
ATOM      3  C   LIG    1        0.006  -0.682  -1.170  0.00  0.00    -0.150 A 
ATOM      4  C   LIG    1        0.025  -2.092  -1.144  0.00  0.00    +0.510 A 
ATOM      5  N   LIG    1        0.039  -2.726   0.021  0.00  0.00    -0.620 NA
ATOM      6  C   LIG    1        0.035  -2.045   1.166  0.00  0.00    +0.660 A 
ATOM      7  O   LIG    1        0.049  -2.651   2.225  0.00  0.00    -0.530 OA
ATOM      8  N   LIG    1        0.023  -0.699   1.174  0.00  0.00    -0.530 N 
ENDROOT
BRANCH   8   9
ATOM      9  C1* LIG    1        0.019   0.022   2.449  0.00  0.00    +0.400 C 
ATOM     10  C2* LIG    1       -1.278  -0.287   3.238  0.00  0.00    +0.010 C 
ATOM     11  C3* LIG    1       -0.811  -0.009   4.693  0.00  0.00    +0.170 C 
ATOM     12  C4* LIG    1        0.665  -0.461   4.656  0.00  0.00    +0.210 C 
ATOM     13  O4* LIG    1        1.090  -0.441   3.287  0.00  0.00    -0.350 OA
BRANCH  11  14
ATOM     14  O3* LIG    1       -0.913   1.382   5.003  0.00  0.00    -0.560 OA
ATOM     15  H3* LIG    1       -1.814   1.731   4.953  0.00  0.00    +0.390 HD
ENDBRANCH  11  14
BRANCH  12  16
ATOM     16  C5* LIG    1        1.523   0.500   5.480  0.00  0.00    +0.200 C 
BRANCH  16  17
ATOM     17  O5* LIG    1        2.865   0.012   5.537  0.00  0.00    -0.570 OA
ATOM     18  H5* LIG    1        3.466   0.573   6.045  0.00  0.00    +0.380 HD
ENDBRANCH  16  17
ENDBRANCH  12  16
ENDBRANCH   8   9
BRANCH   4  19
ATOM     19  N   LIG    1        0.030  -2.806  -2.320  0.00  0.00    -0.820 N 
ATOM     20  H   LIG    1        0.043  -3.775  -2.298  0.00  0.00    +0.410 HD
ATOM     21  H   LIG    1        0.020  -2.339  -3.170  0.00  0.00    +0.410 HD
ENDBRANCH   4  19
TORSDOF 5
ENDMDL
MODEL      472
REMARK  Name = ZINC000004683170
REMARK                            x       y       z     vdW  Elec       q    Type
REMARK                         _______ _______ _______ _____ _____    ______ ____
ROOT
ATOM      1  C   LIG    1       -1.293  -0.775   0.010  0.00  0.00    +0.180 C 
ATOM      2  O   LIG    1       -1.019  -2.180   0.102  0.00  0.00    -0.360 OA
ATOM      3  C   LIG    1       -2.175  -3.016   0.041  0.00  0.00    +0.430 C 
ATOM      4  O   LIG    1       -2.910  -2.764  -1.163  0.00  0.00    -0.380 OA
ATOM      5  C   LIG    1       -3.312  -1.401  -1.289  0.00  0.00    +0.120 C 
ATOM      6  C   LIG    1       -4.071  -1.151  -2.592  0.00  0.00    +0.180 C 
ATOM      7  O   LIG    1       -4.344   0.254  -2.684  0.00  0.00    -0.370 OA
ATOM      8  C   LIG    1       -3.188   1.090  -2.624  0.00  0.00    +0.420 C 
ATOM      9  O   LIG    1       -2.454   0.838  -1.419  0.00  0.00    -0.380 OA
ATOM     10  C   LIG    1       -2.052  -0.523  -1.292  0.00  0.00    +0.120 C 
ENDROOT
BRANCH   1  14
ATOM     11  N   LIG    1       -0.016   1.344   0.009  0.00  0.00    -0.840 N 
ATOM     12  H   LIG    1       -0.863   1.817   0.016  0.00  0.00    +0.410 HD
ATOM     13  H   LIG    1        0.817   1.840   0.004  0.00  0.00    +0.410 HD
ATOM     14  C   LIG    1        0.002  -0.004   0.002  0.00  0.00    +0.530 C 
ATOM     15  O   LIG    1        1.060  -0.596  -0.011  0.00  0.00    -0.520 OA
ENDBRANCH   1  14
BRANCH   6  16
ATOM     16  C   LIG    1       -5.385  -1.934  -2.584  0.00  0.00    +0.220 C 
BRANCH  16  17
ATOM     17  O   LIG    1       -6.034  -1.789  -3.849  0.00  0.00    -0.570 OA
ATOM     18  H   LIG    1       -6.876  -2.261  -3.915  0.00  0.00    +0.390 HD
ENDBRANCH  16  17
ENDBRANCH   6  16
TORSDOF 3
ENDMDL
MODEL      473
REMARK  Name = ZINC000257335149
REMARK                            x       y       z     vdW  Elec       q    Type
REMARK                         _______ _______ _______ _____ _____    ______ ____
ROOT
ATOM      1  N   LIG    1       -2.514  -2.709   0.011  0.00  0.00    -0.520 NA
ATOM      2  C   LIG    1       -3.220  -2.337  -1.219  0.00  0.00    +0.190 C 
ATOM      3  C   LIG    1       -4.688  -2.774  -1.140  0.00  0.00    +0.080 C 
ATOM      4  C   LIG    1       -4.734  -4.284  -0.920  0.00  0.00    +0.140 C 
ATOM      5  O   LIG    1       -6.072  -4.763  -0.797  0.00  0.00    -0.360 OA
ATOM      6  C   LIG    1       -6.142  -6.193  -0.779  0.00  0.00    +0.270 C 
ATOM      7  C   LIG    1       -5.107  -6.764   0.148  0.00  0.00    +0.490 C 
ATOM      8  N   LIG    1       -4.094  -6.039   0.647  0.00  0.00    -0.720 N 
ATOM      9  H   LIG    1       -3.424  -6.472   1.199  0.00  0.00    +0.400 HD
ATOM     10  O   LIG    1       -5.191  -7.934   0.459  0.00  0.00    -0.540 OA
ATOM     11  C   LIG    1       -3.990  -4.612   0.379  0.00  0.00    +0.210 C 
ATOM     12  C   LIG    1       -2.538  -4.162   0.242  0.00  0.00    +0.190 C 
ENDROOT
BRANCH   1  13
ATOM     13  C   LIG    1       -1.135  -2.201   0.001  0.00  0.00    +0.220 C 
BRANCH  13  17
ATOM     14  C   LIG    1       -0.018   1.461   0.010  0.00  0.00    +0.290 C 
ATOM     15  N   LIG    1        0.002  -0.004   0.002  0.00  0.00    -0.740 N 
ATOM     16  H   LIG    1        0.849  -0.478  -0.009  0.00  0.00    +0.400 HD
ATOM     17  C   LIG    1       -1.156  -0.694   0.009  0.00  0.00    +0.510 C 
ATOM     18  O   LIG    1       -2.214  -0.102   0.023  0.00  0.00    -0.520 OA
ENDBRANCH  13  17
ENDBRANCH   1  13
TORSDOF 2
ENDMDL
MODEL      474
REMARK  Name = ZINC000004543568
REMARK                            x       y       z     vdW  Elec       q    Type
REMARK                         _______ _______ _______ _____ _____    ______ ____
ROOT
ATOM      1  C5M   T A  1       -0.019   1.526   0.010  0.00  0.00    +0.090 C 
ATOM      2  C5    T A  1        0.002  -0.004   0.002  0.00  0.00    -0.010 C 
ATOM      3  C6    T A  1        0.721  -0.499  -1.255  0.00  0.00    +0.310 C 
ATOM      4  N1    T A  1        1.024  -1.924  -1.116  0.00  0.00    -0.610 N 
ATOM      5  C2    T A  1        1.365  -2.445   0.074  0.00  0.00    +0.720 C 
ATOM      6  N3    T A  1        1.333  -1.710   1.198  0.00  0.00    -0.670 N 
ATOM      7  H3    T A  1        1.748  -2.053   2.005  0.00  0.00    +0.430 HD
ATOM      8  O2    T A  1        1.712  -3.608   0.135  0.00  0.00    -0.550 OA
ATOM      9  C4    T A  1        0.734  -0.505   1.222  0.00  0.00    +0.520 C 
ATOM     10  O4    T A  1        0.785   0.178   2.222  0.00  0.00    -0.490 OA
ENDROOT
BRANCH   4  11
ATOM     11  C1*   T A  1        0.955  -2.795  -2.292  0.00  0.00    +0.430 C 
ATOM     12  C2*   T A  1        2.345  -3.411  -2.598  0.00  0.00    +0.010 C 
ATOM     13  C3*   T A  1        2.236  -3.721  -4.111  0.00  0.00    +0.160 C 
ATOM     14  C4*   T A  1        1.099  -2.805  -4.604  0.00  0.00    +0.180 C 
ATOM     15  O4*   T A  1        0.655  -2.027  -3.477  0.00  0.00    -0.360 OA
BRANCH  13  16
ATOM     16  O3*   T A  1        3.461  -3.403  -4.775  0.00  0.00    -0.560 OA
ATOM     17  H3*   T A  1        4.222  -3.912  -4.462  0.00  0.00    +0.390 HD
ENDBRANCH  13  16
BRANCH  14  18
ATOM     18  C5*   T A  1        1.617  -1.881  -5.708  0.00  0.00    +0.220 C 
BRANCH  18  19
ATOM     19  O5*   T A  1        0.531  -1.118  -6.239  0.00  0.00    -0.570 OA
ATOM     20  H5*   T A  1        0.786  -0.510  -6.945  0.00  0.00    +0.380 HD
ENDBRANCH  18  19
ENDBRANCH  14  18
ENDBRANCH   4  11
TORSDOF 4
ENDMDL
MODEL      475
REMARK  Name = ZINC000000057286
REMARK                            x       y       z     vdW  Elec       q    Type
REMARK                         _______ _______ _______ _____ _____    ______ ____
ROOT
ATOM      1  C5M   T A  1       -0.019   1.526   0.010  0.00  0.00    +0.090 C 
ATOM      2  C5    T A  1        0.002  -0.004   0.002  0.00  0.00    -0.010 C 
ATOM      3  C6    T A  1        0.721  -0.499  -1.255  0.00  0.00    +0.310 C 
ATOM      4  N1    T A  1        1.024  -1.924  -1.116  0.00  0.00    -0.610 N 
ATOM      5  C2    T A  1        1.365  -2.445   0.074  0.00  0.00    +0.720 C 
ATOM      6  N3    T A  1        1.333  -1.710   1.198  0.00  0.00    -0.670 N 
ATOM      7  H3    T A  1        1.748  -2.053   2.005  0.00  0.00    +0.430 HD
ATOM      8  O2    T A  1        1.712  -3.608   0.135  0.00  0.00    -0.550 OA
ATOM      9  C4    T A  1        0.734  -0.505   1.222  0.00  0.00    +0.520 C 
ATOM     10  O4    T A  1        0.785   0.178   2.222  0.00  0.00    -0.490 OA
ENDROOT
BRANCH   4  11
ATOM     11  C1*   T A  1        0.955  -2.795  -2.292  0.00  0.00    +0.430 C 
ATOM     12  C2*   T A  1        2.345  -3.411  -2.598  0.00  0.00    +0.010 C 
ATOM     13  C3*   T A  1        2.236  -3.721  -4.111  0.00  0.00    +0.160 C 
ATOM     14  C4*   T A  1        1.099  -2.805  -4.604  0.00  0.00    +0.190 C 
ATOM     15  O4*   T A  1        0.655  -2.027  -3.477  0.00  0.00    -0.360 OA
BRANCH  13  16
ATOM     16  O3*   T A  1        1.901  -5.094  -4.317  0.00  0.00    -0.560 OA
ATOM     17  H3*   T A  1        2.557  -5.715  -3.973  0.00  0.00    +0.390 HD
ENDBRANCH  13  16
BRANCH  14  18
ATOM     18  C5*   T A  1        1.617  -1.881  -5.708  0.00  0.00    +0.210 C 
BRANCH  18  19
ATOM     19  O5*   T A  1        0.531  -1.118  -6.239  0.00  0.00    -0.560 OA
ATOM     20  H5*   T A  1        0.786  -0.510  -6.945  0.00  0.00    +0.380 HD
ENDBRANCH  18  19
ENDBRANCH  14  18
ENDBRANCH   4  11
TORSDOF 4
ENDMDL
MODEL      476
REMARK  Name = ZINC000004543570
REMARK                            x       y       z     vdW  Elec       q    Type
REMARK                         _______ _______ _______ _____ _____    ______ ____
ROOT
ATOM      1  C5M   T A  1       -0.019   1.526   0.010  0.00  0.00    +0.100 C 
ATOM      2  C5    T A  1        0.002  -0.004   0.002  0.00  0.00    -0.010 C 
ATOM      3  C6    T A  1        0.721  -0.499  -1.255  0.00  0.00    +0.290 C 
ATOM      4  N1    T A  1        1.024  -1.924  -1.116  0.00  0.00    -0.610 N 
ATOM      5  C2    T A  1        1.365  -2.445   0.074  0.00  0.00    +0.710 C 
ATOM      6  N3    T A  1        1.333  -1.710   1.198  0.00  0.00    -0.680 N 
ATOM      7  H3    T A  1        1.748  -2.053   2.005  0.00  0.00    +0.430 HD
ATOM      8  O2    T A  1        1.712  -3.608   0.135  0.00  0.00    -0.540 OA
ATOM      9  C4    T A  1        0.734  -0.505   1.222  0.00  0.00    +0.520 C 
ATOM     10  O4    T A  1        0.785   0.178   2.222  0.00  0.00    -0.490 OA
ENDROOT
BRANCH   4  11
ATOM     11  C1*   T A  1        0.955  -2.795  -2.292  0.00  0.00    +0.430 C 
ATOM     12  C2*   T A  1        2.355  -3.378  -2.613  0.00  0.00    -0.000 C 
ATOM     13  C3*   T A  1        1.967  -4.673  -3.378  0.00  0.00    +0.170 C 
ATOM     14  C4*   T A  1        0.665  -5.097  -2.665  0.00  0.00    +0.200 C 
ATOM     15  O4*   T A  1        0.125  -3.936  -2.020  0.00  0.00    -0.360 OA
BRANCH  13  16
ATOM     16  O3*   T A  1        1.728  -4.395  -4.759  0.00  0.00    -0.560 OA
ATOM     17  H3*   T A  1        2.497  -4.043  -5.228  0.00  0.00    +0.390 HD
ENDBRANCH  13  16
BRANCH  14  18
ATOM     18  C5*   T A  1       -0.336  -5.634  -3.689  0.00  0.00    +0.200 C 
BRANCH  18  19
ATOM     19  O5*   T A  1       -1.491  -6.132  -3.011  0.00  0.00    -0.570 OA
ATOM     20  H5*   T A  1       -2.170  -6.489  -3.600  0.00  0.00    +0.380 HD
ENDBRANCH  18  19
ENDBRANCH  14  18
ENDBRANCH   4  11
TORSDOF 4
ENDMDL
MODEL      477
REMARK  Name = ZINC000004721254
REMARK                            x       y       z     vdW  Elec       q    Type
REMARK                         _______ _______ _______ _____ _____    ______ ____
ROOT
ATOM      1  C   LIG    1       -1.056  -2.140   0.001  0.00  0.00    +0.310 C 
ATOM      2  O   LIG    1       -0.468  -2.571  -1.229  0.00  0.00    -0.370 OA
ATOM      3  C   LIG    1       -0.303  -3.987  -1.331  0.00  0.00    +0.190 C 
ATOM      4  C   LIG    1       -1.673  -4.666  -1.250  0.00  0.00    +0.180 C 
ATOM      5  C   LIG    1       -2.352  -4.271   0.065  0.00  0.00    +0.200 C 
ATOM      6  C   LIG    1        0.581  -4.482  -0.185  0.00  0.00    +0.020 C 
ATOM      7  C   LIG    1       -2.455  -2.745   0.136  0.00  0.00    +0.140 C 
ENDROOT
BRANCH   5   8
ATOM      8  O   LIG    1       -3.661  -4.843   0.118  0.00  0.00    -0.540 OA
ATOM      9  H   LIG    1       -4.150  -4.634   0.925  0.00  0.00    +0.380 HD
ENDBRANCH   5   8
BRANCH   4  10
ATOM     10  O   LIG    1       -1.506  -6.085  -1.295  0.00  0.00    -0.550 OA
ATOM     11  H   LIG    1       -1.077  -6.404  -2.101  0.00  0.00    +0.380 HD
ENDBRANCH   4  10
BRANCH   7  12
ATOM     12  O   LIG    1       -3.285  -2.272  -0.927  0.00  0.00    -0.540 OA
ATOM     13  H   LIG    1       -3.395  -1.312  -0.943  0.00  0.00    +0.390 HD
ENDBRANCH   7  12
BRANCH   1  14
ATOM     14  O   LIG    1       -1.151  -0.691   0.009  0.00  0.00    -0.350 OA
BRANCH  14  16
ATOM     15  C   LIG    1       -0.018   1.503   0.010  0.00  0.00    +0.150 C 
ATOM     16  C   LIG    1        0.002  -0.004   0.002  0.00  0.00    +0.460 C 
ATOM     17  O   LIG    1        1.056  -0.594  -0.011  0.00  0.00    -0.490 OA
ENDBRANCH  14  16
ENDBRANCH   1  14
TORSDOF 5
ENDMDL
MODEL      478
REMARK  Name = ZINC000001078610
REMARK                            x       y       z     vdW  Elec       q    Type
REMARK                         _______ _______ _______ _____ _____    ______ ____
ROOT
ATOM      1  C5M   T A  1       -0.019   1.526   0.010  0.00  0.00    +0.100 C 
ATOM      2  C5    T A  1        0.002  -0.004   0.002  0.00  0.00    -0.010 C 
ATOM      3  C6    T A  1        0.721  -0.499  -1.255  0.00  0.00    +0.300 C 
ATOM      4  N1    T A  1        1.024  -1.924  -1.116  0.00  0.00    -0.610 N 
ATOM      5  C2    T A  1        1.365  -2.445   0.074  0.00  0.00    +0.710 C 
ATOM      6  N3    T A  1        1.333  -1.710   1.198  0.00  0.00    -0.680 N 
ATOM      7  H3    T A  1        1.748  -2.053   2.005  0.00  0.00    +0.430 HD
ATOM      8  O2    T A  1        1.712  -3.608   0.135  0.00  0.00    -0.540 OA
ATOM      9  C4    T A  1        0.734  -0.505   1.222  0.00  0.00    +0.520 C 
ATOM     10  O4    T A  1        0.785   0.178   2.222  0.00  0.00    -0.490 OA
ENDROOT
BRANCH   4  11
ATOM     11  C1*   T A  1        0.955  -2.795  -2.292  0.00  0.00    +0.430 C 
ATOM     12  C2*   T A  1        2.349  -3.380  -2.611  0.00  0.00    +0.000 C 
ATOM     13  C3*   T A  1        2.053  -4.821  -3.083  0.00  0.00    +0.160 C 
ATOM     14  C4*   T A  1        0.515  -4.936  -2.994  0.00  0.00    +0.180 C 
ATOM     15  O4*   T A  1        0.124  -3.944  -2.019  0.00  0.00    -0.350 OA
BRANCH  13  16
ATOM     16  O3*   T A  1        2.495  -5.008  -4.429  0.00  0.00    -0.560 OA
ATOM     17  H3*   T A  1        3.446  -4.887  -4.551  0.00  0.00    +0.390 HD
ENDBRANCH  13  16
BRANCH  14  18
ATOM     18  C5*   T A  1        0.112  -6.336  -2.526  0.00  0.00    +0.210 C 
BRANCH  18  19
ATOM     19  O5*   T A  1       -1.312  -6.459  -2.562  0.00  0.00    -0.570 OA
ATOM     20  H5*   T A  1       -1.639  -7.323  -2.278  0.00  0.00    +0.380 HD
ENDBRANCH  18  19
ENDBRANCH  14  18
ENDBRANCH   4  11
TORSDOF 4
ENDMDL
MODEL      479
REMARK  Name = ZINC000034800340
REMARK                            x       y       z     vdW  Elec       q    Type
REMARK                         _______ _______ _______ _____ _____    ______ ____
ROOT
ATOM      1  C   LIG    1       -1.293  -0.775   0.010  0.00  0.00    +0.260 C 
ATOM      2  O   LIG    1       -1.014  -2.173   0.119  0.00  0.00    -0.380 OA
ATOM      3  C   LIG    1       -2.178  -3.002   0.110  0.00  0.00    +0.310 C 
ATOM      4  C   LIG    1       -3.065  -2.648   1.307  0.00  0.00    +0.130 C 
ATOM      5  C   LIG    1       -3.430  -1.162   1.239  0.00  0.00    +0.230 C 
ATOM      6  C   LIG    1       -2.143  -0.332   1.203  0.00  0.00    +0.190 C 
ENDROOT
BRANCH   1  10
ATOM      7  N   LIG    1       -0.016   1.344   0.009  0.00  0.00    -0.840 N 
ATOM      8  H   LIG    1       -0.863   1.817   0.016  0.00  0.00    +0.410 HD
ATOM      9  H   LIG    1        0.817   1.840   0.004  0.00  0.00    +0.410 HD
ATOM     10  C   LIG    1        0.002  -0.004   0.002  0.00  0.00    +0.500 C 
ATOM     11  O   LIG    1        1.060  -0.596  -0.011  0.00  0.00    -0.500 OA
ENDBRANCH   1  10
BRANCH   5  12
ATOM     12  O   LIG    1       -4.199  -0.806   2.390  0.00  0.00    -0.540 OA
ATOM     13  H   LIG    1       -5.026  -1.299   2.479  0.00  0.00    +0.380 HD
ENDBRANCH   5  12
BRANCH   4  14
ATOM     14  O   LIG    1       -2.357  -2.912   2.520  0.00  0.00    -0.520 OA
ATOM     15  H   LIG    1       -2.090  -3.835   2.626  0.00  0.00    +0.380 HD
ENDBRANCH   4  14
BRANCH   3  16
ATOM     16  O   LIG    1       -1.787  -4.373   0.196  0.00  0.00    -0.540 OA
ATOM     17  H   LIG    1       -1.221  -4.668  -0.532  0.00  0.00    +0.400 HD
ENDBRANCH   3  16
BRANCH   1  18
ATOM     18  O   LIG    1       -2.005  -0.524  -1.203  0.00  0.00    -0.550 OA
ATOM     19  H   LIG    1       -1.524  -0.781  -2.002  0.00  0.00    +0.400 HD
ENDBRANCH   1  18
BRANCH   6  20
ATOM     20  O   LIG    1       -1.412  -0.532   2.414  0.00  0.00    -0.500 OA
ATOM     21  H   LIG    1       -0.583  -0.035   2.460  0.00  0.00    +0.370 HD
ENDBRANCH   6  20
TORSDOF 6
ENDMDL
MODEL      480
REMARK  Name = ZINC000034800345
REMARK                            x       y       z     vdW  Elec       q    Type
REMARK                         _______ _______ _______ _____ _____    ______ ____
ROOT
ATOM      1  C   LIG    1       -1.293  -0.775   0.010  0.00  0.00    +0.260 C 
ATOM      2  O   LIG    1       -1.014  -2.173   0.119  0.00  0.00    -0.390 OA
ATOM      3  C   LIG    1       -2.178  -3.002   0.110  0.00  0.00    +0.330 C 
ATOM      4  C   LIG    1       -3.065  -2.648   1.307  0.00  0.00    +0.150 C 
ATOM      5  C   LIG    1       -3.430  -1.162   1.239  0.00  0.00    +0.220 C 
ATOM      6  C   LIG    1       -2.143  -0.332   1.203  0.00  0.00    +0.200 C 
ENDROOT
BRANCH   1  10
ATOM      7  N   LIG    1       -0.016   1.344   0.009  0.00  0.00    -0.840 N 
ATOM      8  H   LIG    1       -0.863   1.817   0.016  0.00  0.00    +0.410 HD
ATOM      9  H   LIG    1        0.817   1.840   0.004  0.00  0.00    +0.410 HD
ATOM     10  C   LIG    1        0.002  -0.004   0.002  0.00  0.00    +0.500 C 
ATOM     11  O   LIG    1        1.060  -0.596  -0.011  0.00  0.00    -0.500 OA
ENDBRANCH   1  10
BRANCH   5  12
ATOM     12  O   LIG    1       -4.196  -0.911   0.059  0.00  0.00    -0.540 OA
ATOM     13  H   LIG    1       -5.023  -1.410   0.014  0.00  0.00    +0.390 HD
ENDBRANCH   5  12
BRANCH   4  14
ATOM     14  O   LIG    1       -4.256  -3.436   1.268  0.00  0.00    -0.560 OA
ATOM     15  H   LIG    1       -4.098  -4.390   1.303  0.00  0.00    +0.390 HD
ENDBRANCH   4  14
BRANCH   3  16
ATOM     16  O   LIG    1       -1.787  -4.373   0.196  0.00  0.00    -0.540 OA
ATOM     17  H   LIG    1       -1.221  -4.668  -0.532  0.00  0.00    +0.390 HD
ENDBRANCH   3  16
BRANCH   1  18
ATOM     18  O   LIG    1       -2.005  -0.524  -1.203  0.00  0.00    -0.530 OA
ATOM     19  H   LIG    1       -1.524  -0.781  -2.002  0.00  0.00    +0.390 HD
ENDBRANCH   1  18
BRANCH   6  20
ATOM     20  O   LIG    1       -1.412  -0.532   2.414  0.00  0.00    -0.530 OA
ATOM     21  H   LIG    1       -0.583  -0.035   2.460  0.00  0.00    +0.390 HD
ENDBRANCH   6  20
TORSDOF 6
ENDMDL
MODEL      481
REMARK  Name = ZINC000034800341
REMARK                            x       y       z     vdW  Elec       q    Type
REMARK                         _______ _______ _______ _____ _____    ______ ____
ROOT
ATOM      1  C   LIG    1       -1.293  -0.775   0.010  0.00  0.00    +0.260 C 
ATOM      2  O   LIG    1       -1.014  -2.173   0.119  0.00  0.00    -0.380 OA
ATOM      3  C   LIG    1       -2.178  -3.002   0.110  0.00  0.00    +0.310 C 
ATOM      4  C   LIG    1       -3.065  -2.648   1.307  0.00  0.00    +0.130 C 
ATOM      5  C   LIG    1       -3.430  -1.162   1.239  0.00  0.00    +0.210 C 
ATOM      6  C   LIG    1       -2.143  -0.332   1.203  0.00  0.00    +0.200 C 
ENDROOT
BRANCH   1  10
ATOM      7  N   LIG    1       -0.016   1.344   0.009  0.00  0.00    -0.840 N 
ATOM      8  H   LIG    1       -0.863   1.817   0.016  0.00  0.00    +0.410 HD
ATOM      9  H   LIG    1        0.817   1.840   0.004  0.00  0.00    +0.410 HD
ATOM     10  C   LIG    1        0.002  -0.004   0.002  0.00  0.00    +0.500 C 
ATOM     11  O   LIG    1        1.060  -0.596  -0.011  0.00  0.00    -0.500 OA
ENDBRANCH   1  10
BRANCH   5  12
ATOM     12  O   LIG    1       -4.196  -0.911   0.059  0.00  0.00    -0.530 OA
ATOM     13  H   LIG    1       -5.023  -1.410   0.014  0.00  0.00    +0.390 HD
ENDBRANCH   5  12
BRANCH   4  14
ATOM     14  O   LIG    1       -2.357  -2.912   2.520  0.00  0.00    -0.530 OA
ATOM     15  H   LIG    1       -2.090  -3.835   2.626  0.00  0.00    +0.380 HD
ENDBRANCH   4  14
BRANCH   3  16
ATOM     16  O   LIG    1       -1.787  -4.373   0.196  0.00  0.00    -0.540 OA
ATOM     17  H   LIG    1       -1.221  -4.668  -0.532  0.00  0.00    +0.390 HD
ENDBRANCH   3  16
BRANCH   1  18
ATOM     18  O   LIG    1       -2.005  -0.524  -1.203  0.00  0.00    -0.530 OA
ATOM     19  H   LIG    1       -1.524  -0.781  -2.002  0.00  0.00    +0.390 HD
ENDBRANCH   1  18
BRANCH   6  20
ATOM     20  O   LIG    1       -1.412  -0.532   2.414  0.00  0.00    -0.510 OA
ATOM     21  H   LIG    1       -0.583  -0.035   2.460  0.00  0.00    +0.380 HD
ENDBRANCH   6  20
TORSDOF 6
ENDMDL
MODEL      482
REMARK  Name = ZINC000001611011
REMARK                            x       y       z     vdW  Elec       q    Type
REMARK                         _______ _______ _______ _____ _____    ______ ____
ROOT
ATOM      1  N   LIG    1       -1.005  -2.212  -0.000  0.00  0.00    -0.700 N 
ATOM      2  H   LIG    1       -0.160  -2.540   0.345  0.00  0.00    +0.410 HD
ATOM      3  C   LIG    1       -1.915  -3.077  -0.489  0.00  0.00    +0.570 C 
ATOM      4  O   LIG    1       -2.974  -2.666  -0.922  0.00  0.00    -0.540 OA
ENDROOT
BRANCH   3   5
ATOM      5  C   LIG    1       -1.625  -4.527  -0.500  0.00  0.00    -0.190 A 
ATOM      6  C   LIG    1       -2.560  -5.436  -1.011  0.00  0.00    +0.140 A 
ATOM      7  C   LIG    1       -2.240  -6.782  -0.998  0.00  0.00    -0.030 A 
ATOM      8  C   LIG    1       -1.019  -7.183  -0.486  0.00  0.00    +0.290 A 
ATOM      9  N   LIG    1       -0.158  -6.303  -0.011  0.00  0.00    -0.490 NA
ATOM     10  C   LIG    1       -0.414  -5.012  -0.006  0.00  0.00    +0.300 A 
ENDBRANCH   3   5
BRANCH   1  11
ATOM     11  CA  LIG    1       -1.293  -0.775   0.010  0.00  0.00    +0.260 C 
BRANCH  11  15
ATOM     12  N   LIG    1       -0.016   1.344   0.009  0.00  0.00    -0.850 N 
ATOM     13  H   LIG    1       -0.863   1.817   0.016  0.00  0.00    +0.400 HD
ATOM     14  H   LIG    1        0.817   1.840   0.004  0.00  0.00    +0.410 HD
ATOM     15  C   LIG    1        0.002  -0.004   0.002  0.00  0.00    +0.530 C 
ATOM     16  O   LIG    1        1.060  -0.596  -0.011  0.00  0.00    -0.530 OA
ENDBRANCH  11  15
BRANCH  11  17
ATOM     17  C   LIG    1       -2.088  -0.423   1.269  0.00  0.00    +0.200 C 
BRANCH  17  18
ATOM     18  O   LIG    1       -1.279  -0.655   2.424  0.00  0.00    -0.570 OA
ATOM     19  H   LIG    1       -1.720  -0.453   3.260  0.00  0.00    +0.390 HD
ENDBRANCH  17  18
ENDBRANCH  11  17
ENDBRANCH   1  11
TORSDOF 5
ENDMDL
MODEL      483
REMARK  Name = ZINC000034800343
REMARK                            x       y       z     vdW  Elec       q    Type
REMARK                         _______ _______ _______ _____ _____    ______ ____
ROOT
ATOM      1  C   LIG    1       -1.293  -0.775   0.010  0.00  0.00    +0.260 C 
ATOM      2  O   LIG    1       -1.014  -2.173   0.119  0.00  0.00    -0.390 OA
ATOM      3  C   LIG    1       -2.178  -3.002   0.110  0.00  0.00    +0.310 C 
ATOM      4  C   LIG    1       -3.065  -2.648   1.307  0.00  0.00    +0.150 C 
ATOM      5  C   LIG    1       -3.430  -1.162   1.239  0.00  0.00    +0.220 C 
ATOM      6  C   LIG    1       -2.143  -0.332   1.203  0.00  0.00    +0.210 C 
ENDROOT
BRANCH   1  10
ATOM      7  N   LIG    1       -0.016   1.344   0.009  0.00  0.00    -0.840 N 
ATOM      8  H   LIG    1       -0.863   1.817   0.016  0.00  0.00    +0.410 HD
ATOM      9  H   LIG    1        0.817   1.840   0.004  0.00  0.00    +0.410 HD
ATOM     10  C   LIG    1        0.002  -0.004   0.002  0.00  0.00    +0.500 C 
ATOM     11  O   LIG    1        1.060  -0.596  -0.011  0.00  0.00    -0.500 OA
ENDBRANCH   1  10
BRANCH   5  12
ATOM     12  O   LIG    1       -4.199  -0.806   2.390  0.00  0.00    -0.540 OA
ATOM     13  H   LIG    1       -5.026  -1.299   2.479  0.00  0.00    +0.390 HD
ENDBRANCH   5  12
BRANCH   4  14
ATOM     14  O   LIG    1       -4.256  -3.436   1.268  0.00  0.00    -0.560 OA
ATOM     15  H   LIG    1       -4.098  -4.390   1.303  0.00  0.00    +0.390 HD
ENDBRANCH   4  14
BRANCH   3  16
ATOM     16  O   LIG    1       -1.787  -4.373   0.196  0.00  0.00    -0.540 OA
ATOM     17  H   LIG    1       -1.221  -4.668  -0.532  0.00  0.00    +0.400 HD
ENDBRANCH   3  16
BRANCH   1  18
ATOM     18  O   LIG    1       -2.005  -0.524  -1.203  0.00  0.00    -0.550 OA
ATOM     19  H   LIG    1       -1.524  -0.781  -2.002  0.00  0.00    +0.400 HD
ENDBRANCH   1  18
BRANCH   6  20
ATOM     20  O   LIG    1       -1.412  -0.532   2.414  0.00  0.00    -0.520 OA
ATOM     21  H   LIG    1       -0.583  -0.035   2.460  0.00  0.00    +0.380 HD
ENDBRANCH   6  20
TORSDOF 6
ENDMDL
MODEL      484
REMARK  Name = ZINC000005613302
REMARK                            x       y       z     vdW  Elec       q    Type
REMARK                         _______ _______ _______ _____ _____    ______ ____
ROOT
ATOM      1  C   LIG    1       -1.136  -2.159   0.001  0.00  0.00    +0.380 C 
ATOM      2  O   LIG    1       -1.351  -2.645   1.327  0.00  0.00    -0.370 OA
ATOM      3  C   LIG    1       -1.325  -4.070   1.438  0.00  0.00    +0.200 C 
ATOM      4  C   LIG    1       -2.441  -4.667   0.576  0.00  0.00    +0.180 C 
ATOM      5  C   LIG    1       -2.256  -4.210  -0.874  0.00  0.00    +0.170 C 
ATOM      6  C   LIG    1       -2.244  -2.679  -0.918  0.00  0.00    +0.120 C 
ENDROOT
BRANCH   1   9
ATOM      7  C   LIG    1       -0.018   1.503   0.010  0.00  0.00    +0.110 C 
ATOM      8  C   LIG    1        0.002  -0.004   0.002  0.00  0.00    +0.520 C 
ATOM      9  N   LIG    1       -1.156  -0.694   0.009  0.00  0.00    -0.720 N 
ATOM     10  H   LIG    1       -2.002  -0.220   0.020  0.00  0.00    +0.410 HD
ATOM     11  O   LIG    1        1.060  -0.596  -0.011  0.00  0.00    -0.530 OA
ENDBRANCH   1   9
BRANCH   5  12
ATOM     12  O   LIG    1       -3.333  -4.705  -1.673  0.00  0.00    -0.560 OA
ATOM     13  H   LIG    1       -3.279  -4.453  -2.605  0.00  0.00    +0.390 HD
ENDBRANCH   5  12
BRANCH   4  14
ATOM     14  O   LIG    1       -3.709  -4.221   1.060  0.00  0.00    -0.550 OA
ATOM     15  H   LIG    1       -4.463  -4.562   0.560  0.00  0.00    +0.390 HD
ENDBRANCH   4  14
BRANCH   6  16
ATOM     16  O   LIG    1       -2.000  -2.242  -2.257  0.00  0.00    -0.560 OA
ATOM     17  H   LIG    1       -1.980  -1.280  -2.359  0.00  0.00    +0.390 HD
ENDBRANCH   6  16
BRANCH   3  18
ATOM     18  C   LIG    1       -1.537  -4.473   2.898  0.00  0.00    +0.230 C 
BRANCH  18  19
ATOM     19  O   LIG    1       -0.436  -4.013   3.684  0.00  0.00    -0.570 OA
ATOM     20  H   LIG    1       -0.503  -4.234   4.623  0.00  0.00    +0.380 HD
ENDBRANCH  18  19
ENDBRANCH   3  18
TORSDOF 6
ENDMDL
MODEL      485
REMARK  Name = ZINC000022183431
REMARK                            x       y       z     vdW  Elec       q    Type
REMARK                         _______ _______ _______ _____ _____    ______ ____
ROOT
ATOM      1  C   LIG    1       -0.051  -4.226   2.647  0.00  0.00    +0.100 C 
ENDROOT
BRANCH   1   8
ATOM      2  C   LIG    1       -0.018   1.465   0.010  0.00  0.00    +0.190 C 
ATOM      3  N   LIG    1        0.002  -0.004   0.002  0.00  0.00    -0.540 NA
ATOM      4  C   LIG    1       -1.359  -0.548  -0.091  0.00  0.00    +0.170 C 
ATOM      5  C   LIG    1       -1.286  -2.068  -0.279  0.00  0.00    +0.300 C 
ATOM      6  N   LIG    1       -0.463  -2.633   0.801  0.00  0.00    -0.610 N 
ATOM      7  C   LIG    1        0.864  -2.046   1.044  0.00  0.00    +0.280 C 
ATOM      8  C   LIG    1       -0.911  -3.662   1.546  0.00  0.00    +0.530 C 
ATOM      9  O   LIG    1       -2.007  -4.135   1.331  0.00  0.00    -0.550 OA
ATOM     10  C   LIG    1        0.706  -0.527   1.180  0.00  0.00    +0.170 C 
ENDBRANCH   1   8
BRANCH   1  11
ATOM     11  C   LIG    1       -0.789  -5.377   3.333  0.00  0.00    +0.170 C 
ATOM     12  N   LIG    1       -0.975  -6.476   2.376  0.00  0.00    -0.680 NA
ATOM     13  H   LIG    1       -1.597  -6.205   1.630  0.00  0.00    +0.370 HD
ATOM     14  C   LIG    1       -1.475  -7.674   3.070  0.00  0.00    +0.180 C 
ATOM     15  C   LIG    1       -0.365  -8.220   3.970  0.00  0.00    +0.270 C 
ATOM     16  N   LIG    1        0.182  -7.148   4.796  0.00  0.00    -0.720 N 
ATOM     17  H   LIG    1        0.691  -7.386   5.587  0.00  0.00    +0.400 HD
ATOM     18  C   LIG    1        0.014  -5.854   4.510  0.00  0.00    +0.530 C 
ATOM     19  O   LIG    1        0.529  -5.028   5.233  0.00  0.00    -0.550 OA
ENDBRANCH   1  11
TORSDOF 2
ENDMDL
MODEL      486
REMARK  Name = ZINC000005047976
REMARK                            x       y       z     vdW  Elec       q    Type
REMARK                         _______ _______ _______ _____ _____    ______ ____
ROOT
ATOM      1  C   LIG    1        2.958  -1.972  -2.537  0.00  0.00    +0.160 C 
ENDROOT
BRANCH   1   2
ATOM      2  O   LIG    1        3.077  -0.548  -2.535  0.00  0.00    -0.520 OA
ATOM      3  H   LIG    1        2.686  -0.120  -3.309  0.00  0.00    +0.380 HD
ENDBRANCH   1   2
BRANCH   1   4
ATOM      4  C   LIG    1        1.479  -2.361  -2.569  0.00  0.00    +0.230 C 
BRANCH   4   5
ATOM      5  C   LIG    1        0.786  -1.801  -1.353  0.00  0.00    +0.430 C 
ATOM      6  O   LIG    1        0.325  -2.548  -0.523  0.00  0.00    -0.500 OA
BRANCH   5   7
ATOM      7  O   LIG    1        0.682  -0.472  -1.193  0.00  0.00    -0.340 OA
BRANCH   7   9
ATOM      8  C   LIG    1       -0.019   1.526   0.010  0.00  0.00    +0.070 C 
ATOM      9  C   LIG    1        0.002  -0.004   0.002  0.00  0.00    +0.200 C 
ENDBRANCH   7   9
ENDBRANCH   5   7
ENDBRANCH   4   5
BRANCH   4  10
ATOM     10  O   LIG    1        1.360  -3.785  -2.571  0.00  0.00    -0.510 OA
ATOM     11  H   LIG    1        1.751  -4.213  -1.797  0.00  0.00    +0.380 HD
ENDBRANCH   4  10
ENDBRANCH   1   4
BRANCH   1  12
ATOM     12  C   LIG    1        3.661  -2.541  -3.771  0.00  0.00    +0.160 C 
BRANCH  12  13
ATOM     13  O   LIG    1        3.543  -3.965  -3.773  0.00  0.00    -0.510 OA
ATOM     14  H   LIG    1        3.933  -4.394  -3.000  0.00  0.00    +0.370 HD
ENDBRANCH  12  13
BRANCH  12  15
ATOM     15  C   LIG    1        5.141  -2.153  -3.740  0.00  0.00    +0.190 C 
BRANCH  15  16
ATOM     16  C   LIG    1        5.844  -2.721  -4.974  0.00  0.00    +0.130 C 
ATOM     17  C   LIG    1        7.324  -2.333  -4.942  0.00  0.00    +0.010 C 
BRANCH  16  18
ATOM     18  O   LIG    1        5.725  -4.145  -4.976  0.00  0.00    -0.550 OA
ATOM     19  H   LIG    1        6.149  -4.574  -5.732  0.00  0.00    +0.380 HD
ENDBRANCH  16  18
ENDBRANCH  15  16
BRANCH  15  20
ATOM     20  O   LIG    1        5.260  -0.729  -3.737  0.00  0.00    -0.530 OA
ATOM     21  H   LIG    1        4.869  -0.300  -4.511  0.00  0.00    +0.370 HD
ENDBRANCH  15  20
ENDBRANCH  12  15
ENDBRANCH   1  12
TORSDOF 12
ENDMDL
MODEL      487
REMARK  Name = ZINC000022183427
REMARK                            x       y       z     vdW  Elec       q    Type
REMARK                         _______ _______ _______ _____ _____    ______ ____
ROOT
ATOM      1  C   LIG    1       -0.051  -4.226   2.647  0.00  0.00    +0.070 C 
ENDROOT
BRANCH   1   8
ATOM      2  C   LIG    1       -0.018   1.465   0.010  0.00  0.00    +0.190 C 
ATOM      3  N   LIG    1        0.002  -0.004   0.002  0.00  0.00    -0.540 NA
ATOM      4  C   LIG    1       -1.359  -0.548  -0.091  0.00  0.00    +0.170 C 
ATOM      5  C   LIG    1       -1.286  -2.068  -0.279  0.00  0.00    +0.290 C 
ATOM      6  N   LIG    1       -0.463  -2.633   0.801  0.00  0.00    -0.620 N 
ATOM      7  C   LIG    1        0.864  -2.046   1.044  0.00  0.00    +0.280 C 
ATOM      8  C   LIG    1       -0.911  -3.662   1.546  0.00  0.00    +0.520 C 
ATOM      9  O   LIG    1       -2.007  -4.135   1.331  0.00  0.00    -0.510 OA
ATOM     10  C   LIG    1        0.706  -0.527   1.180  0.00  0.00    +0.170 C 
ENDBRANCH   1   8
BRANCH   1  11
ATOM     11  C   LIG    1       -0.789  -5.377   3.333  0.00  0.00    +0.210 C 
ATOM     12  N   LIG    1       -1.991  -4.857   4.000  0.00  0.00    -0.660 NA
ATOM     13  H   LIG    1       -1.777  -4.030   4.536  0.00  0.00    +0.340 HD
ATOM     14  C   LIG    1       -2.590  -5.898   4.851  0.00  0.00    +0.230 C 
ATOM     15  C   LIG    1       -1.658  -6.161   6.035  0.00  0.00    +0.230 C 
ATOM     16  N   LIG    1       -0.296  -6.387   5.560  0.00  0.00    -0.720 N 
ATOM     17  H   LIG    1        0.336  -6.821   6.154  0.00  0.00    +0.400 HD
ATOM     18  C   LIG    1        0.118  -6.020   4.344  0.00  0.00    +0.490 C 
ATOM     19  O   LIG    1        1.275  -6.218   4.040  0.00  0.00    -0.550 OA
ENDBRANCH   1  11
TORSDOF 2
ENDMDL
MODEL      488
REMARK  Name = ZINC000005047979
REMARK                            x       y       z     vdW  Elec       q    Type
REMARK                         _______ _______ _______ _____ _____    ______ ____
ROOT
ATOM      1  C   LIG    1        2.958  -1.972  -2.537  0.00  0.00    +0.180 C 
ENDROOT
BRANCH   1   2
ATOM      2  O   LIG    1        3.537  -2.402  -1.303  0.00  0.00    -0.540 OA
ATOM      3  H   LIG    1        3.490  -3.357  -1.158  0.00  0.00    +0.370 HD
ENDBRANCH   1   2
BRANCH   1   4
ATOM      4  C   LIG    1        1.479  -2.361  -2.569  0.00  0.00    +0.230 C 
BRANCH   4   5
ATOM      5  C   LIG    1        0.786  -1.801  -1.353  0.00  0.00    +0.440 C 
ATOM      6  O   LIG    1        0.325  -2.548  -0.523  0.00  0.00    -0.500 OA
BRANCH   5   7
ATOM      7  O   LIG    1        0.682  -0.472  -1.193  0.00  0.00    -0.350 OA
BRANCH   7   9
ATOM      8  C   LIG    1       -0.019   1.526   0.010  0.00  0.00    +0.070 C 
ATOM      9  C   LIG    1        0.002  -0.004   0.002  0.00  0.00    +0.200 C 
ENDBRANCH   7   9
ENDBRANCH   5   7
ENDBRANCH   4   5
BRANCH   4  10
ATOM     10  O   LIG    1        1.360  -3.785  -2.571  0.00  0.00    -0.500 OA
ATOM     11  H   LIG    1        1.751  -4.213  -1.797  0.00  0.00    +0.380 HD
ENDBRANCH   4  10
ENDBRANCH   1   4
BRANCH   1  12
ATOM     12  C   LIG    1        3.687  -2.644  -3.703  0.00  0.00    +0.170 C 
BRANCH  12  13
ATOM     13  O   LIG    1        3.467  -4.055  -3.653  0.00  0.00    -0.510 OA
ATOM     14  H   LIG    1        3.782  -4.474  -2.841  0.00  0.00    +0.370 HD
ENDBRANCH  12  13
BRANCH  12  15
ATOM     15  C   LIG    1        5.186  -2.357  -3.600  0.00  0.00    +0.200 C 
BRANCH  15  16
ATOM     16  C   LIG    1        5.915  -3.029  -4.766  0.00  0.00    +0.130 C 
ATOM     17  C   LIG    1        7.414  -2.742  -4.664  0.00  0.00    +0.000 C 
BRANCH  16  18
ATOM     18  O   LIG    1        5.695  -4.440  -4.716  0.00  0.00    -0.550 OA
ATOM     19  H   LIG    1        6.129  -4.931  -5.428  0.00  0.00    +0.380 HD
ENDBRANCH  16  18
ENDBRANCH  15  16
BRANCH  15  20
ATOM     20  O   LIG    1        5.406  -0.946  -3.650  0.00  0.00    -0.540 OA
ATOM     21  H   LIG    1        5.091  -0.527  -4.463  0.00  0.00    +0.380 HD
ENDBRANCH  15  20
ENDBRANCH  12  15
ENDBRANCH   1  12
TORSDOF 12
ENDMDL
MODEL      489
REMARK  Name = ZINC000005378187
REMARK                            x       y       z     vdW  Elec       q    Type
REMARK                         _______ _______ _______ _____ _____    ______ ____
ROOT
ATOM      1  N   LIG    1        0.016  -2.687  -2.347  0.00  0.00    -0.620 N 
ATOM      2  H   LIG    1        0.002  -2.197  -3.184  0.00  0.00    +0.420 HD
ATOM      3  C   LIG    1        0.035  -4.034  -2.354  0.00  0.00    +0.590 C 
ATOM      4  O   LIG    1        0.053  -4.648  -1.305  0.00  0.00    -0.400 OA
ENDROOT
BRANCH   3   5
ATOM      5  C   LIG    1        0.032  -4.766  -3.637  0.00  0.00    +0.160 A 
ATOM      6  N   LIG    1        0.019  -4.231  -4.846  0.00  0.00    -0.470 NA
ATOM      7  C   LIG    1        0.023  -5.232  -5.721  0.00  0.00    +0.400 A 
ATOM      8  N   LIG    1        0.038  -6.362  -5.060  0.00  0.00    -0.280 NA
ATOM      9  N   LIG    1        0.049  -6.109  -3.797  0.00  0.00    -0.350 N 
ATOM     10  H   LIG    1        0.061  -6.766  -3.084  0.00  0.00    +0.460 HD
ENDBRANCH   3   5
BRANCH   1  11
ATOM     11  C   LIG    1        0.018  -2.019  -1.176  0.00  0.00    +0.460 C 
ATOM     12  S   LIG    1        0.044  -2.883   0.302  0.00  0.00    -0.360 S 
BRANCH  11  15
ATOM     13  C   LIG    1       -0.018   1.503   0.010  0.00  0.00    +0.120 C 
ATOM     14  C   LIG    1        0.002  -0.004   0.002  0.00  0.00    +0.480 C 
ATOM     15  N   LIG    1        0.000  -0.672  -1.169  0.00  0.00    -0.640 N 
ATOM     16  H   LIG    1       -0.015  -0.182  -2.006  0.00  0.00    +0.410 HD
ATOM     17  O   LIG    1        0.020  -0.616   1.049  0.00  0.00    -0.410 OA
ENDBRANCH  11  15
ENDBRANCH   1  11
TORSDOF 3
ENDMDL
MODEL      490
REMARK  Name = ZINC000012405197
REMARK                            x       y       z     vdW  Elec       q    Type
REMARK                         _______ _______ _______ _____ _____    ______ ____
ROOT
ATOM      1  C   LIG    1       -0.019   1.526   0.010  0.00  0.00    +0.060 C 
ATOM      2  C   LIG    1        0.002  -0.004   0.002  0.00  0.00    +0.250 C 
ATOM      3  O   LIG    1        0.687  -0.471  -1.172  0.00  0.00    -0.360 OA
ATOM      4  C   LIG    1        2.048  -0.708  -0.737  0.00  0.00    +0.130 C 
ATOM      5  C   LIG    1        1.831  -1.242   0.701  0.00  0.00    +0.130 C 
ATOM      6  C   LIG    1       -1.432  -0.537   0.003  0.00  0.00    +0.070 C 
ATOM      7  O   LIG    1        0.695  -0.483   1.162  0.00  0.00    -0.370 OA
ENDROOT
BRANCH   5   8
ATOM      8  C   LIG    1        3.059  -0.968   1.571  0.00  0.00    +0.240 C 
BRANCH   8   9
ATOM      9  O   LIG    1        3.364   0.428   1.538  0.00  0.00    -0.550 OA
ATOM     10  H   LIG    1        2.651   0.994   1.864  0.00  0.00    +0.380 HD
ENDBRANCH   8   9
BRANCH   8  11
ATOM     11  C   LIG    1        2.768  -1.392   3.012  0.00  0.00    +0.170 C 
BRANCH  11  12
ATOM     12  O   LIG    1        3.951  -1.245   3.799  0.00  0.00    -0.560 OA
ATOM     13  H   LIG    1        3.840  -1.497   4.726  0.00  0.00    +0.380 HD
ENDBRANCH  11  12
ENDBRANCH   8  11
ENDBRANCH   5   8
BRANCH   4  14
ATOM     14  C   LIG    1        2.729  -1.759  -1.616  0.00  0.00    +0.240 C 
BRANCH  14  15
ATOM     15  O   LIG    1        4.056  -1.991  -1.139  0.00  0.00    -0.540 OA
ATOM     16  H   LIG    1        4.620  -1.205  -1.145  0.00  0.00    +0.380 HD
ENDBRANCH  14  15
BRANCH  14  17
ATOM     17  C   LIG    1        2.787  -1.256  -3.060  0.00  0.00    +0.160 C 
BRANCH  17  18
ATOM     18  O   LIG    1        3.317  -2.284  -3.901  0.00  0.00    -0.560 OA
ATOM     19  H   LIG    1        3.382  -2.034  -4.832  0.00  0.00    +0.380 HD
ENDBRANCH  17  18
ENDBRANCH  14  17
ENDBRANCH   4  14
TORSDOF 8
ENDMDL
MODEL      491
REMARK  Name = ZINC000067896251
REMARK                            x       y       z     vdW  Elec       q    Type
REMARK                         _______ _______ _______ _____ _____    ______ ____
ROOT
ATOM      1  CA  LIG    1        1.426  -2.440  -2.474  0.00  0.00    +0.070 C 
ENDROOT
BRANCH   1   2
ATOM      2  N   LIG    1        0.738  -1.966  -1.265  0.00  0.00    -0.480 N 
ATOM      3  H1  LIG    1       -0.208  -2.316  -1.258  0.00  0.00    +0.440 HD
ATOM      4  H2  LIG    1        1.226  -2.301  -0.447  0.00  0.00    +0.400 HD
BRANCH   2   5
ATOM      5  C   LIG    1        0.718  -0.497  -1.257  0.00  0.00    +0.250 C 
BRANCH   5   7
ATOM      6  C   LIG    1       -0.019   1.526   0.010  0.00  0.00    +0.050 C 
ATOM      7  C   LIG    1        0.002  -0.004   0.002  0.00  0.00    +0.020 C 
ENDBRANCH   5   7
ENDBRANCH   2   5
ENDBRANCH   1   2
BRANCH   1   8
ATOM      8  C   LIG    1        0.630  -2.045  -3.691  0.00  0.00    +0.500 C 
ATOM      9  OXT LIG    1       -0.583  -1.943  -3.620  0.00  0.00    -0.650 OA
ATOM     10  O   LIG    1        1.200  -1.828  -4.747  0.00  0.00    -0.630 OA
ENDBRANCH   1   8
BRANCH   1  11
ATOM     11  C   LIG    1        1.557  -3.964  -2.422  0.00  0.00    +0.370 C 
BRANCH  11  12
ATOM     12  N   LIG    1        2.225  -4.354  -1.178  0.00  0.00    -0.550 N 
ATOM     13  C   LIG    1        3.590  -4.457  -1.146  0.00  0.00    +0.350 A 
ATOM     14  C   LIG    1        4.206  -4.817   0.001  0.00  0.00    -0.100 A 
ATOM     15  C   LIG    1        3.423  -5.081   1.150  0.00  0.00    +0.540 A 
ATOM     16  N   LIG    1        2.081  -4.968   1.077  0.00  0.00    -0.660 N 
ATOM     17  H   LIG    1        1.538  -5.147   1.861  0.00  0.00    +0.440 HD
ATOM     18  O   LIG    1        3.956  -5.406   2.196  0.00  0.00    -0.500 OA
ATOM     19  C   LIG    1        1.493  -4.603  -0.077  0.00  0.00    +0.680 A 
ATOM     20  O   LIG    1        0.282  -4.505  -0.128  0.00  0.00    -0.540 OA
ENDBRANCH  11  12
ENDBRANCH   1  11
TORSDOF 6
ENDMDL
MODEL      492
REMARK  Name = ZINC000006091572
REMARK                            x       y       z     vdW  Elec       q    Type
REMARK                         _______ _______ _______ _____ _____    ______ ____
ROOT
ATOM      1  C   LIG    1        0.002  -0.004   0.002  0.00  0.00    +0.500 A 
ATOM      2  N   LIG    1       -1.135  -0.687   0.004  0.00  0.00    -0.620 NA
ATOM      3  C   LIG    1       -1.129  -2.018  -0.004  0.00  0.00    +0.660 A 
ATOM      4  N   LIG    1        0.026  -2.708  -0.014  0.00  0.00    -0.530 N 
ATOM      5  C   LIG    1        1.220  -2.050  -0.016  0.00  0.00    +0.380 A 
ATOM      6  O   LIG    1       -2.189  -2.623  -0.003  0.00  0.00    -0.530 OA
ATOM      7  C   LIG    1        1.230  -0.697  -0.013  0.00  0.00    -0.150 A 
ENDROOT
BRANCH   4   8
ATOM      8  C   LIG    1        0.001  -4.173  -0.023  0.00  0.00    +0.420 C 
ATOM      9  O   LIG    1       -0.820  -4.641  -1.105  0.00  0.00    -0.340 OA
ATOM     10  C   LIG    1       -1.464  -5.852  -0.653  0.00  0.00    +0.180 C 
ATOM     11  C   LIG    1       -1.837  -5.536   0.818  0.00  0.00    +0.020 C 
ATOM     12  C   LIG    1       -0.621  -4.694   1.287  0.00  0.00    +0.150 C 
BRANCH  12  13
ATOM     13  O   LIG    1        0.309  -5.512   2.000  0.00  0.00    -0.560 OA
ATOM     14  H   LIG    1       -0.053  -5.912   2.802  0.00  0.00    +0.390 HD
ENDBRANCH  12  13
BRANCH  10  15
ATOM     15  C   LIG    1       -2.718  -6.137  -1.481  0.00  0.00    +0.200 C 
BRANCH  15  16
ATOM     16  O   LIG    1       -2.342  -6.438  -2.827  0.00  0.00    -0.570 OA
ATOM     17  H   LIG    1       -3.090  -6.630  -3.410  0.00  0.00    +0.380 HD
ENDBRANCH  15  16
ENDBRANCH  10  15
ENDBRANCH   4   8
BRANCH   1  18
ATOM     18  N   LIG    1       -0.017   1.371   0.010  0.00  0.00    -0.810 N 
ATOM     19  H   LIG    1       -0.863   1.845   0.016  0.00  0.00    +0.410 HD
ATOM     20  H   LIG    1        0.817   1.868   0.004  0.00  0.00    +0.420 HD
ENDBRANCH   1  18
TORSDOF 5
ENDMDL
MODEL      493
REMARK  Name = ZINC000064622596
REMARK                            x       y       z     vdW  Elec       q    Type
REMARK                         _______ _______ _______ _____ _____    ______ ____
ROOT
ATOM      1  N   LIG    1       -1.237   1.898   0.018  0.00  0.00    -0.530 N 
ATOM      2  C   LIG    1       -1.279   3.369   0.020  0.00  0.00    +0.640 C 
ATOM      3  N   LIG    1       -2.204   3.801  -1.040  0.00  0.00    -0.530 N 
ATOM      4  C   LIG    1       -3.538   3.182  -1.095  0.00  0.00    +0.640 C 
ATOM      5  N   LIG    1       -3.368   1.721  -1.034  0.00  0.00    -0.530 N 
ATOM      6  C   LIG    1       -2.513   1.164   0.020  0.00  0.00    +0.640 C 
ENDROOT
BRANCH   1   8
ATOM      7  O   LIG    1        0.002  -0.004   0.002  0.00  0.00    -0.160 OA
ATOM      8  N   LIG    1       -0.014   1.214   0.009  0.00  0.00    +0.210 N 
ATOM      9  O   LIG    1        1.032   1.837   0.002  0.00  0.00    -0.160 OA
ENDBRANCH   1   8
BRANCH   5  10
ATOM     10  N   LIG    1       -4.002   0.884  -1.961  0.00  0.00    +0.210 N 
ATOM     11  O   LIG    1       -3.849  -0.323  -1.895  0.00  0.00    -0.160 OA
ATOM     12  O   LIG    1       -4.706   1.362  -2.832  0.00  0.00    -0.160 OA
ENDBRANCH   5  10
BRANCH   3  13
ATOM     13  N   LIG    1       -1.825   4.776  -1.971  0.00  0.00    +0.210 N 
ATOM     14  O   LIG    1       -2.603   5.122  -2.842  0.00  0.00    -0.160 OA
ATOM     15  O   LIG    1       -0.717   5.278  -1.910  0.00  0.00    -0.160 OA
ENDBRANCH   3  13
TORSDOF 3
ENDMDL
MODEL      494
REMARK  Name = ZINC000036439146
REMARK                            x       y       z     vdW  Elec       q    Type
REMARK                         _______ _______ _______ _____ _____    ______ ____
ROOT
ATOM      1  C   LIG    1       -1.896  -0.693  -1.289  0.00  0.00    +0.290 C 
ATOM      2  O   LIG    1       -2.020   0.569  -1.948  0.00  0.00    -0.380 OA
ATOM      3  C   LIG    1       -2.546   0.486  -3.274  0.00  0.00    +0.190 C 
ATOM      4  C   LIG    1       -3.955  -0.111  -3.225  0.00  0.00    +0.170 C 
ATOM      5  C   LIG    1       -3.895  -1.487  -2.555  0.00  0.00    +0.160 C 
ATOM      6  C   LIG    1       -3.279  -1.337  -1.161  0.00  0.00    +0.140 C 
ENDROOT
BRANCH   5   7
ATOM      7  O   LIG    1       -5.216  -2.021  -2.441  0.00  0.00    -0.560 OA
ATOM      8  H   LIG    1       -5.253  -2.893  -2.025  0.00  0.00    +0.400 HD
ENDBRANCH   5   7
BRANCH   4   9
ATOM      9  O   LIG    1       -4.462  -0.247  -4.554  0.00  0.00    -0.550 OA
ATOM     10  H   LIG    1       -5.353  -0.620  -4.599  0.00  0.00    +0.390 HD
ENDBRANCH   4   9
BRANCH   6  11
ATOM     11  O   LIG    1       -3.153  -2.625  -0.554  0.00  0.00    -0.560 OA
ATOM     12  H   LIG    1       -2.769  -2.606   0.333  0.00  0.00    +0.390 HD
ENDBRANCH   6  11
BRANCH   1  13
ATOM     13  O   LIG    1       -1.339  -0.499   0.012  0.00  0.00    -0.360 OA
BRANCH  13  15
ATOM     14  C   LIG    1       -0.019   1.526   0.010  0.00  0.00    +0.030 C 
ATOM     15  C   LIG    1        0.002  -0.004   0.002  0.00  0.00    +0.150 C 
ATOM     16  C   LIG    1        0.742  -0.511   1.242  0.00  0.00    +0.050 C 
ENDBRANCH  13  15
ENDBRANCH   1  13
BRANCH   3  17
ATOM     17  C   LIG    1       -2.606   1.887  -3.888  0.00  0.00    +0.230 C 
BRANCH  17  18
ATOM     18  O   LIG    1       -1.280   2.397  -4.039  0.00  0.00    -0.570 OA
ATOM     19  H   LIG    1       -1.241   3.284  -4.423  0.00  0.00    +0.380 HD
ENDBRANCH  17  18
ENDBRANCH   3  17
TORSDOF 7
ENDMDL
MODEL      495
REMARK  Name = ZINC000001590254
REMARK                            x       y       z     vdW  Elec       q    Type
REMARK                         _______ _______ _______ _____ _____    ______ ____
ROOT
ATOM      1  C   UNK A  1        1.479  -2.361  -2.569  0.00  0.00    +0.300 C 
ATOM      2  N   UNK A  1        1.919  -3.720  -2.283  0.00  0.00    -0.700 N 
ATOM      3  H   UNK A  1        2.727  -3.846  -1.763  0.00  0.00    +0.420 HD
ATOM      4  C   ALA A  2        1.256  -4.800  -2.708  0.00  0.00    +0.530 C 
ATOM      5  CA  ALA A  2       -0.001  -4.713  -3.519  0.00  0.00    +0.250 C 
ATOM      6  N   ALA A  2       -0.133  -3.408  -4.152  0.00  0.00    -0.710 N 
ATOM      7  H   ALA A  2       -0.729  -3.319  -4.912  0.00  0.00    +0.420 HD
ATOM      8  CB  ALA A  2       -1.205  -4.949  -2.604  0.00  0.00    +0.070 C 
ATOM      9  O   ALA A  2        1.690  -5.897  -2.424  0.00  0.00    -0.510 OA
ATOM     10  C   UNK A  1        0.533  -2.328  -3.731  0.00  0.00    +0.530 C 
ATOM     11  O   UNK A  1        0.365  -1.278  -4.314  0.00  0.00    -0.500 OA
ENDROOT
BRANCH   1  12
ATOM     12  C   UNK A  1        0.786  -1.801  -1.353  0.00  0.00    +0.450 C 
ATOM     13  O   UNK A  1        0.325  -2.548  -0.523  0.00  0.00    -0.480 OA
BRANCH  12  14
ATOM     14  O   UNK A  1        0.682  -0.472  -1.193  0.00  0.00    -0.340 OA
BRANCH  14  16
ATOM     15  C   UNK A  1       -0.019   1.526   0.010  0.00  0.00    +0.070 C 
ATOM     16  C   UNK A  1        0.002  -0.004   0.002  0.00  0.00    +0.200 C 
ENDBRANCH  14  16
ENDBRANCH  12  14
ENDBRANCH   1  12
TORSDOF 3
ENDMDL
MODEL      496
REMARK  Name = ZINC000001590252
REMARK                            x       y       z     vdW  Elec       q    Type
REMARK                         _______ _______ _______ _____ _____    ______ ____
ROOT
ATOM      1  C   UNK A  1        1.479  -2.361  -2.569  0.00  0.00    +0.300 C 
ATOM      2  N   UNK A  1        1.919  -3.720  -2.283  0.00  0.00    -0.700 N 
ATOM      3  H   UNK A  1        2.727  -3.846  -1.763  0.00  0.00    +0.420 HD
ATOM      4  C   ALA A  2        1.256  -4.800  -2.708  0.00  0.00    +0.530 C 
ATOM      5  CA  ALA A  2       -0.001  -4.713  -3.519  0.00  0.00    +0.240 C 
ATOM      6  N   ALA A  2       -0.133  -3.408  -4.152  0.00  0.00    -0.710 N 
ATOM      7  H   ALA A  2       -0.729  -3.319  -4.912  0.00  0.00    +0.420 HD
ATOM      8  CB  ALA A  2        0.025  -5.794  -4.602  0.00  0.00    +0.090 C 
ATOM      9  O   ALA A  2        1.690  -5.897  -2.424  0.00  0.00    -0.510 OA
ATOM     10  C   UNK A  1        0.533  -2.328  -3.731  0.00  0.00    +0.530 C 
ATOM     11  O   UNK A  1        0.365  -1.278  -4.314  0.00  0.00    -0.500 OA
ENDROOT
BRANCH   1  12
ATOM     12  C   UNK A  1        0.786  -1.801  -1.353  0.00  0.00    +0.450 C 
ATOM     13  O   UNK A  1        0.325  -2.548  -0.523  0.00  0.00    -0.480 OA
BRANCH  12  14
ATOM     14  O   UNK A  1        0.682  -0.472  -1.193  0.00  0.00    -0.340 OA
BRANCH  14  16
ATOM     15  C   UNK A  1       -0.019   1.526   0.010  0.00  0.00    +0.070 C 
ATOM     16  C   UNK A  1        0.002  -0.004   0.002  0.00  0.00    +0.200 C 
ENDBRANCH  14  16
ENDBRANCH  12  14
ENDBRANCH   1  12
TORSDOF 3
ENDMDL
MODEL      497
REMARK  Name = ZINC000050855560
REMARK                            x       y       z     vdW  Elec       q    Type
REMARK                         _______ _______ _______ _____ _____    ______ ____
ROOT
ATOM      1  C   LIG    1       -1.530  -0.495   0.367  0.00  0.00    +0.150 C 
ATOM      2  C   LIG    1       -2.099  -0.501  -1.056  0.00  0.00    +0.290 C 
ATOM      3  N   LIG    1       -3.288  -1.369  -1.077  0.00  0.00    -0.590 N 
ATOM      4  C   LIG    1       -3.167  -2.722  -0.511  0.00  0.00    +0.270 C 
ATOM      5  C   LIG    1       -2.545  -2.608   0.886  0.00  0.00    +0.220 C 
ATOM      6  C   LIG    1       -4.453  -0.937  -1.599  0.00  0.00    +0.580 C 
ATOM      7  O   LIG    1       -4.572   0.223  -1.942  0.00  0.00    -0.520 OA
ATOM      8  O   LIG    1       -1.340  -1.843   0.804  0.00  0.00    -0.350 OA
ENDROOT
BRANCH   6   9
ATOM      9  C   LIG    1       -5.588  -1.876  -1.755  0.00  0.00    +0.020 A 
ATOM     10  C   LIG    1       -6.844  -1.399  -2.129  0.00  0.00    +0.300 A 
ATOM     11  N   LIG    1       -7.853  -2.241  -2.266  0.00  0.00    -0.440 NA
ATOM     12  C   LIG    1       -7.673  -3.531  -2.051  0.00  0.00    +0.260 A 
ATOM     13  C   LIG    1       -6.424  -4.009  -1.678  0.00  0.00    +0.230 A 
ATOM     14  N   LIG    1       -5.411  -3.178  -1.544  0.00  0.00    -0.410 NA
ENDBRANCH   6   9
BRANCH   1  18
ATOM     15  N   LIG    1       -0.159   1.545   0.095  0.00  0.00    -0.850 N 
ATOM     16  H   LIG    1       -0.973   2.026  -0.118  0.00  0.00    +0.400 HD
ATOM     17  H   LIG    1        0.692   2.011   0.102  0.00  0.00    +0.410 HD
ATOM     18  C   LIG    1       -0.208   0.228   0.377  0.00  0.00    +0.530 C 
ATOM     19  O   LIG    1        0.811  -0.375   0.639  0.00  0.00    -0.510 OA
ENDBRANCH   1  18
TORSDOF 2
ENDMDL
MODEL      498
REMARK  Name = ZINC000006445046
REMARK                            x       y       z     vdW  Elec       q    Type
REMARK                         _______ _______ _______ _____ _____    ______ ____
ROOT
ATOM      1  O   LIG    1        0.002  -0.004   0.002  0.00  0.00    -0.490 OA
ATOM      2  C   LIG    1       -0.014   1.211   0.009  0.00  0.00    +0.720 A 
ATOM      3  N   LIG    1       -1.205   1.826   0.029  0.00  0.00    -0.650 N 
ATOM      4  H   LIG    1       -2.011   1.287   0.037  0.00  0.00    +0.460 HD
ATOM      5  C   LIG    1       -1.317   3.172   0.037  0.00  0.00    +0.600 A 
ATOM      6  C   LIG    1       -0.072   3.969   0.024  0.00  0.00    +0.020 A 
ATOM      7  N   LIG    1       -0.065   5.279   0.031  0.00  0.00    -0.060 NA
ATOM      8  N   LIG    1        1.055   5.913   0.019  0.00  0.00    -0.210 N 
ATOM      9  N   LIG    1        1.375   7.281   0.022  0.00  0.00    -0.020 NA
ATOM     10  N   LIG    1        2.660   7.368   0.004  0.00  0.00    +0.030 NA
ATOM     11  N   LIG    1        3.199   6.202  -0.009  0.00  0.00    -0.270 NA
ATOM     12  C   LIG    1        2.261   5.262  -0.002  0.00  0.00    +0.400 A 
ATOM     13  N   LIG    1        2.325   3.924  -0.009  0.00  0.00    -0.420 NA
ATOM     14  C   LIG    1        1.201   3.238   0.002  0.00  0.00    +0.440 A 
ATOM     15  O   LIG    1       -2.406   3.711   0.056  0.00  0.00    -0.420 OA
ATOM     16  N   LIG    1        1.163   1.860   0.001  0.00  0.00    -0.600 N 
ATOM     17  H   LIG    1        1.991   1.355  -0.009  0.00  0.00    +0.460 HD
ENDROOT
TORSDOF 0
ENDMDL
MODEL      499
REMARK  Name = ZINC000001719525
REMARK                            x       y       z     vdW  Elec       q    Type
REMARK                         _______ _______ _______ _____ _____    ______ ____
ROOT
ATOM      1  C   LIG    1       -1.180  -0.836  -0.231  0.00  0.00    -0.200 A 
ATOM      2  C   LIG    1       -1.217  -2.214  -0.072  0.00  0.00    +0.360 A 
ATOM      3  N   LIG    1       -2.480  -2.550   0.217  0.00  0.00    -0.530 NA
ATOM      4  C   LIG    1       -3.228  -1.478   0.249  0.00  0.00    +0.490 A 
ATOM      5  N   LIG    1       -2.478  -0.393  -0.013  0.00  0.00    -0.420 N 
ENDROOT
BRANCH   1   9
ATOM      6  N   LIG    1        0.692   0.493   0.445  0.00  0.00    -0.850 N 
ATOM      7  H   LIG    1        0.411   0.398   1.369  0.00  0.00    +0.400 HD
ATOM      8  H   LIG    1        1.505   0.978   0.233  0.00  0.00    +0.400 HD
ATOM      9  C   LIG    1       -0.049  -0.043  -0.544  0.00  0.00    +0.610 C 
ATOM     10  O   LIG    1        0.253   0.153  -1.707  0.00  0.00    -0.530 OA
ENDBRANCH   1   9
BRANCH   5  11
ATOM     11  C   LIG    1       -2.945   0.994  -0.069  0.00  0.00    +0.230 C 
ATOM     12  C   LIG    1       -3.788   1.330   1.176  0.00  0.00    +0.220 C 
ATOM     13  O   LIG    1       -5.119   1.631   0.723  0.00  0.00    -0.350 OA
ATOM     14  C   LIG    1       -5.004   2.112  -0.633  0.00  0.00    +0.140 C 
ATOM     15  C   LIG    1       -3.921   1.190  -1.256  0.00  0.00    +0.160 C 
BRANCH  15  16
ATOM     16  O   LIG    1       -4.485  -0.058  -1.662  0.00  0.00    -0.540 OA
ATOM     17  H   LIG    1       -5.170   0.022  -2.339  0.00  0.00    +0.390 HD
ENDBRANCH  15  16
BRANCH  14  18
ATOM     18  C   LIG    1       -6.335   1.961  -1.373  0.00  0.00    +0.200 C 
BRANCH  18  19
ATOM     19  O   LIG    1       -7.305   2.832  -0.789  0.00  0.00    -0.560 OA
ATOM     20  H   LIG    1       -8.175   2.789  -1.208  0.00  0.00    +0.390 HD
ENDBRANCH  18  19
ENDBRANCH  14  18
ENDBRANCH   5  11
BRANCH   2  21
ATOM     21  N   LIG    1       -0.142  -3.084  -0.192  0.00  0.00    -0.840 N 
ATOM     22  H   LIG    1       -0.272  -4.037  -0.061  0.00  0.00    +0.410 HD
ATOM     23  H   LIG    1        0.739  -2.740  -0.406  0.00  0.00    +0.410 HD
ENDBRANCH   2  21
TORSDOF 6
ENDMDL
MODEL      500
REMARK  Name = ZINC000004963364
REMARK                            x       y       z     vdW  Elec       q    Type
REMARK                         _______ _______ _______ _____ _____    ______ ____
ROOT
ATOM      1  C   LIG    1       -1.156  -0.819   0.008  0.00  0.00    -0.180 A 
ATOM      2  C   LIG    1       -1.204  -2.204   0.062  0.00  0.00    +0.350 A 
ATOM      3  N   LIG    1       -2.494  -2.560   0.067  0.00  0.00    -0.520 NA
ATOM      4  C   LIG    1       -3.249  -1.495   0.018  0.00  0.00    +0.460 A 
ATOM      5  N   LIG    1       -2.478  -0.393  -0.013  0.00  0.00    -0.430 N 
ENDROOT
BRANCH   1   9
ATOM      6  N   LIG    1        0.499   0.493   1.134  0.00  0.00    -0.840 N 
ATOM      7  H   LIG    1        0.021   0.359   1.967  0.00  0.00    +0.400 HD
ATOM      8  H   LIG    1        1.333   0.988   1.127  0.00  0.00    +0.400 HD
ATOM      9  C   LIG    1        0.002  -0.005  -0.016  0.00  0.00    +0.610 C 
ATOM     10  O   LIG    1        0.549   0.246  -1.075  0.00  0.00    -0.530 OA
ENDBRANCH   1   9
BRANCH   5  11
ATOM     11  C   LIG    1       -2.945   0.994  -0.069  0.00  0.00    +0.240 C 
ATOM     12  C   LIG    1       -3.947   1.182  -1.230  0.00  0.00    +0.240 C 
ATOM     13  O   LIG    1       -5.248   1.017  -0.626  0.00  0.00    -0.350 OA
ATOM     14  C   LIG    1       -5.165   1.697   0.646  0.00  0.00    +0.130 C 
ATOM     15  C   LIG    1       -3.762   1.342   1.195  0.00  0.00    +0.160 C 
BRANCH  15  16
ATOM     16  O   LIG    1       -3.192   2.462   1.875  0.00  0.00    -0.550 OA
ATOM     17  H   LIG    1       -3.701   2.758   2.641  0.00  0.00    +0.390 HD
ENDBRANCH  15  16
BRANCH  14  18
ATOM     18  C   LIG    1       -6.255   1.190   1.593  0.00  0.00    +0.200 C 
BRANCH  18  19
ATOM     19  O   LIG    1       -7.537   1.569   1.089  0.00  0.00    -0.560 OA
ATOM     20  H   LIG    1       -8.277   1.280   1.641  0.00  0.00    +0.390 HD
ENDBRANCH  18  19
ENDBRANCH  14  18
ENDBRANCH   5  11
BRANCH   2  21
ATOM     21  N   LIG    1       -0.114  -3.063   0.105  0.00  0.00    -0.840 N 
ATOM     22  H   LIG    1       -0.253  -4.022   0.142  0.00  0.00    +0.410 HD
ATOM     23  H   LIG    1        0.787  -2.703   0.098  0.00  0.00    +0.410 HD
ENDBRANCH   2  21
TORSDOF 6
ENDMDL
MODEL      501
REMARK  Name = ZINC000004963361
REMARK                            x       y       z     vdW  Elec       q    Type
REMARK                         _______ _______ _______ _____ _____    ______ ____
ROOT
ATOM      1  C   LIG    1       -1.179  -0.836  -0.227  0.00  0.00    -0.190 A 
ATOM      2  C   LIG    1       -1.216  -2.214  -0.070  0.00  0.00    +0.350 A 
ATOM      3  N   LIG    1       -2.480  -2.550   0.215  0.00  0.00    -0.530 NA
ATOM      4  C   LIG    1       -3.229  -1.479   0.245  0.00  0.00    +0.480 A 
ATOM      5  N   LIG    1       -2.478  -0.393  -0.013  0.00  0.00    -0.410 N 
ENDROOT
BRANCH   1   9
ATOM      6  N   LIG    1        0.692   0.491   0.458  0.00  0.00    -0.850 N 
ATOM      7  H   LIG    1        0.408   0.394   1.380  0.00  0.00    +0.400 HD
ATOM      8  H   LIG    1        1.506   0.976   0.249  0.00  0.00    +0.400 HD
ATOM      9  C   LIG    1       -0.047  -0.042  -0.535  0.00  0.00    +0.610 C 
ATOM     10  O   LIG    1        0.258   0.158  -1.697  0.00  0.00    -0.530 OA
ENDBRANCH   1   9
BRANCH   5  11
ATOM     11  C   LIG    1       -2.945   0.994  -0.069  0.00  0.00    +0.230 C 
ATOM     12  C   LIG    1       -3.791   1.331   1.178  0.00  0.00    +0.230 C 
ATOM     13  O   LIG    1       -4.843   2.192   0.689  0.00  0.00    -0.340 OA
ATOM     14  C   LIG    1       -5.244   1.621  -0.576  0.00  0.00    +0.130 C 
ATOM     15  C   LIG    1       -3.920   1.190  -1.252  0.00  0.00    +0.160 C 
BRANCH  15  16
ATOM     16  O   LIG    1       -4.098  -0.035  -1.966  0.00  0.00    -0.540 OA
ATOM     17  H   LIG    1       -4.747   0.017  -2.680  0.00  0.00    +0.390 HD
ENDBRANCH  15  16
BRANCH  14  18
ATOM     18  C   LIG    1       -5.962   2.669  -1.429  0.00  0.00    +0.200 C 
BRANCH  18  19
ATOM     19  O   LIG    1       -7.201   3.021  -0.808  0.00  0.00    -0.560 OA
ATOM     20  H   LIG    1       -7.711   3.682  -1.296  0.00  0.00    +0.390 HD
ENDBRANCH  18  19
ENDBRANCH  14  18
ENDBRANCH   5  11
BRANCH   2  21
ATOM     21  N   LIG    1       -0.141  -3.084  -0.186  0.00  0.00    -0.840 N 
ATOM     22  H   LIG    1       -0.272  -4.036  -0.058  0.00  0.00    +0.410 HD
ATOM     23  H   LIG    1        0.741  -2.739  -0.397  0.00  0.00    +0.410 HD
ENDBRANCH   2  21
TORSDOF 6
ENDMDL
MODEL      502
REMARK  Name = ZINC000020470432
REMARK                            x       y       z     vdW  Elec       q    Type
REMARK                         _______ _______ _______ _____ _____    ______ ____
ROOT
ATOM      1  C   LIG    1       -0.018   1.461   0.010  0.00  0.00    +0.340 C 
ATOM      2  N   LIG    1        0.002  -0.004   0.002  0.00  0.00    -0.560 N 
ATOM      3  C   LIG    1       -1.176  -0.650   0.004  0.00  0.00    +0.520 C 
ATOM      4  C   LIG    1       -1.185  -2.165  -0.004  0.00  0.00    +0.220 C 
ATOM      5  C   LIG    1        0.209  -2.847  -0.027  0.00  0.00    +0.410 C 
ATOM      6  N   LIG    1        1.368  -1.942  -0.067  0.00  0.00    -0.600 N 
ATOM      7  C   LIG    1        2.725  -2.495  -0.099  0.00  0.00    +0.340 C 
ATOM      8  N   LIG    1        0.263  -3.568   1.252  0.00  0.00    -0.570 NA
ATOM      9  C   LIG    1       -0.819  -3.383   1.914  0.00  0.00    +0.570 C 
ATOM     10  N   LIG    1       -1.755  -2.587   1.286  0.00  0.00    -0.640 N 
ATOM     11  O   LIG    1       -2.218  -0.030   0.012  0.00  0.00    -0.480 OA
ATOM     12  C   LIG    1        1.189  -0.614  -0.013  0.00  0.00    +0.700 C 
ATOM     13  O   LIG    1        2.180   0.089  -0.049  0.00  0.00    -0.560 OA
ENDROOT
BRANCH  10  14
ATOM     14  C   LIG    1       -3.066  -2.219   1.826  0.00  0.00    +0.330 C 
BRANCH  14  15
ATOM     15  C   LIG    1       -2.941  -0.923   2.629  0.00  0.00    +0.000 C 
BRANCH  15  16
ATOM     16  C   LIG    1       -4.310  -0.538   3.193  0.00  0.00    +0.180 C 
BRANCH  16  17
ATOM     17  O   LIG    1       -4.194   0.672   3.943  0.00  0.00    -0.570 OA
ATOM     18  H   LIG    1       -5.026   0.977   4.331  0.00  0.00    +0.380 HD
ENDBRANCH  16  17
ENDBRANCH  15  16
ENDBRANCH  14  15
ENDBRANCH  10  14
TORSDOF 4
ENDMDL
MODEL      503
REMARK  Name = ZINC000020470426
REMARK                            x       y       z     vdW  Elec       q    Type
REMARK                         _______ _______ _______ _____ _____    ______ ____
ROOT
ATOM      1  C   LIG    1       -0.018   1.461   0.010  0.00  0.00    +0.330 C 
ATOM      2  N   LIG    1        0.002  -0.004   0.002  0.00  0.00    -0.560 N 
ATOM      3  C   LIG    1       -1.176  -0.650   0.004  0.00  0.00    +0.520 C 
ATOM      4  C   LIG    1       -1.185  -2.165  -0.005  0.00  0.00    +0.220 C 
ATOM      5  C   LIG    1        0.209  -2.847  -0.003  0.00  0.00    +0.410 C 
ATOM      6  N   LIG    1        1.369  -1.943   0.035  0.00  0.00    -0.600 N 
ATOM      7  C   LIG    1        2.725  -2.495   0.047  0.00  0.00    +0.330 C 
ATOM      8  N   LIG    1        0.250  -3.553  -1.290  0.00  0.00    -0.570 NA
ATOM      9  C   LIG    1       -0.839  -3.361  -1.940  0.00  0.00    +0.570 C 
ATOM     10  N   LIG    1       -1.768  -2.573  -1.293  0.00  0.00    -0.630 N 
ATOM     11  O   LIG    1       -2.218  -0.030   0.013  0.00  0.00    -0.480 OA
ATOM     12  C   LIG    1        1.189  -0.614  -0.013  0.00  0.00    +0.700 C 
ATOM     13  O   LIG    1        2.180   0.089   0.022  0.00  0.00    -0.560 OA
ENDROOT
BRANCH  10  14
ATOM     14  C   LIG    1       -3.085  -2.200  -1.815  0.00  0.00    +0.330 C 
BRANCH  14  15
ATOM     15  C   LIG    1       -4.117  -3.245  -1.389  0.00  0.00    +0.010 C 
BRANCH  15  16
ATOM     16  C   LIG    1       -5.493  -2.856  -1.934  0.00  0.00    +0.180 C 
BRANCH  16  17
ATOM     17  O   LIG    1       -6.457  -3.833  -1.535  0.00  0.00    -0.570 OA
ATOM     18  H   LIG    1       -7.354  -3.650  -1.847  0.00  0.00    +0.380 HD
ENDBRANCH  16  17
ENDBRANCH  15  16
ENDBRANCH  14  15
ENDBRANCH  10  14
TORSDOF 4
ENDMDL
MODEL      504
REMARK  Name = ZINC000004963359
REMARK                            x       y       z     vdW  Elec       q    Type
REMARK                         _______ _______ _______ _____ _____    ______ ____
ROOT
ATOM      1  C   LIG    1       -1.156  -0.819  -0.008  0.00  0.00    -0.180 A 
ATOM      2  C   LIG    1       -1.204  -2.205   0.054  0.00  0.00    +0.350 A 
ATOM      3  N   LIG    1       -2.494  -2.560   0.076  0.00  0.00    -0.520 NA
ATOM      4  C   LIG    1       -3.249  -1.494   0.033  0.00  0.00    +0.450 A 
ATOM      5  N   LIG    1       -2.478  -0.393  -0.013  0.00  0.00    -0.420 N 
ENDROOT
BRANCH   1   9
ATOM      6  N   LIG    1        0.510   0.503   1.091  0.00  0.00    -0.840 N 
ATOM      7  H   LIG    1        0.039   0.378   1.929  0.00  0.00    +0.400 HD
ATOM      8  H   LIG    1        1.344   0.998   1.071  0.00  0.00    +0.400 HD
ATOM      9  C   LIG    1        0.002  -0.006  -0.050  0.00  0.00    +0.610 C 
ATOM     10  O   LIG    1        0.540   0.233  -1.116  0.00  0.00    -0.530 OA
ENDBRANCH   1   9
BRANCH   5  11
ATOM     11  C   LIG    1       -2.945   0.994  -0.069  0.00  0.00    +0.240 C 
ATOM     12  C   LIG    1       -3.947   1.182  -1.230  0.00  0.00    +0.240 C 
ATOM     13  O   LIG    1       -4.934   2.104  -0.721  0.00  0.00    -0.340 OA
ATOM     14  C   LIG    1       -5.165   1.697   0.646  0.00  0.00    +0.130 C 
ATOM     15  C   LIG    1       -3.762   1.342   1.195  0.00  0.00    +0.160 C 
BRANCH  15  16
ATOM     16  O   LIG    1       -3.192   2.462   1.875  0.00  0.00    -0.550 OA
ATOM     17  H   LIG    1       -3.701   2.758   2.642  0.00  0.00    +0.390 HD
ENDBRANCH  15  16
BRANCH  14  18
ATOM     18  C   LIG    1       -5.777   2.848   1.448  0.00  0.00    +0.210 C 
BRANCH  18  19
ATOM     19  O   LIG    1       -7.087   3.130   0.953  0.00  0.00    -0.560 OA
ATOM     20  H   LIG    1       -7.535   3.850   1.416  0.00  0.00    +0.390 HD
ENDBRANCH  18  19
ENDBRANCH  14  18
ENDBRANCH   5  11
BRANCH   2  21
ATOM     21  N   LIG    1       -0.114  -3.063   0.086  0.00  0.00    -0.840 N 
ATOM     22  H   LIG    1       -0.253  -4.022   0.129  0.00  0.00    +0.410 HD
ATOM     23  H   LIG    1        0.787  -2.705   0.066  0.00  0.00    +0.410 HD
ENDBRANCH   2  21
TORSDOF 6
ENDMDL
MODEL      505
REMARK  Name = ZINC000045887903
REMARK                            x       y       z     vdW  Elec       q    Type
REMARK                         _______ _______ _______ _____ _____    ______ ____
ROOT
ATOM      1  N   LIG    1        3.451  -1.515  -3.160  0.00  0.00    -0.520 N 
ATOM      2  C   LIG    1        3.599  -1.949  -4.554  0.00  0.00    +0.330 C 
ATOM      3  C   LIG    1        5.108  -1.831  -4.864  0.00  0.00    +0.000 C 
ATOM      4  C   LIG    1        5.731  -1.971  -3.456  0.00  0.00    +0.110 C 
ATOM      5  C   LIG    1        4.633  -1.517  -2.520  0.00  0.00    +0.520 C 
ATOM      6  O   LIG    1        4.793  -1.208  -1.358  0.00  0.00    -0.480 OA
ENDROOT
BRANCH   1  10
ATOM      7  N   LIG    1        0.688  -0.476  -1.203  0.00  0.00    -0.200 N 
ATOM      8  N   LIG    1        0.145  -0.728  -2.345  0.00  0.00    +0.020 NA
ATOM      9  N   LIG    1        1.045  -1.123  -3.174  0.00  0.00    -0.320 NA
ATOM     10  C   LIG    1        2.236  -1.141  -2.575  0.00  0.00    +0.430 A 
ATOM     11  N   LIG    1        2.062  -0.736  -1.335  0.00  0.00    -0.290 NA
BRANCH   7  13
ATOM     12  C   LIG    1       -0.019   1.526   0.010  0.00  0.00    +0.060 C 
ATOM     13  C   LIG    1        0.002  -0.004   0.002  0.00  0.00    +0.370 C 
ENDBRANCH   7  13
ENDBRANCH   1  10
BRANCH   3  14
ATOM     14  C   LIG    1        5.562  -2.949  -5.768  0.00  0.00    +0.530 C 
ATOM     15  O   LIG    1        4.767  -3.782  -6.148  0.00  0.00    -0.530 OA
ATOM     16  N   LIG    1        6.851  -3.022  -6.155  0.00  0.00    -0.850 N 
ATOM     17  H   LIG    1        7.143  -3.741  -6.737  0.00  0.00    +0.410 HD
ATOM     18  H   LIG    1        7.487  -2.355  -5.851  0.00  0.00    +0.400 HD
ENDBRANCH   3  14
TORSDOF 3
ENDMDL
MODEL      506
REMARK  Name = ZINC000045887908
REMARK                            x       y       z     vdW  Elec       q    Type
REMARK                         _______ _______ _______ _____ _____    ______ ____
ROOT
ATOM      1  N   LIG    1        3.451  -1.515  -3.160  0.00  0.00    -0.520 N 
ATOM      2  C   LIG    1        3.599  -1.949  -4.554  0.00  0.00    +0.330 C 
ATOM      3  C   LIG    1        5.108  -1.831  -4.864  0.00  0.00    +0.010 C 
ATOM      4  C   LIG    1        5.731  -1.971  -3.456  0.00  0.00    +0.110 C 
ATOM      5  C   LIG    1        4.633  -1.517  -2.520  0.00  0.00    +0.520 C 
ATOM      6  O   LIG    1        4.793  -1.208  -1.358  0.00  0.00    -0.480 OA
ENDROOT
BRANCH   1  10
ATOM      7  N   LIG    1        0.688  -0.476  -1.203  0.00  0.00    -0.200 N 
ATOM      8  N   LIG    1        0.145  -0.728  -2.345  0.00  0.00    +0.020 NA
ATOM      9  N   LIG    1        1.045  -1.123  -3.174  0.00  0.00    -0.320 NA
ATOM     10  C   LIG    1        2.236  -1.141  -2.575  0.00  0.00    +0.430 A 
ATOM     11  N   LIG    1        2.062  -0.736  -1.335  0.00  0.00    -0.290 NA
BRANCH   7  13
ATOM     12  C   LIG    1       -0.019   1.526   0.010  0.00  0.00    +0.060 C 
ATOM     13  C   LIG    1        0.002  -0.004   0.002  0.00  0.00    +0.370 C 
ENDBRANCH   7  13
ENDBRANCH   1  10
BRANCH   3  14
ATOM     14  C   LIG    1        5.432  -0.489  -5.468  0.00  0.00    +0.520 C 
ATOM     15  O   LIG    1        4.550   0.324  -5.646  0.00  0.00    -0.530 OA
ATOM     16  N   LIG    1        6.701  -0.192  -5.809  0.00  0.00    -0.850 N 
ATOM     17  H   LIG    1        6.910   0.672  -6.197  0.00  0.00    +0.410 HD
ATOM     18  H   LIG    1        7.407  -0.842  -5.666  0.00  0.00    +0.400 HD
ENDBRANCH   3  14
TORSDOF 3
ENDMDL
MODEL      507
REMARK  Name = ZINC000013282259
REMARK                            x       y       z     vdW  Elec       q    Type
REMARK                         _______ _______ _______ _____ _____    ______ ____
ROOT
ATOM      1  N   LIG    1       -1.372  -0.511   0.012  0.00  0.00    -0.460 N 
ATOM      2  N   LIG    1       -2.023  -0.756   1.229  0.00  0.00    +0.090 NA
ATOM      3  N   LIG    1       -3.232  -1.202   1.244  0.00  0.00    -0.130 NA
ATOM      4  C   LIG    1       -3.889  -1.440   0.094  0.00  0.00    +0.130 A 
ATOM      5  C   LIG    1       -5.166  -1.910  -0.196  0.00  0.00    +0.070 A 
ATOM      6  N   LIG    1       -5.284  -1.948  -1.541  0.00  0.00    -0.430 NA
ATOM      7  C   LIG    1       -4.178  -1.538  -2.090  0.00  0.00    +0.530 A 
ATOM      8  N   LIG    1       -3.281  -1.211  -1.118  0.00  0.00    -0.470 N 
ATOM      9  C   LIG    1       -2.019  -0.740  -1.150  0.00  0.00    +0.680 A 
ATOM     10  O   LIG    1       -1.470  -0.525  -2.213  0.00  0.00    -0.490 OA
ENDROOT
BRANCH   5  11
ATOM     11  C   LIG    1       -6.195  -2.293   0.779  0.00  0.00    +0.600 C 
ATOM     12  O   LIG    1       -5.963  -2.212   1.971  0.00  0.00    -0.510 OA
ATOM     13  N   LIG    1       -7.395  -2.734   0.354  0.00  0.00    -0.830 N 
ATOM     14  H   LIG    1       -8.075  -2.987   0.999  0.00  0.00    +0.410 HD
ATOM     15  H   LIG    1       -7.580  -2.799  -0.596  0.00  0.00    +0.410 HD
ENDBRANCH   5  11
BRANCH   1  17
ATOM     16  C   LIG    1       -0.019   1.526   0.010  0.00  0.00    +0.050 C 
ATOM     17  C   LIG    1        0.002  -0.004   0.002  0.00  0.00    +0.350 C 
ENDBRANCH   1  17
TORSDOF 2
ENDMDL
MODEL      508
REMARK  Name = ZINC000044787389
REMARK                            x       y       z     vdW  Elec       q    Type
REMARK                         _______ _______ _______ _____ _____    ______ ____
ROOT
ATOM      1  C   LIG    1        1.466  -2.350  -2.530  0.00  0.00    -0.420 A 
ATOM      2  C   LIG    1        1.664  -3.730  -2.670  0.00  0.00    +0.560 A 
ATOM      3  N   LIG    1        2.289  -4.200  -3.792  0.00  0.00    -0.540 N 
ATOM      4  C   LIG    1        2.708  -3.354  -4.749  0.00  0.00    +0.710 A 
ATOM      5  N   LIG    1        2.533  -2.026  -4.644  0.00  0.00    -0.560 N 
ATOM      6  C   LIG    1        3.008  -1.147  -5.715  0.00  0.00    +0.340 C 
ATOM      7  O   LIG    1        3.260  -3.802  -5.735  0.00  0.00    -0.520 OA
ATOM      8  C   LIG    1        2.503  -5.640  -3.953  0.00  0.00    +0.360 C 
ATOM      9  C   LIG    1        1.921  -1.492  -3.568  0.00  0.00    +0.580 A 
ATOM     10  O   LIG    1        1.767  -0.287  -3.483  0.00  0.00    -0.490 OA
ENDROOT
BRANCH   2  11
ATOM     11  N   LIG    1        1.240  -4.590  -1.704  0.00  0.00    -0.800 N 
ATOM     12  H   LIG    1        1.449  -5.535  -1.770  0.00  0.00    +0.410 HD
ATOM     13  H   LIG    1        0.729  -4.259  -0.949  0.00  0.00    +0.440 HD
ENDBRANCH   2  11
BRANCH   1  14
ATOM     14  C   LIG    1        0.802  -1.806  -1.346  0.00  0.00    +0.560 C 
ATOM     15  O   LIG    1        0.320  -2.557  -0.519  0.00  0.00    -0.550 OA
BRANCH  14  16
ATOM     16  O   LIG    1        0.724  -0.471  -1.170  0.00  0.00    -0.320 OA
BRANCH  16  18
ATOM     17  C   LIG    1        0.061   1.528   0.053  0.00  0.00    +0.070 C 
ATOM     18  C   LIG    1        0.051  -0.002   0.028  0.00  0.00    +0.200 C 
ENDBRANCH  16  18
ENDBRANCH  14  16
ENDBRANCH   1  14
TORSDOF 4
ENDMDL
MODEL      509
REMARK  Name = ZINC000018255688
REMARK                            x       y       z     vdW  Elec       q    Type
REMARK                         _______ _______ _______ _____ _____    ______ ____
ROOT
ATOM      1  O   LIG    1        0.002  -0.004   0.002  0.00  0.00    -0.460 OA
ATOM      2  C   LIG    1       -0.014   1.208   0.009  0.00  0.00    +0.580 C 
ATOM      3  N   LIG    1       -1.114   2.040   0.030  0.00  0.00    -0.720 N 
ATOM      4  H   LIG    1       -2.024   1.730  -0.104  0.00  0.00    +0.420 HD
ATOM      5  C   LIG    1       -0.783   3.354   0.259  0.00  0.00    +0.540 C 
ATOM      6  C   LIG    1        0.585   3.313   0.862  0.00  0.00    +0.040 C 
ATOM      7  C   LIG    1        1.634   4.368   0.665  0.00  0.00    +0.050 C 
ATOM      8  C   LIG    1        1.398   5.576  -0.208  0.00  0.00    +0.540 C 
ATOM      9  O   LIG    1        0.366   6.196  -0.348  0.00  0.00    -0.430 OA
ATOM     10  N   LIG    1        2.609   5.827  -0.799  0.00  0.00    -0.720 N 
ATOM     11  H   LIG    1        2.833   6.669  -1.226  0.00  0.00    +0.420 HD
ATOM     12  C   LIG    1        3.476   4.754  -0.720  0.00  0.00    +0.580 C 
ATOM     13  O   LIG    1        4.676   4.737  -0.888  0.00  0.00    -0.450 OA
ATOM     14  C   LIG    1        2.600   3.662  -0.391  0.00  0.00    -0.080 C 
ATOM     15  C   LIG    1        2.586   2.212  -0.042  0.00  0.00    +0.200 C 
ATOM     16  O   LIG    1       -1.456   4.335   0.024  0.00  0.00    -0.430 OA
ATOM     17  C   LIG    1        1.103   2.102   0.003  0.00  0.00    -0.090 C 
ENDROOT
TORSDOF 0
ENDMDL
MODEL      510
REMARK  Name = ZINC000064858422
REMARK                            x       y       z     vdW  Elec       q    Type
REMARK                         _______ _______ _______ _____ _____    ______ ____
ROOT
ATOM      1  C   LIG    1       -1.414  -2.036   0.129  0.00  0.00    +0.090 C 
ATOM      2  N   LIG    1       -0.295  -2.676   0.206  0.00  0.00    -0.390 NA
ATOM      3  C   LIG    1       -0.359  -4.138   0.323  0.00  0.00    +0.110 C 
ATOM      4  C   LIG    1        0.960  -4.705   0.752  0.00  0.00    +0.540 C 
ATOM      5  N   LIG    1        1.049  -5.529   1.787  0.00  0.00    -0.690 NA
ATOM      6  C   LIG    1       -0.008  -5.857   2.516  0.00  0.00    +0.680 C 
ATOM      7  N   LIG    1       -1.214  -5.319   2.300  0.00  0.00    -0.650 NA
ATOM      8  O   LIG    1        1.967  -4.404   0.141  0.00  0.00    -0.470 OA
ATOM      9  C   LIG    1       -1.418  -4.478   1.343  0.00  0.00    +0.480 C 
ATOM     10  N   LIG    1       -2.606  -3.826   1.215  0.00  0.00    -0.670 N 
ATOM     11  H   LIG    1       -3.360  -4.014   1.795  0.00  0.00    +0.430 HD
ATOM     12  C   LIG    1       -2.704  -2.825   0.162  0.00  0.00    +0.330 C 
ENDROOT
BRANCH   6  13
ATOM     13  N   LIG    1        0.139  -6.774   3.521  0.00  0.00    -0.780 N 
ATOM     14  H   LIG    1       -0.625  -7.024   4.063  0.00  0.00    +0.420 HD
ATOM     15  H   LIG    1        1.006  -7.173   3.691  0.00  0.00    +0.420 HD
ENDBRANCH   6  13
BRANCH   1  16
ATOM     16  C   LIG    1       -1.433  -0.534   0.013  0.00  0.00    +0.260 C 
BRANCH  16  18
ATOM     17  C   LIG    1       -0.019   1.526   0.010  0.00  0.00    +0.030 C 
ATOM     18  C   LIG    1        0.002  -0.004   0.002  0.00  0.00    +0.190 C 
BRANCH  18  19
ATOM     19  O   LIG    1        0.693  -0.477   1.160  0.00  0.00    -0.530 OA
ATOM     20  H   LIG    1        0.294  -0.202   1.996  0.00  0.00    +0.360 HD
ENDBRANCH  18  19
ENDBRANCH  16  18
BRANCH  16  21
ATOM     21  O   LIG    1       -2.137   0.021   1.126  0.00  0.00    -0.540 OA
ATOM     22  H   LIG    1       -1.747  -0.195   1.985  0.00  0.00    +0.380 HD
ENDBRANCH  16  21
ENDBRANCH   1  16
TORSDOF 5
ENDMDL
MODEL      511
REMARK  Name = ZINC000035218690
REMARK                            x       y       z     vdW  Elec       q    Type
REMARK                         _______ _______ _______ _____ _____    ______ ____
ROOT
ATOM      1  O   LIG    1        0.002  -0.004   0.002  0.00  0.00    -0.500 OA
ATOM      2  C   LIG    1       -0.014   1.209   0.009  0.00  0.00    +0.500 C 
ATOM      3  N   LIG    1       -1.191   1.867   0.018  0.00  0.00    -0.610 N 
ATOM      4  C   LIG    1       -1.227   3.335   0.020  0.00  0.00    +0.260 C 
ATOM      5  C   LIG    1       -2.107   3.808  -1.141  0.00  0.00    +0.020 C 
ATOM      6  C   LIG    1       -3.483   3.146  -1.035  0.00  0.00    +0.020 C 
ATOM      7  C   LIG    1       -3.328   1.627  -1.135  0.00  0.00    -0.020 C 
ATOM      8  C   LIG    1       -2.461   1.129   0.020  0.00  0.00    +0.290 C 
ENDROOT
BRANCH   7   9
ATOM      9  C   LIG    1       -4.707   0.967  -1.063  0.00  0.00    +0.180 C 
BRANCH   9  10
ATOM     10  O   LIG    1       -4.573  -0.440  -1.272  0.00  0.00    -0.570 OA
ATOM     11  H   LIG    1       -5.409  -0.924  -1.240  0.00  0.00    +0.380 HD
ENDBRANCH   9  10
ENDBRANCH   7   9
BRANCH   2  12
ATOM     12  C   LIG    1        1.280   1.980   0.001  0.00  0.00    +0.380 C 
BRANCH  12  13
ATOM     13  N   LIG    1        2.407   1.043  -0.015  0.00  0.00    -0.300 N 
ATOM     14  C   LIG    1        3.413   1.018  -0.909  0.00  0.00    +0.400 A 
ATOM     15  N   LIG    1        4.201   0.030  -0.560  0.00  0.00    -0.300 NA
ATOM     16  N   LIG    1        3.705  -0.522   0.493  0.00  0.00    -0.070 NA
ATOM     17  N   LIG    1        2.623   0.091   0.828  0.00  0.00    -0.060 NA
ENDBRANCH  12  13
ENDBRANCH   2  12
TORSDOF 4
ENDMDL
MODEL      512
REMARK  Name = ZINC000064858427
REMARK                            x       y       z     vdW  Elec       q    Type
REMARK                         _______ _______ _______ _____ _____    ______ ____
ROOT
ATOM      1  C   LIG    1       -1.414  -2.036   0.129  0.00  0.00    +0.090 C 
ATOM      2  N   LIG    1       -0.295  -2.676   0.206  0.00  0.00    -0.380 NA
ATOM      3  C   LIG    1       -0.358  -4.139   0.310  0.00  0.00    +0.110 C 
ATOM      4  C   LIG    1        0.978  -4.760   0.040  0.00  0.00    +0.540 C 
ATOM      5  N   LIG    1        1.117  -5.731  -0.852  0.00  0.00    -0.690 NA
ATOM      6  C   LIG    1        0.097  -6.170  -1.575  0.00  0.00    +0.680 C 
ATOM      7  N   LIG    1       -1.117  -5.611  -1.504  0.00  0.00    -0.650 NA
ATOM      8  O   LIG    1        1.954  -4.366   0.649  0.00  0.00    -0.460 OA
ATOM      9  C   LIG    1       -1.365  -4.635  -0.699  0.00  0.00    +0.480 C 
ATOM     10  N   LIG    1       -2.556  -3.976  -0.732  0.00  0.00    -0.670 N 
ATOM     11  H   LIG    1       -3.281  -4.254  -1.313  0.00  0.00    +0.430 HD
ATOM     12  C   LIG    1       -2.704  -2.825   0.162  0.00  0.00    +0.330 C 
ENDROOT
BRANCH   6  13
ATOM     13  N   LIG    1        0.291  -7.228  -2.420  0.00  0.00    -0.780 N 
ATOM     14  H   LIG    1       -0.446  -7.562  -2.957  0.00  0.00    +0.420 HD
ATOM     15  H   LIG    1        1.164  -7.645  -2.483  0.00  0.00    +0.420 HD
ENDBRANCH   6  13
BRANCH   1  16
ATOM     16  C   LIG    1       -1.433  -0.534   0.013  0.00  0.00    +0.260 C 
BRANCH  16  18
ATOM     17  C   LIG    1       -0.019   1.526   0.010  0.00  0.00    +0.030 C 
ATOM     18  C   LIG    1        0.002  -0.004   0.002  0.00  0.00    +0.190 C 
BRANCH  18  19
ATOM     19  O   LIG    1        0.693  -0.477   1.160  0.00  0.00    -0.530 OA
ATOM     20  H   LIG    1        0.294  -0.202   1.996  0.00  0.00    +0.360 HD
ENDBRANCH  18  19
ENDBRANCH  16  18
BRANCH  16  21
ATOM     21  O   LIG    1       -2.137   0.021   1.126  0.00  0.00    -0.540 OA
ATOM     22  H   LIG    1       -1.747  -0.195   1.985  0.00  0.00    +0.380 HD
ENDBRANCH  16  21
ENDBRANCH   1  16
TORSDOF 5
ENDMDL
MODEL      513
REMARK  Name = ZINC000004021313
REMARK                            x       y       z     vdW  Elec       q    Type
REMARK                         _______ _______ _______ _____ _____    ______ ____
ROOT
ATOM      1  C   LIG    1        1.277  -2.753   2.085  0.00  0.00    +0.430 C 
ATOM      2  O   LIG    1        2.617  -3.073   1.706  0.00  0.00    -0.340 OA
ATOM      3  C   LIG    1        2.715  -3.866   0.521  0.00  0.00    +0.180 C 
ATOM      4  C   LIG    1        2.002  -5.202   0.743  0.00  0.00    +0.160 C 
ATOM      5  C   LIG    1        0.542  -4.936   1.125  0.00  0.00    +0.150 C 
ATOM      6  C   LIG    1        0.506  -4.044   2.370  0.00  0.00    +0.120 C 
ENDROOT
BRANCH   1  11
ATOM      7  C   LIG    1       -0.018   1.461   0.010  0.00  0.00    +0.300 C 
ATOM      8  N   LIG    1        0.002  -0.004   0.002  0.00  0.00    -0.750 N 
ATOM      9  H   LIG    1       -0.418  -0.491  -0.724  0.00  0.00    +0.400 HD
ATOM     10  C   LIG    1        0.604  -0.675   1.004  0.00  0.00    +0.710 C 
ATOM     11  N   LIG    1        0.623  -2.023   0.996  0.00  0.00    -0.760 N 
ATOM     12  H   LIG    1        0.202  -2.510   0.270  0.00  0.00    +0.390 HD
ATOM     13  O   LIG    1        1.131  -0.065   1.914  0.00  0.00    -0.580 OA
ENDBRANCH   1  11
BRANCH   5  14
ATOM     14  O   LIG    1       -0.112  -6.176   1.403  0.00  0.00    -0.550 OA
ATOM     15  H   LIG    1       -1.042  -6.082   1.653  0.00  0.00    +0.390 HD
ENDBRANCH   5  14
BRANCH   4  16
ATOM     16  O   LIG    1        2.649  -5.920   1.795  0.00  0.00    -0.530 OA
ATOM     17  H   LIG    1        2.249  -6.778   1.990  0.00  0.00    +0.380 HD
ENDBRANCH   4  16
BRANCH   6  18
ATOM     18  O   LIG    1        1.112  -4.731   3.467  0.00  0.00    -0.520 OA
ATOM     19  H   LIG    1        1.124  -4.224   4.290  0.00  0.00    +0.380 HD
ENDBRANCH   6  18
BRANCH   3  20
ATOM     20  C   LIG    1        4.188  -4.121   0.197  0.00  0.00    +0.220 C 
BRANCH  20  21
ATOM     21  O   LIG    1        4.827  -2.883  -0.123  0.00  0.00    -0.570 OA
ATOM     22  H   LIG    1        5.766  -2.969  -0.339  0.00  0.00    +0.380 HD
ENDBRANCH  20  21
ENDBRANCH   3  20
TORSDOF 6
ENDMDL
MODEL      514
REMARK  Name = ZINC000006792411
REMARK                            x       y       z     vdW  Elec       q    Type
REMARK                         _______ _______ _______ _____ _____    ______ ____
ROOT
ATOM      1  C   LIG    1        1.237  -2.730  -2.134  0.00  0.00    +0.280 C 
ATOM      2  C   LIG    1        0.235  -2.887  -3.281  0.00  0.00    +0.310 C 
ATOM      3  O   LIG    1        0.837  -3.638  -4.338  0.00  0.00    -0.380 OA
ATOM      4  C   LIG    1        1.228  -4.960  -3.965  0.00  0.00    +0.150 C 
ATOM      5  C   LIG    1        2.269  -4.887  -2.845  0.00  0.00    +0.130 C 
ATOM      6  C   LIG    1        1.681  -4.117  -1.659  0.00  0.00    +0.190 C 
ENDROOT
BRANCH   1  11
ATOM      7  C   LIG    1       -0.018   1.461   0.010  0.00  0.00    +0.300 C 
ATOM      8  N   LIG    1        0.002  -0.004   0.002  0.00  0.00    -0.750 N 
ATOM      9  H   LIG    1       -0.404  -0.499   0.731  0.00  0.00    +0.390 HD
ATOM     10  C   LIG    1        0.585  -0.664  -1.018  0.00  0.00    +0.710 C 
ATOM     11  N   LIG    1        0.603  -2.012  -1.025  0.00  0.00    -0.730 N 
ATOM     12  H   LIG    1        0.197  -2.507  -0.297  0.00  0.00    +0.390 HD
ATOM     13  O   LIG    1        1.095  -0.045  -1.931  0.00  0.00    -0.560 OA
ENDBRANCH   1  11
BRANCH   5  14
ATOM     14  O   LIG    1        3.435  -4.212  -3.321  0.00  0.00    -0.540 OA
ATOM     15  H   LIG    1        3.858  -4.643  -4.077  0.00  0.00    +0.380 HD
ENDBRANCH   5  14
BRANCH   2  16
ATOM     16  O   LIG    1       -0.139  -1.596  -3.767  0.00  0.00    -0.510 OA
ATOM     17  H   LIG    1       -0.774  -1.619  -4.496  0.00  0.00    +0.380 HD
ENDBRANCH   2  16
BRANCH   6  18
ATOM     18  O   LIG    1        2.671  -3.982  -0.638  0.00  0.00    -0.540 OA
ATOM     19  H   LIG    1        3.000  -4.825  -0.295  0.00  0.00    +0.380 HD
ENDBRANCH   6  18
BRANCH   4  20
ATOM     20  C   LIG    1        1.830  -5.676  -5.176  0.00  0.00    +0.210 C 
BRANCH  20  21
ATOM     21  O   LIG    1        0.824  -5.846  -6.177  0.00  0.00    -0.560 OA
ATOM     22  H   LIG    1        1.136  -6.294  -6.975  0.00  0.00    +0.390 HD
ENDBRANCH  20  21
ENDBRANCH   4  20
TORSDOF 6
ENDMDL
MODEL      515
REMARK  Name = ZINC000004021315
REMARK                            x       y       z     vdW  Elec       q    Type
REMARK                         _______ _______ _______ _____ _____    ______ ____
ROOT
ATOM      1  C   LIG    1        1.277  -2.753   2.085  0.00  0.00    +0.430 C 
ATOM      2  O   LIG    1        2.617  -3.073   1.706  0.00  0.00    -0.350 OA
ATOM      3  C   LIG    1        2.715  -3.866   0.521  0.00  0.00    +0.180 C 
ATOM      4  C   LIG    1        2.002  -5.202   0.743  0.00  0.00    +0.170 C 
ATOM      5  C   LIG    1        0.542  -4.936   1.125  0.00  0.00    +0.150 C 
ATOM      6  C   LIG    1        0.506  -4.044   2.370  0.00  0.00    +0.140 C 
ENDROOT
BRANCH   1  11
ATOM      7  C   LIG    1       -0.018   1.461   0.010  0.00  0.00    +0.300 C 
ATOM      8  N   LIG    1        0.002  -0.004   0.002  0.00  0.00    -0.750 N 
ATOM      9  H   LIG    1       -0.418  -0.491  -0.724  0.00  0.00    +0.400 HD
ATOM     10  C   LIG    1        0.604  -0.675   1.004  0.00  0.00    +0.710 C 
ATOM     11  N   LIG    1        0.623  -2.023   0.996  0.00  0.00    -0.750 N 
ATOM     12  H   LIG    1        0.202  -2.510   0.270  0.00  0.00    +0.390 HD
ATOM     13  O   LIG    1        1.131  -0.065   1.914  0.00  0.00    -0.580 OA
ENDBRANCH   1  11
BRANCH   5  14
ATOM     14  O   LIG    1       -0.112  -6.176   1.403  0.00  0.00    -0.560 OA
ATOM     15  H   LIG    1       -1.042  -6.082   1.653  0.00  0.00    +0.390 HD
ENDBRANCH   5  14
BRANCH   4  16
ATOM     16  O   LIG    1        2.649  -5.920   1.795  0.00  0.00    -0.550 OA
ATOM     17  H   LIG    1        2.249  -6.778   1.990  0.00  0.00    +0.390 HD
ENDBRANCH   4  16
BRANCH   6  18
ATOM     18  O   LIG    1       -0.850  -3.731   2.694  0.00  0.00    -0.560 OA
ATOM     19  H   LIG    1       -0.948  -3.168   3.474  0.00  0.00    +0.390 HD
ENDBRANCH   6  18
BRANCH   3  20
ATOM     20  C   LIG    1        4.188  -4.121   0.197  0.00  0.00    +0.220 C 
BRANCH  20  21
ATOM     21  O   LIG    1        4.827  -2.883  -0.123  0.00  0.00    -0.570 OA
ATOM     22  H   LIG    1        5.766  -2.969  -0.339  0.00  0.00    +0.380 HD
ENDBRANCH  20  21
ENDBRANCH   3  20
TORSDOF 6
ENDMDL
MODEL      516
REMARK  Name = ZINC000006792412
REMARK                            x       y       z     vdW  Elec       q    Type
REMARK                         _______ _______ _______ _____ _____    ______ ____
ROOT
ATOM      1  C   LIG    1        1.237  -2.730  -2.134  0.00  0.00    +0.280 C 
ATOM      2  C   LIG    1        1.681  -4.117  -1.659  0.00  0.00    +0.200 C 
ATOM      3  C   LIG    1        2.271  -4.886  -2.845  0.00  0.00    +0.130 C 
ATOM      4  C   LIG    1        1.228  -4.961  -3.964  0.00  0.00    +0.150 C 
ATOM      5  O   LIG    1        0.837  -3.639  -4.337  0.00  0.00    -0.390 OA
ATOM      6  C   LIG    1        0.235  -2.887  -3.281  0.00  0.00    +0.320 C 
ENDROOT
BRANCH   1  11
ATOM      7  C   LIG    1       -0.018   1.461   0.010  0.00  0.00    +0.300 C 
ATOM      8  N   LIG    1        0.002  -0.004   0.002  0.00  0.00    -0.750 N 
ATOM      9  H   LIG    1       -0.404  -0.499   0.731  0.00  0.00    +0.400 HD
ATOM     10  C   LIG    1        0.585  -0.664  -1.018  0.00  0.00    +0.700 C 
ATOM     11  N   LIG    1        0.603  -2.012  -1.025  0.00  0.00    -0.730 N 
ATOM     12  H   LIG    1        0.197  -2.507  -0.297  0.00  0.00    +0.400 HD
ATOM     13  O   LIG    1        1.095  -0.045  -1.931  0.00  0.00    -0.560 OA
ENDBRANCH   1  11
BRANCH   3  14
ATOM     14  O   LIG    1        3.436  -4.210  -3.321  0.00  0.00    -0.550 OA
ATOM     15  H   LIG    1        3.862  -4.643  -4.073  0.00  0.00    +0.380 HD
ENDBRANCH   3  14
BRANCH   2  16
ATOM     16  O   LIG    1        0.555  -4.827  -1.139  0.00  0.00    -0.550 OA
ATOM     17  H   LIG    1        0.763  -5.715  -0.819  0.00  0.00    +0.390 HD
ENDBRANCH   2  16
BRANCH   6  18
ATOM     18  O   LIG    1       -0.140  -1.597  -3.768  0.00  0.00    -0.520 OA
ATOM     19  H   LIG    1       -0.775  -1.622  -4.498  0.00  0.00    +0.380 HD
ENDBRANCH   6  18
BRANCH   4  20
ATOM     20  C   LIG    1        1.831  -5.677  -5.175  0.00  0.00    +0.200 C 
BRANCH  20  21
ATOM     21  O   LIG    1        0.824  -5.850  -6.175  0.00  0.00    -0.560 OA
ATOM     22  H   LIG    1        1.136  -6.298  -6.973  0.00  0.00    +0.380 HD
ENDBRANCH  20  21
ENDBRANCH   4  20
TORSDOF 6
ENDMDL
MODEL      517
REMARK  Name = ZINC000005120904
REMARK                            x       y       z     vdW  Elec       q    Type
REMARK                         _______ _______ _______ _____ _____    ______ ____
ROOT
ATOM      1  C   LIG    1        1.277  -2.753   2.085  0.00  0.00    +0.290 C 
ATOM      2  C   LIG    1        2.774  -2.882   1.787  0.00  0.00    +0.140 C 
ATOM      3  C   LIG    1        3.436  -3.713   2.890  0.00  0.00    +0.210 C 
ATOM      4  O   LIG    1        2.802  -4.991   2.966  0.00  0.00    -0.390 OA
ATOM      5  C   LIG    1        1.411  -4.935   3.288  0.00  0.00    +0.290 C 
ATOM      6  C   LIG    1        0.667  -4.153   2.203  0.00  0.00    +0.180 C 
ENDROOT
BRANCH   1  11
ATOM      7  C   LIG    1       -0.018   1.461   0.010  0.00  0.00    +0.300 C 
ATOM      8  N   LIG    1        0.002  -0.004   0.002  0.00  0.00    -0.750 N 
ATOM      9  H   LIG    1       -0.418  -0.491  -0.724  0.00  0.00    +0.400 HD
ATOM     10  C   LIG    1        0.604  -0.675   1.004  0.00  0.00    +0.700 C 
ATOM     11  N   LIG    1        0.623  -2.023   0.996  0.00  0.00    -0.730 N 
ATOM     12  H   LIG    1        0.202  -2.510   0.270  0.00  0.00    +0.400 HD
ATOM     13  O   LIG    1        1.131  -0.065   1.914  0.00  0.00    -0.570 OA
ENDBRANCH   1  11
BRANCH   5  14
ATOM     14  O   LIG    1        0.886  -6.262   3.365  0.00  0.00    -0.370 OA
ATOM     15  C   LIG    1        1.350  -7.007   4.492  0.00  0.00    +0.230 C 
ENDBRANCH   5  14
BRANCH   2  16
ATOM     16  O   LIG    1        3.367  -1.582   1.747  0.00  0.00    -0.540 OA
ATOM     17  H   LIG    1        4.316  -1.588   1.562  0.00  0.00    +0.370 HD
ENDBRANCH   2  16
BRANCH   6  18
ATOM     18  O   LIG    1        0.791  -4.834   0.953  0.00  0.00    -0.550 OA
ATOM     19  H   LIG    1        0.430  -5.731   0.956  0.00  0.00    +0.390 HD
ENDBRANCH   6  18
TORSDOF 4
ENDMDL
MODEL      518
REMARK  Name = ZINC000005120901
REMARK                            x       y       z     vdW  Elec       q    Type
REMARK                         _______ _______ _______ _____ _____    ______ ____
ROOT
ATOM      1  C   LIG    1        1.237  -2.730  -2.134  0.00  0.00    +0.290 C 
ATOM      2  C   LIG    1        1.680  -4.118  -1.660  0.00  0.00    +0.170 C 
ATOM      3  C   LIG    1        2.269  -4.889  -2.844  0.00  0.00    +0.290 C 
ATOM      4  O   LIG    1        1.296  -4.975  -3.886  0.00  0.00    -0.380 OA
ATOM      5  C   LIG    1        0.879  -3.709  -4.402  0.00  0.00    +0.210 C 
ATOM      6  C   LIG    1        0.235  -2.888  -3.281  0.00  0.00    +0.130 C 
ENDROOT
BRANCH   1  11
ATOM      7  C   LIG    1       -0.018   1.461   0.010  0.00  0.00    +0.310 C 
ATOM      8  N   LIG    1        0.002  -0.004   0.002  0.00  0.00    -0.750 N 
ATOM      9  H   LIG    1       -0.404  -0.499   0.731  0.00  0.00    +0.400 HD
ATOM     10  C   LIG    1        0.585  -0.664  -1.018  0.00  0.00    +0.700 C 
ATOM     11  N   LIG    1        0.603  -2.012  -1.025  0.00  0.00    -0.720 N 
ATOM     12  H   LIG    1        0.197  -2.507  -0.297  0.00  0.00    +0.410 HD
ATOM     13  O   LIG    1        1.095  -0.045  -1.931  0.00  0.00    -0.600 OA
ENDBRANCH   1  11
BRANCH   3  14
ATOM     14  O   LIG    1        2.633  -6.205  -2.421  0.00  0.00    -0.370 OA
ATOM     15  C   LIG    1        3.397  -6.934  -3.384  0.00  0.00    +0.210 C 
ENDBRANCH   3  14
BRANCH   2  16
ATOM     16  O   LIG    1        0.553  -4.826  -1.139  0.00  0.00    -0.530 OA
ATOM     17  H   LIG    1        0.761  -5.715  -0.820  0.00  0.00    +0.380 HD
ENDBRANCH   2  16
BRANCH   6  18
ATOM     18  O   LIG    1       -0.931  -3.563  -2.805  0.00  0.00    -0.530 OA
ATOM     19  H   LIG    1       -1.609  -3.703  -3.482  0.00  0.00    +0.370 HD
ENDBRANCH   6  18
TORSDOF 4
ENDMDL
MODEL      519
REMARK  Name = ZINC000011678826
REMARK                            x       y       z     vdW  Elec       q    Type
REMARK                         _______ _______ _______ _____ _____    ______ ____
ROOT
ATOM      1  C   LIG    1        0.002  -0.004   0.002  0.00  0.00    +0.630 A 
ATOM      2  N   LIG    1       -1.139  -0.678   0.004  0.00  0.00    -0.640 NA
ATOM      3  C   LIG    1       -1.126  -2.014  -0.004  0.00  0.00    +0.660 A 
ATOM      4  N   LIG    1        0.054  -2.668  -0.013  0.00  0.00    -0.550 N 
ATOM      5  C   LIG    1        1.207  -1.963  -0.014  0.00  0.00    +0.680 A 
ATOM      6  O   LIG    1       -2.173  -2.638  -0.002  0.00  0.00    -0.530 OA
ATOM      7  N   LIG    1        1.174  -0.654  -0.013  0.00  0.00    -0.600 NA
ENDROOT
BRANCH   4   8
ATOM      8  C1* LIG    1        0.085  -4.133  -0.021  0.00  0.00    +0.410 C 
ATOM      9  C2* LIG    1        0.738  -4.649  -1.323  0.00  0.00    +0.000 C 
ATOM     10  C3* LIG    1        1.548  -5.885  -0.872  0.00  0.00    +0.170 C 
ATOM     11  C4* LIG    1        1.290  -5.969   0.649  0.00  0.00    +0.190 C 
ATOM     12  O4* LIG    1        0.933  -4.624   1.040  0.00  0.00    -0.360 OA
BRANCH  10  13
ATOM     13  O3* LIG    1        2.940  -5.694  -1.136  0.00  0.00    -0.550 OA
ATOM     14  H3* LIG    1        3.150  -5.577  -2.072  0.00  0.00    +0.390 HD
ENDBRANCH  10  13
BRANCH  11  15
ATOM     15  C5* LIG    1        2.555  -6.422   1.380  0.00  0.00    +0.230 C 
BRANCH  15  16
ATOM     16  O5* LIG    1        2.263  -6.605   2.767  0.00  0.00    -0.570 OA
ATOM     17  H5* LIG    1        3.022  -6.893   3.294  0.00  0.00    +0.380 HD
ENDBRANCH  15  16
ENDBRANCH  11  15
ENDBRANCH   4   8
BRANCH   1  18
ATOM     18  N   LIG    1       -0.017   1.368   0.010  0.00  0.00    -0.790 N 
ATOM     19  H   LIG    1       -0.863   1.842   0.016  0.00  0.00    +0.420 HD
ATOM     20  H   LIG    1        0.817   1.865   0.004  0.00  0.00    +0.420 HD
ENDBRANCH   1  18
TORSDOF 5
ENDMDL
MODEL      520
REMARK  Name = ZINC000006792408
REMARK                            x       y       z     vdW  Elec       q    Type
REMARK                         _______ _______ _______ _____ _____    ______ ____
ROOT
ATOM      1  C   LIG    1        1.237  -2.730  -2.134  0.00  0.00    +0.270 C 
ATOM      2  C   LIG    1        0.713  -4.169  -2.178  0.00  0.00    +0.190 C 
ATOM      3  C   LIG    1        1.113  -4.886  -0.885  0.00  0.00    +0.120 C 
ATOM      4  C   LIG    1        2.635  -4.826  -0.727  0.00  0.00    +0.150 C 
ATOM      5  O   LIG    1        3.059  -3.461  -0.725  0.00  0.00    -0.390 OA
ATOM      6  C   LIG    1        2.754  -2.752  -1.929  0.00  0.00    +0.350 C 
ENDROOT
BRANCH   1  11
ATOM      7  C   LIG    1       -2.475  -0.109  -0.378  0.00  0.00    +0.300 C 
ATOM      8  N   LIG    1       -1.175  -0.756  -0.184  0.00  0.00    -0.750 N 
ATOM      9  H   LIG    1       -0.734  -0.709   0.679  0.00  0.00    +0.400 HD
ATOM     10  C   LIG    1       -0.592  -1.417  -1.204  0.00  0.00    +0.710 C 
ATOM     11  N   LIG    1        0.603  -2.012  -1.025  0.00  0.00    -0.700 N 
ATOM     12  H   LIG    1        1.044  -1.965  -0.163  0.00  0.00    +0.410 HD
ATOM     13  O   LIG    1       -1.145  -1.475  -2.285  0.00  0.00    -0.600 OA
ENDBRANCH   1  11
BRANCH   3  14
ATOM     14  O   LIG    1        0.491  -4.244   0.229  0.00  0.00    -0.540 OA
ATOM     15  H   LIG    1        0.701  -4.646   1.083  0.00  0.00    +0.380 HD
ENDBRANCH   3  14
BRANCH   2  16
ATOM     16  O   LIG    1        1.280  -4.850  -3.300  0.00  0.00    -0.550 OA
ATOM     17  H   LIG    1        0.991  -5.768  -3.389  0.00  0.00    +0.390 HD
ENDBRANCH   2  16
BRANCH   6  18
ATOM     18  O   LIG    1        3.243  -1.413  -1.830  0.00  0.00    -0.540 OA
ATOM     19  H   LIG    1        4.199  -1.352  -1.697  0.00  0.00    +0.390 HD
ENDBRANCH   6  18
BRANCH   4  20
ATOM     20  C   LIG    1        3.037  -5.488   0.592  0.00  0.00    +0.200 C 
BRANCH  20  21
ATOM     21  O   LIG    1        4.463  -5.537   0.685  0.00  0.00    -0.560 OA
ATOM     22  H   LIG    1        4.790  -5.945   1.499  0.00  0.00    +0.380 HD
ENDBRANCH  20  21
ENDBRANCH   4  20
TORSDOF 6
ENDMDL
MODEL      521
REMARK  Name = ZINC000006792406
REMARK                            x       y       z     vdW  Elec       q    Type
REMARK                         _______ _______ _______ _____ _____    ______ ____
ROOT
ATOM      1  C   LIG    1        1.237  -2.730  -2.134  0.00  0.00    +0.270 C 
ATOM      2  C   LIG    1        2.754  -2.752  -1.929  0.00  0.00    +0.340 C 
ATOM      3  O   LIG    1        3.060  -3.459  -0.725  0.00  0.00    -0.390 OA
ATOM      4  C   LIG    1        2.637  -4.824  -0.727  0.00  0.00    +0.150 C 
ATOM      5  C   LIG    1        1.116  -4.885  -0.884  0.00  0.00    +0.120 C 
ATOM      6  C   LIG    1        0.713  -4.169  -2.178  0.00  0.00    +0.180 C 
ENDROOT
BRANCH   1  11
ATOM      7  C   LIG    1       -2.417  -0.008  -0.410  0.00  0.00    +0.290 C 
ATOM      8  N   LIG    1       -1.148  -0.708  -0.200  0.00  0.00    -0.750 N 
ATOM      9  H   LIG    1       -0.727  -0.696   0.674  0.00  0.00    +0.390 HD
ATOM     10  C   LIG    1       -0.565  -1.368  -1.220  0.00  0.00    +0.710 C 
ATOM     11  N   LIG    1        0.603  -2.012  -1.025  0.00  0.00    -0.700 N 
ATOM     12  H   LIG    1        1.024  -2.000  -0.152  0.00  0.00    +0.400 HD
ATOM     13  O   LIG    1       -1.092  -1.383  -2.315  0.00  0.00    -0.590 OA
ENDBRANCH   1  11
BRANCH   5  14
ATOM     14  O   LIG    1        0.494  -4.244   0.231  0.00  0.00    -0.530 OA
ATOM     15  H   LIG    1        0.709  -4.644   1.085  0.00  0.00    +0.370 HD
ENDBRANCH   5  14
BRANCH   2  16
ATOM     16  O   LIG    1        3.241  -1.412  -1.832  0.00  0.00    -0.530 OA
ATOM     17  H   LIG    1        4.197  -1.350  -1.700  0.00  0.00    +0.390 HD
ENDBRANCH   2  16
BRANCH   6  18
ATOM     18  O   LIG    1       -0.711  -4.159  -2.296  0.00  0.00    -0.520 OA
ATOM     19  H   LIG    1       -1.109  -5.040  -2.323  0.00  0.00    +0.370 HD
ENDBRANCH   6  18
BRANCH   4  20
ATOM     20  C   LIG    1        3.041  -5.485   0.592  0.00  0.00    +0.210 C 
BRANCH  20  21
ATOM     21  O   LIG    1        4.467  -5.531   0.685  0.00  0.00    -0.560 OA
ATOM     22  H   LIG    1        4.795  -5.939   1.499  0.00  0.00    +0.390 HD
ENDBRANCH  20  21
ENDBRANCH   4  20
TORSDOF 6
ENDMDL
MODEL      522
REMARK  Name = ZINC000004021312
REMARK                            x       y       z     vdW  Elec       q    Type
REMARK                         _______ _______ _______ _____ _____    ______ ____
ROOT
ATOM      1  C   LIG    1        1.277  -2.753   2.085  0.00  0.00    +0.400 C 
ATOM      2  O   LIG    1        0.291  -3.212   3.011  0.00  0.00    -0.360 OA
ATOM      3  C   LIG    1        0.827  -3.919   4.132  0.00  0.00    +0.190 C 
ATOM      4  C   LIG    1        1.568  -5.166   3.640  0.00  0.00    +0.160 C 
ATOM      5  C   LIG    1        2.667  -4.744   2.661  0.00  0.00    +0.160 C 
ATOM      6  C   LIG    1        2.036  -3.952   1.511  0.00  0.00    +0.120 C 
ENDROOT
BRANCH   1  11
ATOM      7  C   LIG    1       -0.018   1.461   0.010  0.00  0.00    +0.300 C 
ATOM      8  N   LIG    1        0.002  -0.004   0.002  0.00  0.00    -0.750 N 
ATOM      9  H   LIG    1       -0.418  -0.491  -0.724  0.00  0.00    +0.400 HD
ATOM     10  C   LIG    1        0.604  -0.675   1.004  0.00  0.00    +0.710 C 
ATOM     11  N   LIG    1        0.623  -2.023   0.996  0.00  0.00    -0.730 N 
ATOM     12  H   LIG    1        0.202  -2.510   0.270  0.00  0.00    +0.400 HD
ATOM     13  O   LIG    1        1.131  -0.065   1.914  0.00  0.00    -0.580 OA
ENDBRANCH   1  11
BRANCH   5  14
ATOM     14  O   LIG    1        3.317  -5.907   2.143  0.00  0.00    -0.550 OA
ATOM     15  H   LIG    1        4.026  -5.714   1.514  0.00  0.00    +0.390 HD
ENDBRANCH   5  14
BRANCH   4  16
ATOM     16  O   LIG    1        0.648  -6.038   2.982  0.00  0.00    -0.530 OA
ATOM     17  H   LIG    1        1.050  -6.851   2.644  0.00  0.00    +0.380 HD
ENDBRANCH   4  16
BRANCH   6  18
ATOM     18  O   LIG    1        1.130  -4.793   0.794  0.00  0.00    -0.520 OA
ATOM     19  H   LIG    1        0.693  -4.355   0.050  0.00  0.00    +0.370 HD
ENDBRANCH   6  18
BRANCH   3  20
ATOM     20  C   LIG    1       -0.311  -4.336   5.064  0.00  0.00    +0.220 C 
BRANCH  20  21
ATOM     21  O   LIG    1       -0.929  -3.170   5.613  0.00  0.00    -0.570 OA
ATOM     22  H   LIG    1       -1.661  -3.359   6.215  0.00  0.00    +0.380 HD
ENDBRANCH  20  21
ENDBRANCH   3  20
TORSDOF 6
ENDMDL
MODEL      523
REMARK  Name = ZINC000005120905
REMARK                            x       y       z     vdW  Elec       q    Type
REMARK                         _______ _______ _______ _____ _____    ______ ____
ROOT
ATOM      1  C   LIG    1        1.277  -2.753   2.085  0.00  0.00    +0.300 C 
ATOM      2  C   LIG    1        0.297  -2.924   3.249  0.00  0.00    +0.140 C 
ATOM      3  C   LIG    1       -0.891  -3.771   2.786  0.00  0.00    +0.200 C 
ATOM      4  O   LIG    1       -0.417  -5.032   2.308  0.00  0.00    -0.390 OA
ATOM      5  C   LIG    1        0.466  -4.936   1.189  0.00  0.00    +0.280 C 
ATOM      6  C   LIG    1        1.711  -4.135   1.587  0.00  0.00    +0.180 C 
ENDROOT
BRANCH   1  11
ATOM      7  C   LIG    1       -0.018   1.461   0.010  0.00  0.00    +0.310 C 
ATOM      8  N   LIG    1        0.002  -0.004   0.002  0.00  0.00    -0.750 N 
ATOM      9  H   LIG    1       -0.418  -0.491  -0.724  0.00  0.00    +0.390 HD
ATOM     10  C   LIG    1        0.604  -0.675   1.004  0.00  0.00    +0.710 C 
ATOM     11  N   LIG    1        0.623  -2.023   0.996  0.00  0.00    -0.740 N 
ATOM     12  H   LIG    1        0.202  -2.510   0.270  0.00  0.00    +0.390 HD
ATOM     13  O   LIG    1        1.131  -0.065   1.914  0.00  0.00    -0.560 OA
ENDBRANCH   1  11
BRANCH   5  14
ATOM     14  O   LIG    1        0.856  -6.248   0.777  0.00  0.00    -0.370 OA
ATOM     15  C   LIG    1       -0.195  -7.004   0.173  0.00  0.00    +0.220 C 
ENDBRANCH   5  14
BRANCH   2  16
ATOM     16  O   LIG    1       -0.167  -1.641   3.675  0.00  0.00    -0.540 OA
ATOM     17  H   LIG    1       -0.793  -1.673   4.412  0.00  0.00    +0.380 HD
ENDBRANCH   2  16
BRANCH   6  18
ATOM     18  O   LIG    1        2.408  -4.822   2.628  0.00  0.00    -0.540 OA
ATOM     19  H   LIG    1        2.706  -5.708   2.383  0.00  0.00    +0.390 HD
ENDBRANCH   6  18
TORSDOF 4
ENDMDL
MODEL      524
REMARK  Name = ZINC000004021314
REMARK                            x       y       z     vdW  Elec       q    Type
REMARK                         _______ _______ _______ _____ _____    ______ ____
ROOT
ATOM      1  C   LIG    1        1.277  -2.753   2.085  0.00  0.00    +0.400 C 
ATOM      2  O   LIG    1        0.291  -3.212   3.011  0.00  0.00    -0.370 OA
ATOM      3  C   LIG    1        0.827  -3.919   4.132  0.00  0.00    +0.200 C 
ATOM      4  C   LIG    1        1.568  -5.166   3.640  0.00  0.00    +0.180 C 
ATOM      5  C   LIG    1        2.667  -4.744   2.661  0.00  0.00    +0.170 C 
ATOM      6  C   LIG    1        2.036  -3.952   1.511  0.00  0.00    +0.120 C 
ENDROOT
BRANCH   1  11
ATOM      7  C   LIG    1       -0.018   1.461   0.010  0.00  0.00    +0.300 C 
ATOM      8  N   LIG    1        0.002  -0.004   0.002  0.00  0.00    -0.750 N 
ATOM      9  H   LIG    1       -0.418  -0.491  -0.724  0.00  0.00    +0.400 HD
ATOM     10  C   LIG    1        0.604  -0.675   1.004  0.00  0.00    +0.710 C 
ATOM     11  N   LIG    1        0.623  -2.023   0.996  0.00  0.00    -0.730 N 
ATOM     12  H   LIG    1        0.202  -2.510   0.270  0.00  0.00    +0.400 HD
ATOM     13  O   LIG    1        1.131  -0.065   1.914  0.00  0.00    -0.580 OA
ENDBRANCH   1  11
BRANCH   5  14
ATOM     14  O   LIG    1        3.317  -5.907   2.143  0.00  0.00    -0.560 OA
ATOM     15  H   LIG    1        4.026  -5.714   1.514  0.00  0.00    +0.390 HD
ENDBRANCH   5  14
BRANCH   4  16
ATOM     16  O   LIG    1        0.648  -6.038   2.982  0.00  0.00    -0.550 OA
ATOM     17  H   LIG    1        1.050  -6.851   2.644  0.00  0.00    +0.390 HD
ENDBRANCH   4  16
BRANCH   6  18
ATOM     18  O   LIG    1        3.061  -3.493   0.628  0.00  0.00    -0.560 OA
ATOM     19  H   LIG    1        2.732  -2.983  -0.125  0.00  0.00    +0.390 HD
ENDBRANCH   6  18
BRANCH   3  20
ATOM     20  C   LIG    1       -0.311  -4.336   5.064  0.00  0.00    +0.220 C 
BRANCH  20  21
ATOM     21  O   LIG    1       -0.929  -3.170   5.613  0.00  0.00    -0.570 OA
ATOM     22  H   LIG    1       -1.661  -3.359   6.215  0.00  0.00    +0.380 HD
ENDBRANCH  20  21
ENDBRANCH   3  20
TORSDOF 6
ENDMDL
MODEL      525
REMARK  Name = ZINC000005120902
REMARK                            x       y       z     vdW  Elec       q    Type
REMARK                         _______ _______ _______ _____ _____    ______ ____
ROOT
ATOM      1  C   LIG    1        1.237  -2.730  -2.134  0.00  0.00    +0.300 C 
ATOM      2  C   LIG    1        0.624  -4.129  -2.256  0.00  0.00    +0.170 C 
ATOM      3  C   LIG    1        0.918  -4.919  -0.978  0.00  0.00    +0.270 C 
ATOM      4  O   LIG    1        2.331  -4.979  -0.771  0.00  0.00    -0.380 OA
ATOM      5  C   LIG    1        2.951  -3.703  -0.603  0.00  0.00    +0.200 C 
ATOM      6  C   LIG    1        2.740  -2.862  -1.867  0.00  0.00    +0.140 C 
ENDROOT
BRANCH   1  11
ATOM      7  C   LIG    1       -0.018   1.461   0.010  0.00  0.00    +0.300 C 
ATOM      8  N   LIG    1        0.002  -0.004   0.002  0.00  0.00    -0.750 N 
ATOM      9  H   LIG    1       -0.404  -0.499   0.731  0.00  0.00    +0.400 HD
ATOM     10  C   LIG    1        0.585  -0.664  -1.018  0.00  0.00    +0.710 C 
ATOM     11  N   LIG    1        0.603  -2.012  -1.025  0.00  0.00    -0.740 N 
ATOM     12  H   LIG    1        0.197  -2.507  -0.297  0.00  0.00    +0.400 HD
ATOM     13  O   LIG    1        1.095  -0.045  -1.931  0.00  0.00    -0.580 OA
ENDBRANCH   1  11
BRANCH   3  14
ATOM     14  O   LIG    1        0.398  -6.244  -1.106  0.00  0.00    -0.370 OA
ATOM     15  C   LIG    1        0.416  -6.996   0.108  0.00  0.00    +0.210 C 
ENDBRANCH   3  14
BRANCH   2  16
ATOM     16  O   LIG    1        1.195  -4.804  -3.378  0.00  0.00    -0.520 OA
ATOM     17  H   LIG    1        0.853  -5.698  -3.515  0.00  0.00    +0.390 HD
ENDBRANCH   2  16
BRANCH   6  18
ATOM     18  O   LIG    1        3.369  -3.503  -2.978  0.00  0.00    -0.530 OA
ATOM     19  H   LIG    1        4.323  -3.625  -2.873  0.00  0.00    +0.380 HD
ENDBRANCH   6  18
TORSDOF 4
ENDMDL
MODEL      526
REMARK  Name = ZINC000052222067
REMARK                            x       y       z     vdW  Elec       q    Type
REMARK                         _______ _______ _______ _____ _____    ______ ____
ROOT
ATOM      1  C   LIG    1        2.296  -4.277  -1.669  0.00  0.00    +0.370 C 
ENDROOT
BRANCH   1   2
ATOM      2  N   LIG    1        2.257  -5.738  -1.776  0.00  0.00    -0.290 N 
ATOM      3  C   LIG    1        1.857  -6.443  -2.860  0.00  0.00    +0.180 A 
ATOM      4  C   LIG    1        1.981  -7.749  -2.527  0.00  0.00    -0.030 A 
ATOM      5  N   LIG    1        2.445  -7.779  -1.273  0.00  0.00    -0.260 NA
ATOM      6  N   LIG    1        2.603  -6.571  -0.859  0.00  0.00    -0.050 NA
BRANCH   4   7
ATOM      7  C   LIG    1        1.659  -8.936  -3.399  0.00  0.00    +0.310 C 
BRANCH   7   8
ATOM      8  O   LIG    1        1.190  -8.481  -4.669  0.00  0.00    -0.570 OA
ATOM      9  H   LIG    1        0.964  -9.193  -5.283  0.00  0.00    +0.390 HD
ENDBRANCH   7   8
ENDBRANCH   4   7
ENDBRANCH   1   2
BRANCH   1  12
ATOM     10  N   LIG    1        1.401  -2.532  -0.162  0.00  0.00    -0.720 N 
ATOM     11  H   LIG    1        1.835  -1.870  -0.723  0.00  0.00    +0.410 HD
ATOM     12  C   LIG    1        1.505  -3.841  -0.462  0.00  0.00    +0.500 C 
ATOM     13  O   LIG    1        0.963  -4.669   0.239  0.00  0.00    -0.510 OA
BRANCH  10  14
ATOM     14  C   LIG    1        0.633  -2.108   1.011  0.00  0.00    +0.290 C 
BRANCH  14  15
ATOM     15  C   LIG    1        0.673  -0.582   1.123  0.00  0.00    +0.180 C 
BRANCH  15  17
ATOM     16  C   LIG    1       -0.017   1.425   0.010  0.00  0.00    +0.200 C 
ATOM     17  O   LIG    1        0.002  -0.004   0.002  0.00  0.00    -0.390 OA
ENDBRANCH  15  17
ENDBRANCH  14  15
ENDBRANCH  10  14
ENDBRANCH   1  12
TORSDOF 7
ENDMDL
MODEL      527
REMARK  Name = ZINC000011804037
REMARK                            x       y       z     vdW  Elec       q    Type
REMARK                         _______ _______ _______ _____ _____    ______ ____
ROOT
ATOM      1  C   LIG    1        0.997  -1.850  -1.726  0.00  0.00    +0.190 A 
ATOM      2  C   LIG    1        0.219  -2.488  -2.627  0.00  0.00    -0.080 A 
ATOM      3  C   LIG    1        0.348  -3.889  -2.778  0.00  0.00    +0.550 A 
ATOM      4  N   LIG    1        1.244  -4.557  -2.023  0.00  0.00    -0.660 N 
ATOM      5  H   LIG    1        1.338  -5.517  -2.121  0.00  0.00    +0.440 HD
ATOM      6  C   LIG    1        2.007  -3.896  -1.133  0.00  0.00    +0.700 A 
ATOM      7  O   LIG    1        2.810  -4.511  -0.458  0.00  0.00    -0.530 OA
ATOM      8  O   LIG    1       -0.342  -4.486  -3.584  0.00  0.00    -0.500 OA
ATOM      9  N   LIG    1        1.897  -2.564  -0.982  0.00  0.00    -0.640 N 
ATOM     10  H   LIG    1        2.457  -2.106  -0.336  0.00  0.00    +0.440 HD
ENDROOT
BRANCH   1  11
ATOM     11  C   LIG    1        0.880  -0.358  -1.545  0.00  0.00    -0.270 C 
BRANCH  11  13
ATOM     12  C   LIG    1       -0.022   1.810   0.012  0.00  0.00    -0.250 C 
ATOM     13  S   LIG    1        0.002  -0.004   0.002  0.00  0.00    +2.420 S 
ATOM     14  O   LIG    1       -1.334  -0.474  -0.117  0.00  0.00    -0.920 OA
ATOM     15  O   LIG    1        0.801  -0.452   1.088  0.00  0.00    -0.920 OA
ENDBRANCH  11  13
ENDBRANCH   1  11
TORSDOF 2
ENDMDL
MODEL      528
REMARK  Name = ZINC000257335456
REMARK                            x       y       z     vdW  Elec       q    Type
REMARK                         _______ _______ _______ _____ _____    ______ ____
ROOT
ATOM      1  C   LIG    1        0.606  -2.171  -1.026  0.00  0.00    +0.130 C 
ATOM      2  C   LIG    1        1.729  -2.672  -0.112  0.00  0.00    +0.310 C 
ATOM      3  N   LIG    1        1.827  -4.133  -0.251  0.00  0.00    -0.610 N 
ATOM      4  C   LIG    1        1.928  -4.699  -1.605  0.00  0.00    +0.290 C 
ATOM      5  C   LIG    1        0.797  -4.118  -2.460  0.00  0.00    +0.180 C 
ATOM      6  C   LIG    1        1.825  -4.933   0.834  0.00  0.00    +0.520 C 
ATOM      7  O   LIG    1        1.740  -4.450   1.943  0.00  0.00    -0.540 OA
ATOM      8  N   LIG    1        0.841  -2.651  -2.395  0.00  0.00    -0.670 NA
ATOM      9  H   LIG    1        0.183  -2.240  -3.040  0.00  0.00    +0.360 HD
ENDROOT
BRANCH   1  13
ATOM     10  C   LIG    1       -0.018   1.461   0.010  0.00  0.00    +0.290 C 
ATOM     11  N   LIG    1        0.002  -0.004   0.002  0.00  0.00    -0.730 N 
ATOM     12  H   LIG    1       -0.404  -0.499   0.731  0.00  0.00    +0.400 HD
ATOM     13  C   LIG    1        0.585  -0.664  -1.018  0.00  0.00    +0.520 C 
ATOM     14  O   LIG    1        1.093  -0.046  -1.929  0.00  0.00    -0.510 OA
ENDBRANCH   1  13
BRANCH   6  15
ATOM     15  C   LIG    1        1.926  -6.428   0.669  0.00  0.00    +0.070 C 
BRANCH  15  16
ATOM     16  C   LIG    1        1.901  -7.096   2.045  0.00  0.00    +0.200 C 
BRANCH  16  17
ATOM     17  O   LIG    1        1.998  -8.513   1.889  0.00  0.00    -0.400 OA
ATOM     18  C   LIG    1        1.983  -9.236   3.121  0.00  0.00    +0.200 C 
ENDBRANCH  16  17
ENDBRANCH  15  16
ENDBRANCH   6  15
TORSDOF 4
ENDMDL
MODEL      529
REMARK  Name = ZINC000257270737
REMARK                            x       y       z     vdW  Elec       q    Type
REMARK                         _______ _______ _______ _____ _____    ______ ____
ROOT
ATOM      1  C   LIG    1       -1.135  -2.201   0.001  0.00  0.00    +0.120 C 
ATOM      2  C   LIG    1       -0.893  -2.701  -1.427  0.00  0.00    +0.310 C 
ATOM      3  N   LIG    1       -1.025  -4.166  -1.438  0.00  0.00    -0.610 N 
ATOM      4  C   LIG    1       -2.234  -4.759  -0.846  0.00  0.00    +0.300 C 
ATOM      5  C   LIG    1       -2.424  -4.178   0.559  0.00  0.00    +0.180 C 
ATOM      6  C   LIG    1       -0.065  -4.943  -1.975  0.00  0.00    +0.520 C 
ATOM      7  O   LIG    1        0.926  -4.437  -2.458  0.00  0.00    -0.540 OA
ATOM      8  N   LIG    1       -2.426  -2.711   0.483  0.00  0.00    -0.520 NA
ATOM      9  C   LIG    1       -2.776  -2.117   1.780  0.00  0.00    +0.190 C 
ENDROOT
BRANCH   1  13
ATOM     10  C   LIG    1       -0.018   1.461   0.010  0.00  0.00    +0.290 C 
ATOM     11  N   LIG    1        0.002  -0.004   0.002  0.00  0.00    -0.730 N 
ATOM     12  H   LIG    1        0.849  -0.478  -0.009  0.00  0.00    +0.400 HD
ATOM     13  C   LIG    1       -1.156  -0.694   0.009  0.00  0.00    +0.520 C 
ATOM     14  O   LIG    1       -2.214  -0.102   0.023  0.00  0.00    -0.510 OA
ENDBRANCH   1  13
BRANCH   6  15
ATOM     15  C   LIG    1       -0.221  -6.442  -1.975  0.00  0.00    +0.070 C 
BRANCH  15  16
ATOM     16  C   LIG    1        1.000  -7.082  -2.639  0.00  0.00    +0.200 C 
BRANCH  16  17
ATOM     17  O   LIG    1        0.852  -8.503  -2.640  0.00  0.00    -0.400 OA
ATOM     18  C   LIG    1        1.944  -9.202  -3.241  0.00  0.00    +0.200 C 
ENDBRANCH  16  17
ENDBRANCH  15  16
ENDBRANCH   6  15
TORSDOF 4
ENDMDL
MODEL      530
REMARK  Name = ZINC000257248946
REMARK                            x       y       z     vdW  Elec       q    Type
REMARK                         _______ _______ _______ _____ _____    ______ ____
ROOT
ATOM      1  C   LIG    1        0.625  -2.182   0.995  0.00  0.00    +0.120 C 
ATOM      2  C   LIG    1       -0.720  -2.715   1.501  0.00  0.00    +0.320 C 
ATOM      3  N   LIG    1       -0.627  -4.177   1.626  0.00  0.00    -0.620 N 
ATOM      4  C   LIG    1        0.505  -4.740   2.379  0.00  0.00    +0.290 C 
ATOM      5  C   LIG    1        1.802  -4.128   1.839  0.00  0.00    +0.180 C 
ATOM      6  C   LIG    1       -1.552  -4.980   1.065  0.00  0.00    +0.510 C 
ATOM      7  O   LIG    1       -2.479  -4.499   0.448  0.00  0.00    -0.520 OA
ATOM      8  N   LIG    1        1.700  -2.663   1.874  0.00  0.00    -0.520 NA
ATOM      9  C   LIG    1        2.983  -2.038   1.527  0.00  0.00    +0.190 C 
ENDROOT
BRANCH   1  13
ATOM     10  C   LIG    1       -0.018   1.461   0.010  0.00  0.00    +0.290 C 
ATOM     11  N   LIG    1        0.002  -0.004   0.002  0.00  0.00    -0.730 N 
ATOM     12  H   LIG    1       -0.418  -0.491  -0.724  0.00  0.00    +0.400 HD
ATOM     13  C   LIG    1        0.604  -0.675   1.004  0.00  0.00    +0.520 C 
ATOM     14  O   LIG    1        1.130  -0.067   1.911  0.00  0.00    -0.510 OA
ENDBRANCH   1  13
BRANCH   6  15
ATOM     15  C   LIG    1       -1.437  -6.476   1.206  0.00  0.00    +0.220 C 
BRANCH  15  16
ATOM     16  O   LIG    1       -2.529  -7.104   0.531  0.00  0.00    -0.550 OA
ATOM     17  H   LIG    1       -2.519  -8.069   0.580  0.00  0.00    +0.390 HD
ENDBRANCH  15  16
ENDBRANCH   6  15
TORSDOF 3
ENDMDL
MODEL      531
REMARK  Name = ZINC000084211876
REMARK                            x       y       z     vdW  Elec       q    Type
REMARK                         _______ _______ _______ _____ _____    ______ ____
ROOT
ATOM      1  C   LIG    1        0.626  -2.168  -1.018  0.00  0.00    +0.230 C 
ATOM      2  C   LIG    1        1.486  -2.693   0.136  0.00  0.00    +0.200 C 
ATOM      3  N   LIG    1        1.609  -4.153   0.027  0.00  0.00    -0.690 NA
ATOM      4  H   LIG    1        2.070  -4.538   0.837  0.00  0.00    +0.350 HD
ATOM      5  C   LIG    1        2.305  -4.537  -1.208  0.00  0.00    +0.170 C 
ATOM      6  C   LIG    1        1.479  -4.088  -2.418  0.00  0.00    +0.290 C 
ATOM      7  N   LIG    1        1.194  -2.651  -2.286  0.00  0.00    -0.610 N 
ATOM      8  C   LIG    1        1.454  -1.798  -3.298  0.00  0.00    +0.510 C 
ATOM      9  O   LIG    1        1.281  -0.608  -3.147  0.00  0.00    -0.500 OA
ENDROOT
BRANCH   1  13
ATOM     10  C   LIG    1       -0.542   1.477  -0.965  0.00  0.00    +0.280 C 
ATOM     11  N   LIG    1       -0.542   0.012  -0.978  0.00  0.00    -0.730 N 
ATOM     12  H   LIG    1       -1.381  -0.473  -0.967  0.00  0.00    +0.400 HD
ATOM     13  C   LIG    1        0.625  -0.661  -1.005  0.00  0.00    +0.530 C 
ATOM     14  O   LIG    1        1.675  -0.054  -1.018  0.00  0.00    -0.520 OA
ENDBRANCH   1  13
BRANCH   8  15
ATOM     15  C   LIG    1        1.959  -2.325  -4.616  0.00  0.00    +0.070 C 
BRANCH  15  16
ATOM     16  C   LIG    1        2.171  -1.160  -5.584  0.00  0.00    +0.200 C 
BRANCH  16  17
ATOM     17  O   LIG    1        2.650  -1.659  -6.834  0.00  0.00    -0.400 OA
ATOM     18  C   LIG    1        2.882  -0.646  -7.814  0.00  0.00    +0.200 C 
ENDBRANCH  16  17
ENDBRANCH  15  16
ENDBRANCH   8  15
TORSDOF 4
ENDMDL
MODEL      532
REMARK  Name = ZINC000084211874
REMARK                            x       y       z     vdW  Elec       q    Type
REMARK                         _______ _______ _______ _____ _____    ______ ____
ROOT
ATOM      1  C   LIG    1        0.626  -2.168  -1.018  0.00  0.00    +0.240 C 
ATOM      2  C   LIG    1        1.486  -2.693   0.136  0.00  0.00    +0.200 C 
ATOM      3  N   LIG    1        1.609  -4.153   0.027  0.00  0.00    -0.690 NA
ATOM      4  H   LIG    1        2.070  -4.538   0.837  0.00  0.00    +0.350 HD
ATOM      5  C   LIG    1        2.305  -4.537  -1.208  0.00  0.00    +0.170 C 
ATOM      6  C   LIG    1        1.479  -4.088  -2.418  0.00  0.00    +0.280 C 
ATOM      7  N   LIG    1        1.194  -2.651  -2.286  0.00  0.00    -0.610 N 
ATOM      8  C   LIG    1        1.454  -1.798  -3.298  0.00  0.00    +0.510 C 
ATOM      9  O   LIG    1        1.281  -0.608  -3.147  0.00  0.00    -0.480 OA
ENDROOT
BRANCH   1  13
ATOM     10  C   LIG    1       -0.542   1.477  -0.965  0.00  0.00    +0.280 C 
ATOM     11  N   LIG    1       -0.542   0.012  -0.978  0.00  0.00    -0.730 N 
ATOM     12  H   LIG    1       -1.381  -0.473  -0.967  0.00  0.00    +0.400 HD
ATOM     13  C   LIG    1        0.625  -0.661  -1.005  0.00  0.00    +0.530 C 
ATOM     14  O   LIG    1        1.675  -0.054  -1.018  0.00  0.00    -0.520 OA
ENDBRANCH   1  13
BRANCH   8  15
ATOM     15  C   LIG    1        1.959  -2.325  -4.616  0.00  0.00    +0.210 C 
BRANCH  15  16
ATOM     16  O   LIG    1        2.157  -1.236  -5.520  0.00  0.00    -0.370 OA
ATOM     17  C   LIG    1        2.638  -1.630  -6.807  0.00  0.00    +0.210 C 
ENDBRANCH  15  16
ENDBRANCH   8  15
TORSDOF 3
ENDMDL
MODEL      533
REMARK  Name = ZINC000001590253
REMARK                            x       y       z     vdW  Elec       q    Type
REMARK                         _______ _______ _______ _____ _____    ______ ____
ROOT
ATOM      1  C   UNK A  1        1.479  -2.361  -2.569  0.00  0.00    +0.300 C 
ATOM      2  N   UNK A  1        1.045  -3.736  -2.773  0.00  0.00    -0.700 N 
ATOM      3  H   UNK A  1        0.184  -3.894  -3.189  0.00  0.00    +0.420 HD
ATOM      4  C   ALA A  2        1.784  -4.790  -2.413  0.00  0.00    +0.530 C 
ATOM      5  CA  ALA A  2        3.129  -4.654  -1.764  0.00  0.00    +0.240 C 
ATOM      6  N   ALA A  2        3.699  -3.335  -2.003  0.00  0.00    -0.700 N 
ATOM      7  H   ALA A  2        4.655  -3.216  -1.891  0.00  0.00    +0.420 HD
ATOM      8  CB  ALA A  2        4.071  -5.716  -2.335  0.00  0.00    +0.090 C 
ATOM      9  O   ALA A  2        1.348  -5.903  -2.618  0.00  0.00    -0.510 OA
ATOM     10  C   UNK A  1        2.962  -2.283  -2.368  0.00  0.00    +0.530 C 
ATOM     11  O   UNK A  1        3.516  -1.218  -2.545  0.00  0.00    -0.500 OA
ENDROOT
BRANCH   1  12
ATOM     12  C   UNK A  1        0.786  -1.801  -1.353  0.00  0.00    +0.450 C 
ATOM     13  O   UNK A  1        0.325  -2.548  -0.523  0.00  0.00    -0.480 OA
BRANCH  12  14
ATOM     14  O   UNK A  1        0.682  -0.472  -1.193  0.00  0.00    -0.340 OA
BRANCH  14  16
ATOM     15  C   UNK A  1       -0.019   1.526   0.010  0.00  0.00    +0.070 C 
ATOM     16  C   UNK A  1        0.002  -0.004   0.002  0.00  0.00    +0.200 C 
ENDBRANCH  14  16
ENDBRANCH  12  14
ENDBRANCH   1  12
TORSDOF 3
ENDMDL
MODEL      534
REMARK  Name = ZINC000043772682
REMARK                            x       y       z     vdW  Elec       q    Type
REMARK                         _______ _______ _______ _____ _____    ______ ____
ROOT
ATOM      1  O   LIG    1        0.002  -0.004   0.002  0.00  0.00    -0.460 OA
ATOM      2  C   LIG    1       -0.014   1.209   0.009  0.00  0.00    +0.510 C 
ATOM      3  N   LIG    1       -1.122   1.980   0.029  0.00  0.00    -0.710 N 
ATOM      4  H   LIG    1       -2.039   1.666   0.001  0.00  0.00    +0.440 HD
ATOM      5  C   LIG    1       -0.688   3.375   0.102  0.00  0.00    +0.480 C 
ATOM      6  C   LIG    1       -1.292   4.201  -1.037  0.00  0.00    +0.130 C 
ATOM      7  C   LIG    1       -0.596   5.565  -1.081  0.00  0.00    +0.120 C 
ATOM      8  C   LIG    1        0.889   5.394  -1.401  0.00  0.00    +0.190 C 
ATOM      9  C   LIG    1        1.568   4.587  -0.283  0.00  0.00    +0.310 C 
ATOM     10  N   LIG    1        0.777   3.370  -0.059  0.00  0.00    -0.600 N 
ATOM     11  C   LIG    1        1.189   2.097   0.002  0.00  0.00    +0.510 C 
ATOM     12  O   LIG    1        2.344   1.726   0.024  0.00  0.00    -0.450 OA
ENDROOT
BRANCH   8  13
ATOM     13  O   LIG    1        1.506   6.680  -1.500  0.00  0.00    -0.550 OA
ATOM     14  H   LIG    1        1.129   7.244  -2.188  0.00  0.00    +0.400 HD
ENDBRANCH   8  13
BRANCH   7  15
ATOM     15  O   LIG    1       -1.204   6.373  -2.091  0.00  0.00    -0.550 OA
ATOM     16  H   LIG    1       -2.146   6.536  -1.950  0.00  0.00    +0.390 HD
ENDBRANCH   7  15
BRANCH   6  17
ATOM     17  O   LIG    1       -2.691   4.381  -0.809  0.00  0.00    -0.550 OA
ATOM     18  H   LIG    1       -3.138   4.896  -1.494  0.00  0.00    +0.390 HD
ENDBRANCH   6  17
BRANCH   9  19
ATOM     19  C   LIG    1        1.605   5.413   1.004  0.00  0.00    +0.200 C 
BRANCH  19  20
ATOM     20  O   LIG    1        2.339   4.703   2.004  0.00  0.00    -0.560 OA
ATOM     21  H   LIG    1        2.403   5.168   2.849  0.00  0.00    +0.390 HD
ENDBRANCH  19  20
ENDBRANCH   9  19
TORSDOF 5
ENDMDL
MODEL      535
REMARK  Name = ZINC000001855302
REMARK                            x       y       z     vdW  Elec       q    Type
REMARK                         _______ _______ _______ _____ _____    ______ ____
ROOT
ATOM      1  C   LIG    1       -0.019   1.526   0.010  0.00  0.00    +0.030 C 
ATOM      2  C   LIG    1        0.002  -0.004   0.002  0.00  0.00    +0.350 C 
ATOM      3  N   LIG    1        0.642  -0.467  -1.237  0.00  0.00    -0.540 NA
ATOM      4  C   LIG    1        1.929  -0.646  -1.242  0.00  0.00    +0.390 A 
ATOM      5  C   LIG    1        2.734  -0.579   0.011  0.00  0.00    -0.070 A 
ATOM      6  N   LIG    1        4.017  -0.700  -0.363  0.00  0.00    -0.490 NA
ATOM      7  C   LIG    1        4.083  -0.920  -1.647  0.00  0.00    +0.530 A 
ATOM      8  C   LIG    1        2.110  -0.454   1.239  0.00  0.00    +0.210 C 
ATOM      9  N   LIG    1        2.838  -0.945  -2.220  0.00  0.00    -0.380 N 
ATOM     10  C   LIG    1       -1.437  -0.522   0.041  0.00  0.00    +0.080 C 
ATOM     11  N   LIG    1        0.711  -0.477   1.190  0.00  0.00    -0.710 N 
ATOM     12  H   LIG    1        0.208  -0.810   1.950  0.00  0.00    +0.410 HD
ENDROOT
BRANCH   8  13
ATOM     13  C   LIG    1        2.858  -0.310   2.498  0.00  0.00    +0.570 C 
ATOM     14  O   LIG    1        2.260  -0.204   3.552  0.00  0.00    -0.530 OA
ATOM     15  N   LIG    1        4.206  -0.295   2.483  0.00  0.00    -0.830 N 
ATOM     16  H   LIG    1        4.699  -0.199   3.313  0.00  0.00    +0.410 HD
ATOM     17  H   LIG    1        4.683  -0.379   1.643  0.00  0.00    +0.420 HD
ENDBRANCH   8  13
BRANCH   9  18
ATOM     18  N   LIG    1        2.557  -1.220  -3.528  0.00  0.00    -0.580 N 
ATOM     19  H   LIG    1        1.906  -1.986  -3.605  0.00  0.00    +0.360 HD
ATOM     20  H   LIG    1        3.401  -1.409  -4.047  0.00  0.00    +0.370 HD
ENDBRANCH   9  18
TORSDOF 2
ENDMDL
MODEL      536
REMARK  Name = ZINC000062711130
REMARK                            x       y       z     vdW  Elec       q    Type
REMARK                         _______ _______ _______ _____ _____    ______ ____
ROOT
ATOM      1  N   LIG    1        2.456  -0.405  -0.019  0.00  0.00    -0.080 NA
ATOM      2  C   LIG    1        3.407  -1.299   0.075  0.00  0.00    +0.050 A 
ATOM      3  C   LIG    1        3.240  -2.770   0.083  0.00  0.00    +0.410 A 
ATOM      4  C   LIG    1        4.587  -3.374   0.206  0.00  0.00    -0.140 A 
ATOM      5  C   LIG    1        4.997  -4.703   0.261  0.00  0.00    +0.100 A 
ATOM      6  C   LIG    1        6.343  -5.008   0.380  0.00  0.00    +0.060 A 
ATOM      7  C   LIG    1        7.285  -3.999   0.444  0.00  0.00    +0.060 A 
ATOM      8  C   LIG    1        6.895  -2.672   0.390  0.00  0.00    +0.100 A 
ATOM      9  C   LIG    1        5.546  -2.347   0.271  0.00  0.00    -0.130 A 
ATOM     10  O   LIG    1        2.188  -3.373   0.004  0.00  0.00    -0.380 OA
ATOM     11  C   LIG    1        4.859  -1.037   0.187  0.00  0.00    +0.460 A 
ATOM     12  O   LIG    1        5.391   0.055   0.208  0.00  0.00    -0.360 OA
ENDROOT
BRANCH   1  17
ATOM     13  C   LIG    1        0.303  -1.029  -1.095  0.00  0.00    +0.520 A 
ATOM     14  N   LIG    1       -0.871  -1.389  -0.623  0.00  0.00    -0.350 NA
ATOM     15  N   LIG    1       -0.857  -1.403   0.660  0.00  0.00    +0.000 NA
ATOM     16  N   LIG    1        0.302  -1.061   1.108  0.00  0.00    -0.070 NA
ATOM     17  N   LIG    1        1.114  -0.807  -0.012  0.00  0.00    -0.320 N 
BRANCH  13  18
ATOM     18  N   LIG    1        0.652  -0.905  -2.423  0.00  0.00    -0.800 N 
ATOM     19  H   LIG    1       -0.001  -1.091  -3.115  0.00  0.00    +0.440 HD
ATOM     20  H   LIG    1        1.552  -0.636  -2.664  0.00  0.00    +0.420 HD
ENDBRANCH  13  18
ENDBRANCH   1  17
TORSDOF 2
ENDMDL
MODEL      537
REMARK  Name = ZINC000001695849
REMARK                            x       y       z     vdW  Elec       q    Type
REMARK                         _______ _______ _______ _____ _____    ______ ____
ROOT
ATOM      1  C   LIG    1       -1.268  -0.761   0.010  0.00  0.00    -0.140 A 
ATOM      2  C   LIG    1       -2.496  -0.089   0.019  0.00  0.00    +0.190 A 
ATOM      3  C   LIG    1       -3.656  -0.844   0.026  0.00  0.00    +0.070 A 
ATOM      4  C   LIG    1       -3.566  -2.224   0.024  0.00  0.00    +0.350 A 
ATOM      5  N   LIG    1       -2.394  -2.830   0.015  0.00  0.00    -0.320 N 
ATOM      6  C   LIG    1       -1.263  -2.156   0.003  0.00  0.00    +0.400 A 
ENDROOT
BRANCH   1  10
ATOM      7  N   LIG    1       -0.016   1.344   0.009  0.00  0.00    -0.840 N 
ATOM      8  H   LIG    1       -0.863   1.817   0.016  0.00  0.00    +0.400 HD
ATOM      9  H   LIG    1        0.817   1.840   0.004  0.00  0.00    +0.420 HD
ATOM     10  C   LIG    1        0.002  -0.004   0.002  0.00  0.00    +0.570 C 
ATOM     11  O   LIG    1        1.063  -0.597  -0.011  0.00  0.00    -0.510 OA
ENDBRANCH   1  10
BRANCH   5  12
ATOM     12  C   LIG    1       -2.350  -4.294   0.013  0.00  0.00    +0.360 C 
BRANCH  12  13
ATOM     13  C   LIG    1       -2.344  -4.802  -1.430  0.00  0.00    -0.470 C 
BRANCH  13  14
ATOM     14  S   LIG    1       -2.289  -6.616  -1.433  0.00  0.00    +2.630 S 
ATOM     15  O   LIG    1       -3.463  -7.121  -0.737  0.00  0.00    -1.040 OA
ATOM     16  O   LIG    1       -1.079  -7.049  -0.753  0.00  0.00    -1.040 OA
ATOM     17  O   LIG    1       -2.284  -7.083  -2.810  0.00  0.00    -1.040 OA
ENDBRANCH  13  14
ENDBRANCH  12  13
ENDBRANCH   5  12
TORSDOF 4
ENDMDL
MODEL      538
REMARK  Name = ZINC000108242180
REMARK                            x       y       z     vdW  Elec       q    Type
REMARK                         _______ _______ _______ _____ _____    ______ ____
ROOT
ATOM      1  C   LIG    1       -0.019   1.528   0.045  0.00  0.00    +0.030 C 
ATOM      2  C   LIG    1       -0.002  -0.001   0.071  0.00  0.00    +0.240 C 
ATOM      3  O   LIG    1        0.719  -0.517  -1.069  0.00  0.00    -0.360 OA
ATOM      4  C   LIG    1        2.110  -0.383  -0.710  0.00  0.00    +0.150 C 
ATOM      5  C   LIG    1        2.123  -0.356   0.832  0.00  0.00    +0.120 C 
ATOM      6  C   LIG    1       -1.431  -0.549   0.094  0.00  0.00    +0.090 C 
ATOM      7  O   LIG    1        0.737  -0.477   1.217  0.00  0.00    -0.340 OA
ENDROOT
BRANCH   5   8
ATOM      8  C   LIG    1        2.934  -1.533   1.377  0.00  0.00    +0.200 C 
BRANCH   8   9
ATOM      9  O   LIG    1        4.307  -1.374   1.016  0.00  0.00    -0.540 OA
ATOM     10  H   LIG    1        4.712  -0.565   1.358  0.00  0.00    +0.380 HD
ENDBRANCH   8   9
BRANCH   8  11
ATOM     11  C   LIG    1        2.809  -1.575   2.902  0.00  0.00    +0.200 C 
BRANCH  11  12
ATOM     12  O   LIG    1        1.435  -1.735   3.263  0.00  0.00    -0.530 OA
ATOM     13  H   LIG    1        1.030  -2.543   2.921  0.00  0.00    +0.370 HD
ENDBRANCH  11  12
BRANCH  11  14
ATOM     14  C   LIG    1        3.620  -2.752   3.447  0.00  0.00    +0.160 C 
BRANCH  14  15
ATOM     15  O   LIG    1        3.599  -2.723   4.876  0.00  0.00    -0.560 OA
ATOM     16  H   LIG    1        4.095  -3.442   5.291  0.00  0.00    +0.380 HD
ENDBRANCH  14  15
ENDBRANCH  11  14
ENDBRANCH   8  11
ENDBRANCH   5   8
BRANCH   4  17
ATOM     17  C   LIG    1        2.911  -1.578  -1.230  0.00  0.00    +0.210 C 
BRANCH  17  18
ATOM     18  O   LIG    1        2.865  -1.597  -2.658  0.00  0.00    -0.570 OA
ATOM     19  H   LIG    1        3.353  -2.331  -3.058  0.00  0.00    +0.380 HD
ENDBRANCH  17  18
ENDBRANCH   4  17
TORSDOF 8
ENDMDL
MODEL      539
REMARK  Name = ZINC000096532911
REMARK                            x       y       z     vdW  Elec       q    Type
REMARK                         _______ _______ _______ _____ _____    ______ ____
ROOT
ATOM      1  O   LIG    1        0.002  -0.004   0.002  0.00  0.00    -0.930 OA
ATOM      2  S   LIG    1       -0.017   1.418   0.010  0.00  0.00    +2.380 S 
ATOM      3  C   LIG    1       -0.468   2.013   1.676  0.00  0.00    -0.300 C 
ATOM      4  C   LIG    1        0.829   2.477   2.334  0.00  0.00    +0.040 C 
ATOM      5  C   LIG    1        1.117   3.981   2.243  0.00  0.00    +0.000 C 
ATOM      6  C   LIG    1        2.572   3.607   1.909  0.00  0.00    +0.020 C 
ATOM      7  C   LIG    1        2.062   2.239   1.464  0.00  0.00    +0.020 C 
ATOM      8  O   LIG    1       -0.778   2.115  -0.968  0.00  0.00    -0.930 OA
ATOM      9  C   LIG    1        1.701   2.044  -0.003  0.00  0.00    -0.290 C 
ENDROOT
BRANCH   6  10
ATOM     10  C   LIG    1        3.205   4.470   0.822  0.00  0.00    +0.190 C 
BRANCH  10  11
ATOM     11  O   LIG    1        3.728   5.664   1.406  0.00  0.00    -0.560 OA
ATOM     12  H   LIG    1        4.147   6.262   0.771  0.00  0.00    +0.380 HD
ENDBRANCH  10  11
ENDBRANCH   6  10
BRANCH   5  13
ATOM     13  C   LIG    1        0.406   4.735   1.124  0.00  0.00    +0.180 C 
BRANCH  13  14
ATOM     14  O   LIG    1        0.682   6.133   1.241  0.00  0.00    -0.560 OA
ATOM     15  H   LIG    1        0.260   6.675   0.560  0.00  0.00    +0.380 HD
ENDBRANCH  13  14
ENDBRANCH   5  13
TORSDOF 4
ENDMDL
MODEL      540
REMARK  Name = ZINC000016051536
REMARK                            x       y       z     vdW  Elec       q    Type
REMARK                         _______ _______ _______ _____ _____    ______ ____
ROOT
ATOM      1  C   LIG    1        1.531  -3.938   2.480  0.00  0.00    +0.320 C 
ATOM      2  O   LIG    1        2.414  -4.432   1.471  0.00  0.00    -0.360 OA
ATOM      3  C   LIG    1        3.742  -3.912   1.553  0.00  0.00    +0.180 C 
ATOM      4  C   LIG    1        4.362  -4.308   2.896  0.00  0.00    +0.170 C 
ATOM      5  C   LIG    1        3.479  -3.782   4.032  0.00  0.00    +0.180 C 
ATOM      6  C   LIG    1        2.061  -4.335   3.860  0.00  0.00    +0.140 C 
ENDROOT
BRANCH   5   7
ATOM      7  O   LIG    1        4.012  -4.208   5.287  0.00  0.00    -0.550 OA
ATOM      8  H   LIG    1        3.502  -3.910   6.053  0.00  0.00    +0.380 HD
ENDBRANCH   5   7
BRANCH   4   9
ATOM      9  O   LIG    1        5.670  -3.742   3.004  0.00  0.00    -0.560 OA
ATOM     10  H   LIG    1        6.122  -3.953   3.832  0.00  0.00    +0.390 HD
ENDBRANCH   4   9
BRANCH   6  11
ATOM     11  O   LIG    1        2.088  -5.760   3.971  0.00  0.00    -0.540 OA
ATOM     12  H   LIG    1        1.222  -6.178   3.872  0.00  0.00    +0.380 HD
ENDBRANCH   6  11
BRANCH   1  13
ATOM     13  O   LIG    1        1.454  -2.514   2.391  0.00  0.00    -0.400 OA
BRANCH  13  14
ATOM     14  C   LIG    1        0.763  -2.041   1.233  0.00  0.00    +0.170 C 
BRANCH  14  15
ATOM     15  C   LIG    1        0.742  -0.511   1.242  0.00  0.00    +0.020 C 
BRANCH  15  17
ATOM     16  C   LIG    1       -0.019   1.526   0.010  0.00  0.00    +0.020 C 
ATOM     17  C   LIG    1        0.002  -0.004   0.002  0.00  0.00    +0.010 C 
ENDBRANCH  15  17
ENDBRANCH  14  15
ENDBRANCH  13  14
ENDBRANCH   1  13
BRANCH   3  18
ATOM     18  C   LIG    1        4.586  -4.485   0.412  0.00  0.00    +0.210 C 
BRANCH  18  19
ATOM     19  O   LIG    1        4.074  -4.020  -0.838  0.00  0.00    -0.570 OA
ATOM     20  H   LIG    1        4.562  -4.345  -1.608  0.00  0.00    +0.380 HD
ENDBRANCH  18  19
ENDBRANCH   3  18
TORSDOF 9
ENDMDL
MODEL      541
REMARK  Name = ZINC000257241763
REMARK                            x       y       z     vdW  Elec       q    Type
REMARK                         _______ _______ _______ _____ _____    ______ ____
ROOT
ATOM      1  N   LIG    1       -1.393  -2.326  -0.673  0.00  0.00    -0.530 NA
ATOM      2  C   LIG    1       -2.809  -1.993  -0.465  0.00  0.00    +0.170 C 
ATOM      3  C   LIG    1       -3.681  -2.942  -1.294  0.00  0.00    +0.290 C 
ATOM      4  N   LIG    1       -3.312  -4.326  -0.959  0.00  0.00    -0.610 N 
ATOM      5  C   LIG    1       -1.890  -4.700  -1.012  0.00  0.00    +0.220 C 
ATOM      6  C   LIG    1       -4.252  -5.229  -0.615  0.00  0.00    +0.500 C 
ATOM      7  O   LIG    1       -3.923  -6.340  -0.257  0.00  0.00    -0.500 OA
ATOM      8  C   LIG    1       -5.711  -4.857  -0.674  0.00  0.00    +0.090 C 
ATOM      9  C   LIG    1       -1.089  -3.681  -0.195  0.00  0.00    +0.220 C 
ENDROOT
BRANCH   5  10
ATOM     10  C   LIG    1       -1.707  -6.078  -0.430  0.00  0.00    +0.520 C 
ATOM     11  O   LIG    1       -2.176  -6.345   0.656  0.00  0.00    -0.500 OA
ATOM     12  N   LIG    1       -1.022  -7.014  -1.117  0.00  0.00    -0.860 N 
ATOM     13  H   LIG    1       -0.904  -7.901  -0.743  0.00  0.00    +0.400 HD
ATOM     14  H   LIG    1       -0.647  -6.800  -1.986  0.00  0.00    +0.400 HD
ENDBRANCH   5  10
BRANCH   1  15
ATOM     15  C   LIG    1       -0.519  -1.333  -0.034  0.00  0.00    +0.250 C 
BRANCH  15  16
ATOM     16  C   LIG    1       -0.871  -1.226   1.451  0.00  0.00    +0.130 C 
BRANCH  16  18
ATOM     17  C   LIG    1       -0.811  -2.448   3.512  0.00  0.00    +0.200 C 
ATOM     18  O   LIG    1       -0.522  -2.443   2.113  0.00  0.00    -0.380 OA
ENDBRANCH  16  18
ENDBRANCH  15  16
ENDBRANCH   1  15
TORSDOF 4
ENDMDL
MODEL      542
REMARK  Name = ZINC000084211875
REMARK                            x       y       z     vdW  Elec       q    Type
REMARK                         _______ _______ _______ _____ _____    ______ ____
ROOT
ATOM      1  C   LIG    1        0.588  -2.169  -1.036  0.00  0.00    +0.180 C 
ATOM      2  C   LIG    1       -0.838  -2.718  -0.919  0.00  0.00    +0.250 C 
ATOM      3  N   LIG    1       -0.811  -4.178  -1.073  0.00  0.00    -0.680 NA
ATOM      4  H   LIG    1       -0.254  -4.608  -0.350  0.00  0.00    +0.350 HD
ATOM      5  C   LIG    1       -0.333  -4.565  -2.407  0.00  0.00    +0.220 C 
ATOM      6  C   LIG    1        1.114  -4.092  -2.584  0.00  0.00    +0.240 C 
ATOM      7  N   LIG    1        1.177  -2.651  -2.294  0.00  0.00    -0.610 N 
ATOM      8  C   LIG    1        1.753  -1.795  -3.161  0.00  0.00    +0.510 C 
ATOM      9  O   LIG    1        1.893  -0.629  -2.860  0.00  0.00    -0.480 OA
ENDROOT
BRANCH   1  13
ATOM     10  C   LIG    1        1.145   1.493  -0.068  0.00  0.00    +0.280 C 
ATOM     11  N   LIG    1        1.180   0.029  -0.066  0.00  0.00    -0.730 N 
ATOM     12  H   LIG    1        1.655  -0.444   0.635  0.00  0.00    +0.400 HD
ATOM     13  C   LIG    1        0.551  -0.662  -1.038  0.00  0.00    +0.530 C 
ATOM     14  O   LIG    1       -0.043  -0.071  -1.915  0.00  0.00    -0.520 OA
ENDBRANCH   1  13
BRANCH   8  15
ATOM     15  C   LIG    1        2.224  -2.288  -4.505  0.00  0.00    +0.210 C 
BRANCH  15  16
ATOM     16  O   LIG    1        2.795  -1.202  -5.238  0.00  0.00    -0.370 OA
ATOM     17  C   LIG    1        3.275  -1.563  -6.534  0.00  0.00    +0.210 C 
ENDBRANCH  15  16
ENDBRANCH   8  15
TORSDOF 3
ENDMDL
MODEL      543
REMARK  Name = ZINC000257270736
REMARK                            x       y       z     vdW  Elec       q    Type
REMARK                         _______ _______ _______ _____ _____    ______ ____
ROOT
ATOM      1  C   LIG    1       -1.135  -2.201   0.001  0.00  0.00    +0.120 C 
ATOM      2  C   LIG    1       -0.865  -2.716   1.419  0.00  0.00    +0.310 C 
ATOM      3  N   LIG    1       -0.998  -4.181   1.416  0.00  0.00    -0.610 N 
ATOM      4  C   LIG    1       -2.218  -4.768   0.841  0.00  0.00    +0.300 C 
ATOM      5  C   LIG    1       -2.434  -4.172  -0.553  0.00  0.00    +0.180 C 
ATOM      6  C   LIG    1       -0.028  -4.964   1.928  0.00  0.00    +0.520 C 
ATOM      7  O   LIG    1        0.972  -4.463   2.398  0.00  0.00    -0.540 OA
ATOM      8  N   LIG    1       -2.435  -2.706  -0.462  0.00  0.00    -0.520 NA
ATOM      9  C   LIG    1       -2.810  -2.098  -1.745  0.00  0.00    +0.200 C 
ENDROOT
BRANCH   1  13
ATOM     10  C   LIG    1       -0.018   1.461   0.010  0.00  0.00    +0.290 C 
ATOM     11  N   LIG    1        0.002  -0.004   0.002  0.00  0.00    -0.730 N 
ATOM     12  H   LIG    1        0.849  -0.478  -0.009  0.00  0.00    +0.400 HD
ATOM     13  C   LIG    1       -1.156  -0.694   0.009  0.00  0.00    +0.520 C 
ATOM     14  O   LIG    1       -2.214  -0.102   0.023  0.00  0.00    -0.510 OA
ENDBRANCH   1  13
BRANCH   6  15
ATOM     15  C   LIG    1       -0.184  -6.463   1.915  0.00  0.00    +0.070 C 
BRANCH  15  16
ATOM     16  C   LIG    1        1.049  -7.110   2.550  0.00  0.00    +0.200 C 
BRANCH  16  17
ATOM     17  O   LIG    1        0.900  -8.531   2.538  0.00  0.00    -0.400 OA
ATOM     18  C   LIG    1        2.003  -9.236   3.111  0.00  0.00    +0.200 C 
ENDBRANCH  16  17
ENDBRANCH  15  16
ENDBRANCH   6  15
TORSDOF 4
ENDMDL
MODEL      544
REMARK  Name = ZINC000257248945
REMARK                            x       y       z     vdW  Elec       q    Type
REMARK                         _______ _______ _______ _____ _____    ______ ____
ROOT
ATOM      1  C   LIG    1        0.625  -2.182   0.995  0.00  0.00    +0.120 C 
ATOM      2  C   LIG    1        1.730  -2.673   0.054  0.00  0.00    +0.320 C 
ATOM      3  N   LIG    1        1.831  -4.136   0.176  0.00  0.00    -0.620 N 
ATOM      4  C   LIG    1        1.958  -4.715   1.521  0.00  0.00    +0.290 C 
ATOM      5  C   LIG    1        0.843  -4.144   2.404  0.00  0.00    +0.180 C 
ATOM      6  C   LIG    1        1.809  -4.924  -0.918  0.00  0.00    +0.510 C 
ATOM      7  O   LIG    1        1.704  -4.428  -2.020  0.00  0.00    -0.520 OA
ATOM      8  N   LIG    1        0.886  -2.676   2.354  0.00  0.00    -0.520 NA
ATOM      9  C   LIG    1       -0.053  -2.089   3.318  0.00  0.00    +0.200 C 
ENDROOT
BRANCH   1  13
ATOM     10  C   LIG    1       -0.018   1.461   0.010  0.00  0.00    +0.290 C 
ATOM     11  N   LIG    1        0.002  -0.004   0.002  0.00  0.00    -0.730 N 
ATOM     12  H   LIG    1       -0.418  -0.491  -0.724  0.00  0.00    +0.400 HD
ATOM     13  C   LIG    1        0.604  -0.675   1.004  0.00  0.00    +0.520 C 
ATOM     14  O   LIG    1        1.130  -0.067   1.911  0.00  0.00    -0.510 OA
ENDBRANCH   1  13
BRANCH   6  15
ATOM     15  C   LIG    1        1.913  -6.420  -0.770  0.00  0.00    +0.220 C 
BRANCH  15  16
ATOM     16  O   LIG    1        1.867  -7.030  -2.062  0.00  0.00    -0.550 OA
ATOM     17  H   LIG    1        1.929  -7.995  -2.044  0.00  0.00    +0.390 HD
ENDBRANCH  15  16
ENDBRANCH   6  15
TORSDOF 3
ENDMDL
MODEL      545
REMARK  Name = ZINC000257335455
REMARK                            x       y       z     vdW  Elec       q    Type
REMARK                         _______ _______ _______ _____ _____    ______ ____
ROOT
ATOM      1  C   LIG    1        0.606  -2.171  -1.026  0.00  0.00    +0.170 C 
ATOM      2  C   LIG    1       -0.749  -2.698  -1.512  0.00  0.00    +0.270 C 
ATOM      3  N   LIG    1       -0.658  -4.160  -1.654  0.00  0.00    -0.610 N 
ATOM      4  C   LIG    1        0.459  -4.714  -2.435  0.00  0.00    +0.240 C 
ATOM      5  C   LIG    1        1.766  -4.108  -1.913  0.00  0.00    +0.230 C 
ATOM      6  C   LIG    1       -1.573  -4.969  -1.086  0.00  0.00    +0.520 C 
ATOM      7  O   LIG    1       -2.488  -4.494  -0.446  0.00  0.00    -0.540 OA
ATOM      8  N   LIG    1        1.663  -2.642  -1.930  0.00  0.00    -0.670 NA
ATOM      9  H   LIG    1        1.516  -2.301  -2.868  0.00  0.00    +0.360 HD
ENDROOT
BRANCH   1  13
ATOM     10  C   LIG    1       -0.018   1.461   0.010  0.00  0.00    +0.290 C 
ATOM     11  N   LIG    1        0.002  -0.004   0.002  0.00  0.00    -0.730 N 
ATOM     12  H   LIG    1       -0.404  -0.499   0.731  0.00  0.00    +0.400 HD
ATOM     13  C   LIG    1        0.585  -0.664  -1.018  0.00  0.00    +0.520 C 
ATOM     14  O   LIG    1        1.093  -0.046  -1.929  0.00  0.00    -0.520 OA
ENDBRANCH   1  13
BRANCH   6  15
ATOM     15  C   LIG    1       -1.461  -6.463  -1.245  0.00  0.00    +0.070 C 
BRANCH  15  16
ATOM     16  C   LIG    1       -2.617  -7.143  -0.508  0.00  0.00    +0.200 C 
BRANCH  16  17
ATOM     17  O   LIG    1       -2.510  -8.560  -0.658  0.00  0.00    -0.400 OA
ATOM     18  C   LIG    1       -3.547  -9.294  -0.004  0.00  0.00    +0.200 C 
ENDBRANCH  16  17
ENDBRANCH  15  16
ENDBRANCH   6  15
TORSDOF 4
ENDMDL
MODEL      546
REMARK  Name = ZINC000077286427
REMARK                            x       y       z     vdW  Elec       q    Type
REMARK                         _______ _______ _______ _____ _____    ______ ____
ROOT
ATOM      1  C1* LIG    1        2.413   1.176  -0.021  0.00  0.00    +0.410 C 
ATOM      2  O4* LIG    1        2.418   0.205  -1.091  0.00  0.00    -0.340 OA
ATOM      3  C4* LIG    1        3.436  -0.753  -0.730  0.00  0.00    +0.140 C 
ATOM      4  C3* LIG    1        3.266  -0.956   0.792  0.00  0.00    +0.130 C 
ATOM      5  C2* LIG    1        2.579   0.344   1.270  0.00  0.00    +0.160 C 
ENDROOT
BRANCH   1  12
ATOM      6  O   LIG    1        0.002  -0.004   0.002  0.00  0.00    -0.490 OA
ATOM      7  C   LIG    1       -0.015   1.217   0.009  0.00  0.00    +0.540 A 
ATOM      8  C   LIG    1       -1.237   1.899   0.030  0.00  0.00    -0.150 A 
ATOM      9  C   LIG    1       -1.236   3.281   0.038  0.00  0.00    +0.220 A 
ATOM     10  C   LIG    1       -0.003   3.963   0.024  0.00  0.00    -0.140 A 
ATOM     11  C   LIG    1        1.151   3.263   0.004  0.00  0.00    +0.320 A 
ATOM     12  N   LIG    1        1.143   1.904   0.001  0.00  0.00    -0.500 N 
BRANCH   9  13
ATOM     13  O   LIG    1       -2.403   3.970   0.059  0.00  0.00    -0.470 OA
ATOM     14  H   LIG    1       -2.292   4.930   0.062  0.00  0.00    +0.400 HD
ENDBRANCH   9  13
ENDBRANCH   1  12
BRANCH   4  15
ATOM     15  O3* LIG    1        2.439  -2.091   1.056  0.00  0.00    -0.530 OA
ATOM     16  H3* LIG    1        2.798  -2.925   0.724  0.00  0.00    +0.380 HD
ENDBRANCH   4  15
BRANCH   5  17
ATOM     17  O2* LIG    1        1.305   0.054   1.848  0.00  0.00    -0.510 OA
ATOM     18  H2* LIG    1        1.347  -0.517   2.627  0.00  0.00    +0.380 HD
ENDBRANCH   5  17
BRANCH   3  19
ATOM     19  C5* LIG    1        3.213  -2.072  -1.474  0.00  0.00    +0.210 C 
BRANCH  19  20
ATOM     20  O5* LIG    1        3.418  -1.870  -2.873  0.00  0.00    -0.560 OA
ATOM     21  H5* LIG    1        3.294  -2.666  -3.408  0.00  0.00    +0.380 HD
ENDBRANCH  19  20
ENDBRANCH   3  19
TORSDOF 6
ENDMDL
MODEL      547
REMARK  Name = ZINC000084211877
REMARK                            x       y       z     vdW  Elec       q    Type
REMARK                         _______ _______ _______ _____ _____    ______ ____
ROOT
ATOM      1  C   LIG    1        0.588  -2.169  -1.036  0.00  0.00    +0.180 C 
ATOM      2  C   LIG    1       -0.838  -2.718  -0.919  0.00  0.00    +0.240 C 
ATOM      3  N   LIG    1       -0.811  -4.178  -1.073  0.00  0.00    -0.680 NA
ATOM      4  H   LIG    1       -0.254  -4.608  -0.350  0.00  0.00    +0.350 HD
ATOM      5  C   LIG    1       -0.333  -4.565  -2.407  0.00  0.00    +0.220 C 
ATOM      6  C   LIG    1        1.114  -4.092  -2.584  0.00  0.00    +0.250 C 
ATOM      7  N   LIG    1        1.177  -2.651  -2.294  0.00  0.00    -0.610 N 
ATOM      8  C   LIG    1        1.753  -1.795  -3.161  0.00  0.00    +0.520 C 
ATOM      9  O   LIG    1        1.893  -0.629  -2.860  0.00  0.00    -0.500 OA
ENDROOT
BRANCH   1  13
ATOM     10  C   LIG    1        1.145   1.493  -0.068  0.00  0.00    +0.280 C 
ATOM     11  N   LIG    1        1.180   0.029  -0.066  0.00  0.00    -0.730 N 
ATOM     12  H   LIG    1        1.655  -0.444   0.635  0.00  0.00    +0.400 HD
ATOM     13  C   LIG    1        0.551  -0.662  -1.038  0.00  0.00    +0.530 C 
ATOM     14  O   LIG    1       -0.043  -0.071  -1.915  0.00  0.00    -0.520 OA
ENDBRANCH   1  13
BRANCH   8  15
ATOM     15  C   LIG    1        2.224  -2.288  -4.505  0.00  0.00    +0.070 C 
BRANCH  15  16
ATOM     16  C   LIG    1        2.835  -1.125  -5.290  0.00  0.00    +0.200 C 
BRANCH  16  17
ATOM     17  O   LIG    1        3.281  -1.592  -6.564  0.00  0.00    -0.400 OA
ATOM     18  C   LIG    1        3.872  -0.579  -7.380  0.00  0.00    +0.200 C 
ENDBRANCH  16  17
ENDBRANCH  15  16
ENDBRANCH   8  15
TORSDOF 4
ENDMDL
MODEL      548
REMARK  Name = ZINC000257241762
REMARK                            x       y       z     vdW  Elec       q    Type
REMARK                         _______ _______ _______ _____ _____    ______ ____
ROOT
ATOM      1  N   LIG    1       -1.226  -2.624  -1.977  0.00  0.00    -0.530 NA
ATOM      2  C   LIG    1       -2.475  -2.221  -2.636  0.00  0.00    +0.160 C 
ATOM      3  C   LIG    1       -3.653  -2.471  -1.689  0.00  0.00    +0.290 C 
ATOM      4  N   LIG    1       -3.608  -3.873  -1.247  0.00  0.00    -0.610 N 
ATOM      5  C   LIG    1       -2.344  -4.390  -0.700  0.00  0.00    +0.230 C 
ATOM      6  C   LIG    1       -4.696  -4.663  -1.340  0.00  0.00    +0.500 C 
ATOM      7  O   LIG    1       -4.620  -5.836  -1.043  0.00  0.00    -0.510 OA
ATOM      8  C   LIG    1       -6.006  -4.088  -1.813  0.00  0.00    +0.100 C 
ATOM      9  C   LIG    1       -1.218  -4.064  -1.687  0.00  0.00    +0.200 C 
ENDROOT
BRANCH   5  10
ATOM     10  C   LIG    1       -2.445  -5.882  -0.515  0.00  0.00    +0.540 C 
ATOM     11  O   LIG    1       -2.589  -6.604  -1.479  0.00  0.00    -0.520 OA
ATOM     12  N   LIG    1       -2.376  -6.414   0.721  0.00  0.00    -0.850 N 
ATOM     13  H   LIG    1       -2.441  -7.375   0.840  0.00  0.00    +0.400 HD
ATOM     14  H   LIG    1       -2.261  -5.837   1.492  0.00  0.00    +0.400 HD
ENDBRANCH   5  10
BRANCH   1  15
ATOM     15  C   LIG    1       -0.058  -2.243  -2.782  0.00  0.00    +0.200 C 
BRANCH  15  16
ATOM     16  C   LIG    1        0.036  -0.717  -2.854  0.00  0.00    +0.160 C 
BRANCH  16  18
ATOM     17  C   LIG    1        0.396   1.231  -1.504  0.00  0.00    +0.200 C 
ATOM     18  O   LIG    1        0.289  -0.194  -1.548  0.00  0.00    -0.380 OA
ENDBRANCH  16  18
ENDBRANCH  15  16
ENDBRANCH   1  15
TORSDOF 4
ENDMDL
MODEL      549
REMARK  Name = ZINC000039293913
REMARK                            x       y       z     vdW  Elec       q    Type
REMARK                         _______ _______ _______ _____ _____    ______ ____
ROOT
ATOM      1  C   LIG    1       -1.027  -2.647  -1.423  0.00  0.00    +0.070 C 
ENDROOT
BRANCH   1   2
ATOM      2  C   LIG    1       -1.244  -2.135   0.003  0.00  0.00    +0.220 C 
BRANCH   2   3
ATOM      3  N   LIG    1       -2.559  -2.577   0.486  0.00  0.00    -0.810 NA
ATOM      4  H   LIG    1       -3.298  -2.221  -0.101  0.00  0.00    +0.360 HD
ATOM      5  H   LIG    1       -2.700  -2.307   1.448  0.00  0.00    +0.350 HD
ENDBRANCH   2   3
BRANCH   2   6
ATOM      6  C   LIG    1       -1.185  -0.630   0.010  0.00  0.00    +0.430 C 
ATOM      7  O   LIG    1       -2.208   0.015   0.023  0.00  0.00    -0.510 OA
BRANCH   6   9
ATOM      8  C   LIG    1       -0.018   1.448   0.010  0.00  0.00    +0.250 C 
ATOM      9  O   LIG    1        0.002  -0.004   0.002  0.00  0.00    -0.360 OA
ENDBRANCH   6   9
ENDBRANCH   2   6
ENDBRANCH   1   2
BRANCH   1  10
ATOM     10  C   LIG    1       -0.962  -4.176  -1.412  0.00  0.00    +0.070 C 
BRANCH  10  11
ATOM     11  C   LIG    1       -0.745  -4.688  -2.837  0.00  0.00    +0.220 C 
BRANCH  11  12
ATOM     12  N   LIG    1       -1.915  -4.354  -3.660  0.00  0.00    -0.810 NA
ATOM     13  H   LIG    1       -2.752  -4.778  -3.288  0.00  0.00    +0.360 HD
ATOM     14  H   LIG    1       -1.770  -4.624  -4.622  0.00  0.00    +0.350 HD
ENDBRANCH  11  12
BRANCH  11  15
ATOM     15  C   LIG    1       -0.558  -6.183  -2.811  0.00  0.00    +0.430 C 
ATOM     16  O   LIG    1       -1.481  -6.912  -3.090  0.00  0.00    -0.510 OA
BRANCH  15  17
ATOM     17  O   LIG    1        0.633  -6.705  -2.479  0.00  0.00    -0.360 OA
ATOM     18  C   LIG    1        0.740  -8.153  -2.475  0.00  0.00    +0.250 C 
ENDBRANCH  15  17
ENDBRANCH  11  15
ENDBRANCH  10  11
ENDBRANCH   1  10
TORSDOF 9
ENDMDL
MODEL      550
REMARK  Name = ZINC000005545213
REMARK                            x       y       z     vdW  Elec       q    Type
REMARK                         _______ _______ _______ _____ _____    ______ ____
ROOT
ATOM      1  C   LIG    1       -2.881   1.202  -0.220  0.00  0.00    +0.450 C 
ATOM      2  O   LIG    1       -4.181   1.362  -0.790  0.00  0.00    -0.370 OA
ATOM      3  C   LIG    1       -4.613   2.721  -0.884  0.00  0.00    +0.230 C 
ATOM      4  C   LIG    1       -4.682   3.331   0.518  0.00  0.00    +0.110 C 
ATOM      5  C   LIG    1       -3.306   3.222   1.182  0.00  0.00    +0.160 C 
ATOM      6  C   LIG    1       -2.880   1.751   1.209  0.00  0.00    +0.170 C 
ENDROOT
BRANCH   1  11
ATOM      7  C   LIG    1       -1.254  -0.752  -0.204  0.00  0.00    -0.100 A 
ATOM      8  C   LIG    1       -1.404  -2.110  -0.174  0.00  0.00    +0.230 A 
ATOM      9  N   LIG    1       -2.710  -2.375  -0.156  0.00  0.00    -0.500 NA
ATOM     10  C   LIG    1       -3.388  -1.256  -0.172  0.00  0.00    +0.470 A 
ATOM     11  N   LIG    1       -2.529  -0.221  -0.196  0.00  0.00    -0.420 N 
BRANCH   7  15
ATOM     12  N   LIG    1        1.180  -0.667  -0.332  0.00  0.00    -0.840 N 
ATOM     13  H   LIG    1        1.193  -1.636  -0.310  0.00  0.00    +0.410 HD
ATOM     14  H   LIG    1        2.010  -0.173  -0.423  0.00  0.00    +0.410 HD
ATOM     15  C   LIG    1        0.010  -0.006  -0.231  0.00  0.00    +0.600 C 
ATOM     16  O   LIG    1        0.001   1.209  -0.162  0.00  0.00    -0.550 OA
ENDBRANCH   7  15
ENDBRANCH   1  11
BRANCH   5  17
ATOM     17  O   LIG    1       -3.379   3.725   2.518  0.00  0.00    -0.550 OA
ATOM     18  H   LIG    1       -3.650   4.651   2.575  0.00  0.00    +0.390 HD
ENDBRANCH   5  17
BRANCH   4  19
ATOM     19  O   LIG    1       -5.648   2.625   1.299  0.00  0.00    -0.530 OA
ATOM     20  H   LIG    1       -6.543   2.650   0.934  0.00  0.00    +0.380 HD
ENDBRANCH   4  19
BRANCH   6  21
ATOM     21  O   LIG    1       -3.796   1.003   2.010  0.00  0.00    -0.530 OA
ATOM     22  H   LIG    1       -3.850   1.300   2.929  0.00  0.00    +0.390 HD
ENDBRANCH   6  21
TORSDOF 5
ENDMDL
MODEL      551
REMARK  Name = ZINC000039293915
REMARK                            x       y       z     vdW  Elec       q    Type
REMARK                         _______ _______ _______ _____ _____    ______ ____
ROOT
ATOM      1  C   LIG    1       -1.000  -2.663   1.418  0.00  0.00    +0.010 C 
ENDROOT
BRANCH   1   2
ATOM      2  C   LIG    1       -1.244  -2.135   0.003  0.00  0.00    +0.230 C 
BRANCH   2   3
ATOM      3  N   LIG    1       -2.568  -2.572  -0.461  0.00  0.00    -0.830 NA
ATOM      4  H   LIG    1       -3.296  -2.223   0.144  0.00  0.00    +0.350 HD
ATOM      5  H   LIG    1       -2.611  -3.577  -0.536  0.00  0.00    +0.360 HD
ENDBRANCH   2   3
BRANCH   2   6
ATOM      6  C   LIG    1       -1.185  -0.630   0.010  0.00  0.00    +0.470 C 
ATOM      7  O   LIG    1       -2.208   0.015   0.023  0.00  0.00    -0.490 OA
BRANCH   6   9
ATOM      8  C   LIG    1       -0.018   1.448   0.010  0.00  0.00    +0.270 C 
ATOM      9  O   LIG    1        0.002  -0.004   0.002  0.00  0.00    -0.360 OA
ENDBRANCH   6   9
ENDBRANCH   2   6
ENDBRANCH   1   2
BRANCH   1  10
ATOM     10  C   LIG    1       -0.935  -4.191   1.389  0.00  0.00    +0.010 C 
BRANCH  10  11
ATOM     11  C   LIG    1       -0.691  -4.718   2.805  0.00  0.00    +0.230 C 
BRANCH  11  12
ATOM     12  N   LIG    1       -1.845  -4.394   3.654  0.00  0.00    -0.830 NA
ATOM     13  H   LIG    1       -2.689  -4.814   3.293  0.00  0.00    +0.350 HD
ATOM     14  H   LIG    1       -1.952  -3.395   3.752  0.00  0.00    +0.360 HD
ENDBRANCH  11  12
BRANCH  11  15
ATOM     15  C   LIG    1       -0.505  -6.213   2.759  0.00  0.00    +0.470 C 
ATOM     16  O   LIG    1       -1.422  -6.944   3.047  0.00  0.00    -0.490 OA
BRANCH  15  17
ATOM     17  O   LIG    1        0.679  -6.731   2.398  0.00  0.00    -0.360 OA
ATOM     18  C   LIG    1        0.786  -8.179   2.377  0.00  0.00    +0.260 C 
ENDBRANCH  15  17
ENDBRANCH  11  15
ENDBRANCH  10  11
ENDBRANCH   1  10
TORSDOF 9
ENDMDL
MODEL      552
REMARK  Name = ZINC000005545216
REMARK                            x       y       z     vdW  Elec       q    Type
REMARK                         _______ _______ _______ _____ _____    ______ ____
ROOT
ATOM      1  C   LIG    1       -2.881   1.202  -0.220  0.00  0.00    +0.440 C 
ATOM      2  O   LIG    1       -4.181   1.362  -0.790  0.00  0.00    -0.370 OA
ATOM      3  C   LIG    1       -4.613   2.721  -0.884  0.00  0.00    +0.230 C 
ATOM      4  C   LIG    1       -4.682   3.331   0.518  0.00  0.00    +0.120 C 
ATOM      5  C   LIG    1       -3.306   3.222   1.182  0.00  0.00    +0.160 C 
ATOM      6  C   LIG    1       -2.880   1.751   1.209  0.00  0.00    +0.170 C 
ENDROOT
BRANCH   1  11
ATOM      7  C   LIG    1       -1.254  -0.752  -0.203  0.00  0.00    -0.070 A 
ATOM      8  C   LIG    1       -1.404  -2.110  -0.174  0.00  0.00    +0.220 A 
ATOM      9  N   LIG    1       -2.710  -2.375  -0.156  0.00  0.00    -0.500 NA
ATOM     10  C   LIG    1       -3.388  -1.256  -0.172  0.00  0.00    +0.440 A 
ATOM     11  N   LIG    1       -2.529  -0.221  -0.196  0.00  0.00    -0.420 N 
BRANCH   7  15
ATOM     12  N   LIG    1        1.182  -0.662  -0.115  0.00  0.00    -0.840 N 
ATOM     13  H   LIG    1        1.188  -1.616   0.061  0.00  0.00    +0.400 HD
ATOM     14  H   LIG    1        2.018  -0.179  -0.204  0.00  0.00    +0.410 HD
ATOM     15  C   LIG    1        0.010  -0.006  -0.230  0.00  0.00    +0.600 C 
ATOM     16  O   LIG    1       -0.001   1.204  -0.356  0.00  0.00    -0.530 OA
ENDBRANCH   7  15
ENDBRANCH   1  11
BRANCH   5  17
ATOM     17  O   LIG    1       -3.379   3.725   2.518  0.00  0.00    -0.550 OA
ATOM     18  H   LIG    1       -3.650   4.651   2.575  0.00  0.00    +0.390 HD
ENDBRANCH   5  17
BRANCH   4  19
ATOM     19  O   LIG    1       -5.648   2.625   1.299  0.00  0.00    -0.540 OA
ATOM     20  H   LIG    1       -6.543   2.650   0.934  0.00  0.00    +0.380 HD
ENDBRANCH   4  19
BRANCH   6  21
ATOM     21  O   LIG    1       -1.566   1.645   1.762  0.00  0.00    -0.540 OA
ATOM     22  H   LIG    1       -1.492   1.980   2.667  0.00  0.00    +0.390 HD
ENDBRANCH   6  21
TORSDOF 5
ENDMDL
MODEL      553
REMARK  Name = ZINC000005545217
REMARK                            x       y       z     vdW  Elec       q    Type
REMARK                         _______ _______ _______ _____ _____    ______ ____
ROOT
ATOM      1  C   LIG    1       -2.922   1.176   0.023  0.00  0.00    +0.450 C 
ATOM      2  O   LIG    1       -4.112   1.439   0.770  0.00  0.00    -0.350 OA
ATOM      3  C   LIG    1       -5.274   0.776   0.267  0.00  0.00    +0.210 C 
ATOM      4  C   LIG    1       -5.553   1.251  -1.162  0.00  0.00    +0.120 C 
ATOM      5  C   LIG    1       -4.324   0.972  -2.032  0.00  0.00    +0.160 C 
ATOM      6  C   LIG    1       -3.106   1.667  -1.416  0.00  0.00    +0.200 C 
ENDROOT
BRANCH   1  11
ATOM      7  C   LIG    1       -2.516  -1.078   1.125  0.00  0.00    -0.100 A 
ATOM      8  C   LIG    1       -2.280  -2.337   0.650  0.00  0.00    +0.270 A 
ATOM      9  N   LIG    1       -2.275  -2.275  -0.682  0.00  0.00    -0.490 NA
ATOM     10  C   LIG    1       -2.495  -1.044  -1.067  0.00  0.00    +0.450 A 
ATOM     11  N   LIG    1       -2.656  -0.264   0.018  0.00  0.00    -0.470 N 
BRANCH   7  15
ATOM     12  N   LIG    1       -2.723   0.633   2.852  0.00  0.00    -0.850 N 
ATOM     13  H   LIG    1       -2.661   1.309   2.158  0.00  0.00    +0.400 HD
ATOM     14  H   LIG    1       -2.862   0.896   3.775  0.00  0.00    +0.410 HD
ATOM     15  C   LIG    1       -2.609  -0.671   2.533  0.00  0.00    +0.600 C 
ATOM     16  O   LIG    1       -2.583  -1.513   3.412  0.00  0.00    -0.530 OA
ENDBRANCH   7  15
ENDBRANCH   1  11
BRANCH   5  17
ATOM     17  O   LIG    1       -4.547   1.476  -3.351  0.00  0.00    -0.550 OA
ATOM     18  H   LIG    1       -5.309   1.083  -3.798  0.00  0.00    +0.390 HD
ENDBRANCH   5  17
BRANCH   4  19
ATOM     19  O   LIG    1       -5.825   2.654  -1.154  0.00  0.00    -0.540 OA
ATOM     20  H   LIG    1       -6.590   2.903  -0.618  0.00  0.00    +0.380 HD
ENDBRANCH   4  19
BRANCH   6  21
ATOM     21  O   LIG    1       -1.940   1.355  -2.181  0.00  0.00    -0.550 OA
ATOM     22  H   LIG    1       -1.989   1.634  -3.105  0.00  0.00    +0.400 HD
ENDBRANCH   6  21
TORSDOF 5
ENDMDL
MODEL      554
REMARK  Name = ZINC000005545215
REMARK                            x       y       z     vdW  Elec       q    Type
REMARK                         _______ _______ _______ _____ _____    ______ ____
ROOT
ATOM      1  C   LIG    1       -2.881   1.202  -0.220  0.00  0.00    +0.450 C 
ATOM      2  O   LIG    1       -4.180   1.381   0.348  0.00  0.00    -0.380 OA
ATOM      3  C   LIG    1       -4.612   2.742   0.398  0.00  0.00    +0.230 C 
ATOM      4  C   LIG    1       -4.684   3.305  -1.024  0.00  0.00    +0.120 C 
ATOM      5  C   LIG    1       -3.310   3.174  -1.688  0.00  0.00    +0.160 C 
ATOM      6  C   LIG    1       -2.883   1.703  -1.666  0.00  0.00    +0.170 C 
ENDROOT
BRANCH   1  11
ATOM      7  C   LIG    1       -1.254  -0.751  -0.169  0.00  0.00    -0.070 A 
ATOM      8  C   LIG    1       -1.404  -2.110  -0.154  0.00  0.00    +0.220 A 
ATOM      9  N   LIG    1       -2.710  -2.376  -0.177  0.00  0.00    -0.490 NA
ATOM     10  C   LIG    1       -3.387  -1.256  -0.205  0.00  0.00    +0.430 A 
ATOM     11  N   LIG    1       -2.529  -0.221  -0.196  0.00  0.00    -0.420 N 
BRANCH   7  15
ATOM     12  N   LIG    1        1.183  -0.664  -0.231  0.00  0.00    -0.850 N 
ATOM     13  H   LIG    1        1.196  -1.634  -0.222  0.00  0.00    +0.400 HD
ATOM     14  H   LIG    1        2.014  -0.168  -0.294  0.00  0.00    +0.410 HD
ATOM     15  C   LIG    1        0.009  -0.005  -0.152  0.00  0.00    +0.600 C 
ATOM     16  O   LIG    1       -0.002   1.209  -0.068  0.00  0.00    -0.520 OA
ENDBRANCH   7  15
ENDBRANCH   1  11
BRANCH   5  17
ATOM     17  O   LIG    1       -2.356   3.961  -0.971  0.00  0.00    -0.540 OA
ATOM     18  H   LIG    1       -2.568   4.904  -0.940  0.00  0.00    +0.390 HD
ENDBRANCH   5  17
BRANCH   4  19
ATOM     19  O   LIG    1       -5.061   4.683  -0.973  0.00  0.00    -0.560 OA
ATOM     20  H   LIG    1       -5.922   4.840  -0.560  0.00  0.00    +0.390 HD
ENDBRANCH   4  19
BRANCH   6  21
ATOM     21  O   LIG    1       -1.571   1.578  -2.219  0.00  0.00    -0.520 OA
ATOM     22  H   LIG    1       -1.500   1.883  -3.134  0.00  0.00    +0.380 HD
ENDBRANCH   6  21
TORSDOF 5
ENDMDL
MODEL      555
REMARK  Name = ZINC000005502328
REMARK                            x       y       z     vdW  Elec       q    Type
REMARK                         _______ _______ _______ _____ _____    ______ ____
ROOT
ATOM      1  C   LIG    1       -3.399  -3.650   0.023  0.00  0.00    +0.260 C 
ATOM      2  O   LIG    1       -4.539  -3.654  -0.864  0.00  0.00    -0.330 OA
ATOM      3  C   LIG    1       -5.394  -4.730  -0.443  0.00  0.00    +0.210 C 
ATOM      4  C   LIG    1       -5.135  -4.961   1.058  0.00  0.00    +0.190 C 
ATOM      5  C   LIG    1       -4.016  -3.949   1.413  0.00  0.00    +0.140 C 
ENDROOT
BRANCH   1   8
ATOM      6  C   LIG    1       -1.272  -0.763   0.010  0.00  0.00    +0.130 A 
ATOM      7  N   LIG    1       -1.406  -2.074   0.010  0.00  0.00    -0.400 NA
ATOM      8  C   LIG    1       -2.728  -2.301   0.019  0.00  0.00    +0.160 A 
ATOM      9  N   LIG    1       -3.326  -1.145   0.024  0.00  0.00    -0.320 NA
ATOM     10  O   LIG    1       -2.510  -0.248   0.025  0.00  0.00    +0.110 OA
BRANCH   6  14
ATOM     11  N   LIG    1       -0.016   1.344   0.009  0.00  0.00    -0.820 N 
ATOM     12  H   LIG    1       -0.863   1.817   0.016  0.00  0.00    +0.410 HD
ATOM     13  H   LIG    1        0.817   1.840   0.004  0.00  0.00    +0.420 HD
ATOM     14  C   LIG    1        0.002  -0.004   0.002  0.00  0.00    +0.630 C 
ATOM     15  O   LIG    1        1.062  -0.597  -0.011  0.00  0.00    -0.480 OA
ENDBRANCH   6  14
ENDBRANCH   1   8
BRANCH   4  16
ATOM     16  O   LIG    1       -4.689  -6.299   1.289  0.00  0.00    -0.550 OA
ATOM     17  H   LIG    1       -4.510  -6.500   2.218  0.00  0.00    +0.390 HD
ENDBRANCH   4  16
BRANCH   5  18
ATOM     18  O   LIG    1       -4.566  -2.762   1.989  0.00  0.00    -0.540 OA
ATOM     19  H   LIG    1       -3.905  -2.098   2.228  0.00  0.00    +0.380 HD
ENDBRANCH   5  18
BRANCH   3  20
ATOM     20  C   LIG    1       -5.061  -5.998  -1.233  0.00  0.00    +0.190 C 
BRANCH  20  21
ATOM     21  O   LIG    1       -5.401  -5.805  -2.607  0.00  0.00    -0.570 OA
ATOM     22  H   LIG    1       -5.216  -6.571  -3.169  0.00  0.00    +0.380 HD
ENDBRANCH  20  21
ENDBRANCH   3  20
TORSDOF 6
ENDMDL
MODEL      556
REMARK  Name = ZINC000008648907
REMARK                            x       y       z     vdW  Elec       q    Type
REMARK                         _______ _______ _______ _____ _____    ______ ____
ROOT
ATOM      1  C   LIG    1       -1.268  -0.760   0.010  0.00  0.00    +0.170 A 
ATOM      2  N   LIG    1       -2.486  -0.249   0.019  0.00  0.00    -0.460 NA
ATOM      3  C   LIG    1       -3.342  -1.266   0.024  0.00  0.00    +0.190 A 
ATOM      4  N   LIG    1       -2.659  -2.383   0.018  0.00  0.00    -0.260 NA
ATOM      5  N   LIG    1       -1.401  -2.106   0.004  0.00  0.00    -0.360 N 
ATOM      6  H   LIG    1       -0.676  -2.750  -0.004  0.00  0.00    +0.460 HD
ENDROOT
BRANCH   1  10
ATOM      7  N   LIG    1       -0.016   1.344   0.009  0.00  0.00    -0.820 N 
ATOM      8  H   LIG    1       -0.863   1.817   0.016  0.00  0.00    +0.420 HD
ATOM      9  H   LIG    1        0.817   1.840   0.004  0.00  0.00    +0.420 HD
ATOM     10  C   LIG    1        0.002  -0.004   0.002  0.00  0.00    +0.620 C 
ATOM     11  O   LIG    1        1.063  -0.598  -0.011  0.00  0.00    -0.530 OA
ENDBRANCH   1  10
BRANCH   3  12
ATOM     12  C   LIG    1       -4.845  -1.152   0.034  0.00  0.00    +0.280 C 
ATOM     13  C   LIG    1       -5.421  -1.522  -1.350  0.00  0.00    +0.010 C 
ATOM     14  C   LIG    1       -6.730  -2.275  -1.023  0.00  0.00    +0.160 C 
ATOM     15  C   LIG    1       -6.789  -2.272   0.520  0.00  0.00    +0.170 C 
ATOM     16  O   LIG    1       -5.416  -2.117   0.944  0.00  0.00    -0.340 OA
BRANCH  14  17
ATOM     17  O   LIG    1       -6.675  -3.613  -1.522  0.00  0.00    -0.550 OA
ATOM     18  H   LIG    1       -6.578  -3.671  -2.482  0.00  0.00    +0.380 HD
ENDBRANCH  14  17
BRANCH  15  19
ATOM     19  C   LIG    1       -7.362  -3.594   1.034  0.00  0.00    +0.220 C 
BRANCH  19  20
ATOM     20  O   LIG    1       -7.517  -3.527   2.454  0.00  0.00    -0.570 OA
ATOM     21  H   LIG    1       -7.877  -4.332   2.849  0.00  0.00    +0.380 HD
ENDBRANCH  19  20
ENDBRANCH  15  19
ENDBRANCH   3  12
TORSDOF 5
ENDMDL
MODEL      557
REMARK  Name = ZINC000005502193
REMARK                            x       y       z     vdW  Elec       q    Type
REMARK                         _______ _______ _______ _____ _____    ______ ____
ROOT
ATOM      1  C   LIG    1       -3.399  -3.650   0.023  0.00  0.00    +0.250 C 
ATOM      2  O   LIG    1       -4.504  -3.649  -0.897  0.00  0.00    -0.340 OA
ATOM      3  C   LIG    1       -5.522  -4.503  -0.332  0.00  0.00    +0.180 C 
ATOM      4  C   LIG    1       -5.482  -4.163   1.179  0.00  0.00    +0.180 C 
ATOM      5  C   LIG    1       -3.965  -3.950   1.424  0.00  0.00    +0.150 C 
ENDROOT
BRANCH   1   8
ATOM      6  C   LIG    1       -1.272  -0.763   0.010  0.00  0.00    +0.130 A 
ATOM      7  N   LIG    1       -1.406  -2.074   0.010  0.00  0.00    -0.410 NA
ATOM      8  C   LIG    1       -2.728  -2.301   0.019  0.00  0.00    +0.160 A 
ATOM      9  N   LIG    1       -3.326  -1.145   0.024  0.00  0.00    -0.310 NA
ATOM     10  O   LIG    1       -2.510  -0.248   0.025  0.00  0.00    +0.110 OA
BRANCH   6  14
ATOM     11  N   LIG    1       -0.016   1.344   0.009  0.00  0.00    -0.830 N 
ATOM     12  H   LIG    1       -0.863   1.817   0.016  0.00  0.00    +0.410 HD
ATOM     13  H   LIG    1        0.817   1.840   0.004  0.00  0.00    +0.420 HD
ATOM     14  C   LIG    1        0.002  -0.004   0.002  0.00  0.00    +0.630 C 
ATOM     15  O   LIG    1        1.062  -0.597  -0.011  0.00  0.00    -0.480 OA
ENDBRANCH   6  14
ENDBRANCH   1   8
BRANCH   4  16
ATOM     16  O   LIG    1       -6.218  -2.969   1.453  0.00  0.00    -0.530 OA
ATOM     17  H   LIG    1       -6.222  -2.715   2.386  0.00  0.00    +0.390 HD
ENDBRANCH   4  16
BRANCH   5  18
ATOM     18  O   LIG    1       -3.751  -2.841   2.300  0.00  0.00    -0.540 OA
ATOM     19  H   LIG    1       -2.819  -2.663   2.487  0.00  0.00    +0.380 HD
ENDBRANCH   5  18
BRANCH   3  20
ATOM     20  C   LIG    1       -6.893  -4.171  -0.926  0.00  0.00    +0.220 C 
BRANCH  20  21
ATOM     21  O   LIG    1       -6.904  -4.507  -2.315  0.00  0.00    -0.570 OA
ATOM     22  H   LIG    1       -7.745  -4.323  -2.757  0.00  0.00    +0.380 HD
ENDBRANCH  20  21
ENDBRANCH   3  20
TORSDOF 6
ENDMDL
MODEL      558
REMARK  Name = ZINC000005502323
REMARK                            x       y       z     vdW  Elec       q    Type
REMARK                         _______ _______ _______ _____ _____    ______ ____
ROOT
ATOM      1  C   LIG    1       -4.845  -1.152   0.034  0.00  0.00    +0.260 C 
ATOM      2  O   LIG    1       -5.422  -2.125   0.931  0.00  0.00    -0.330 OA
ATOM      3  C   LIG    1       -6.788  -2.311   0.525  0.00  0.00    +0.210 C 
ATOM      4  C   LIG    1       -6.869  -1.978  -0.977  0.00  0.00    +0.190 C 
ATOM      5  C   LIG    1       -5.431  -1.537  -1.348  0.00  0.00    +0.140 C 
ENDROOT
BRANCH   1   8
ATOM      6  C   LIG    1       -1.268  -0.760   0.010  0.00  0.00    +0.170 A 
ATOM      7  N   LIG    1       -2.486  -0.249   0.019  0.00  0.00    -0.460 NA
ATOM      8  C   LIG    1       -3.342  -1.266   0.024  0.00  0.00    +0.180 A 
ATOM      9  N   LIG    1       -2.659  -2.383   0.018  0.00  0.00    -0.250 NA
ATOM     10  N   LIG    1       -1.401  -2.106   0.004  0.00  0.00    -0.350 N 
ATOM     11  H   LIG    1       -0.676  -2.750  -0.004  0.00  0.00    +0.460 HD
BRANCH   6  15
ATOM     12  N   LIG    1       -0.016   1.344   0.009  0.00  0.00    -0.820 N 
ATOM     13  H   LIG    1       -0.863   1.817   0.016  0.00  0.00    +0.420 HD
ATOM     14  H   LIG    1        0.817   1.840   0.004  0.00  0.00    +0.420 HD
ATOM     15  C   LIG    1        0.002  -0.004   0.002  0.00  0.00    +0.620 C 
ATOM     16  O   LIG    1        1.063  -0.598  -0.011  0.00  0.00    -0.530 OA
ENDBRANCH   6  15
ENDBRANCH   1   8
BRANCH   4  17
ATOM     17  O   LIG    1       -7.793  -0.912  -1.204  0.00  0.00    -0.550 OA
ATOM     18  H   LIG    1       -7.883  -0.661  -2.134  0.00  0.00    +0.390 HD
ENDBRANCH   4  17
BRANCH   5  19
ATOM     19  O   LIG    1       -4.698  -2.619  -1.926  0.00  0.00    -0.540 OA
ATOM     20  H   LIG    1       -3.792  -2.392  -2.175  0.00  0.00    +0.380 HD
ENDBRANCH   5  19
BRANCH   3  21
ATOM     21  C   LIG    1       -7.700  -1.373   1.319  0.00  0.00    +0.190 C 
BRANCH  21  22
ATOM     22  O   LIG    1       -7.695  -1.756   2.696  0.00  0.00    -0.570 OA
ATOM     23  H   LIG    1       -8.252  -1.203   3.260  0.00  0.00    +0.380 HD
ENDBRANCH  21  22
ENDBRANCH   3  21
TORSDOF 6
ENDMDL
MODEL      559
REMARK  Name = ZINC000005502210
REMARK                            x       y       z     vdW  Elec       q    Type
REMARK                         _______ _______ _______ _____ _____    ______ ____
ROOT
ATOM      1  C   LIG    1       -4.845  -1.152   0.034  0.00  0.00    +0.260 C 
ATOM      2  O   LIG    1       -5.422  -2.125   0.931  0.00  0.00    -0.330 OA
ATOM      3  C   LIG    1       -6.788  -2.311   0.525  0.00  0.00    +0.190 C 
ATOM      4  C   LIG    1       -6.869  -1.978  -0.977  0.00  0.00    +0.180 C 
ATOM      5  C   LIG    1       -5.431  -1.537  -1.348  0.00  0.00    +0.140 C 
ENDROOT
BRANCH   1   8
ATOM      6  C   LIG    1       -1.268  -0.760   0.010  0.00  0.00    +0.170 A 
ATOM      7  N   LIG    1       -2.486  -0.249   0.019  0.00  0.00    -0.460 NA
ATOM      8  C   LIG    1       -3.342  -1.266   0.024  0.00  0.00    +0.180 A 
ATOM      9  N   LIG    1       -2.659  -2.383   0.018  0.00  0.00    -0.250 NA
ATOM     10  N   LIG    1       -1.401  -2.106   0.004  0.00  0.00    -0.350 N 
ATOM     11  H   LIG    1       -0.676  -2.750  -0.004  0.00  0.00    +0.460 HD
BRANCH   6  15
ATOM     12  N   LIG    1       -0.016   1.344   0.009  0.00  0.00    -0.820 N 
ATOM     13  H   LIG    1       -0.863   1.817   0.016  0.00  0.00    +0.420 HD
ATOM     14  H   LIG    1        0.817   1.840   0.004  0.00  0.00    +0.420 HD
ATOM     15  C   LIG    1        0.002  -0.004   0.002  0.00  0.00    +0.620 C 
ATOM     16  O   LIG    1        1.063  -0.598  -0.011  0.00  0.00    -0.530 OA
ENDBRANCH   6  15
ENDBRANCH   1   8
BRANCH   4  17
ATOM     17  O   LIG    1       -7.793  -0.912  -1.204  0.00  0.00    -0.550 OA
ATOM     18  H   LIG    1       -7.883  -0.661  -2.134  0.00  0.00    +0.390 HD
ENDBRANCH   4  17
BRANCH   5  19
ATOM     19  O   LIG    1       -4.698  -2.619  -1.926  0.00  0.00    -0.540 OA
ATOM     20  H   LIG    1       -3.792  -2.392  -2.175  0.00  0.00    +0.380 HD
ENDBRANCH   5  19
BRANCH   3  21
ATOM     21  C   LIG    1       -7.209  -3.763   0.763  0.00  0.00    +0.200 C 
BRANCH  21  22
ATOM     22  O   LIG    1       -7.227  -4.030   2.167  0.00  0.00    -0.560 OA
ATOM     23  H   LIG    1       -7.486  -4.934   2.392  0.00  0.00    +0.380 HD
ENDBRANCH  21  22
ENDBRANCH   3  21
TORSDOF 6
ENDMDL
MODEL      560
REMARK  Name = ZINC000005502212
REMARK                            x       y       z     vdW  Elec       q    Type
REMARK                         _______ _______ _______ _____ _____    ______ ____
ROOT
ATOM      1  C   LIG    1       -3.399  -3.650   0.023  0.00  0.00    +0.260 C 
ATOM      2  O   LIG    1       -4.539  -3.654  -0.864  0.00  0.00    -0.340 OA
ATOM      3  C   LIG    1       -5.394  -4.730  -0.443  0.00  0.00    +0.190 C 
ATOM      4  C   LIG    1       -5.135  -4.961   1.058  0.00  0.00    +0.190 C 
ATOM      5  C   LIG    1       -4.016  -3.949   1.413  0.00  0.00    +0.150 C 
ENDROOT
BRANCH   1   8
ATOM      6  C   LIG    1       -1.272  -0.763   0.010  0.00  0.00    +0.130 A 
ATOM      7  N   LIG    1       -1.406  -2.074   0.010  0.00  0.00    -0.400 NA
ATOM      8  C   LIG    1       -2.728  -2.301   0.019  0.00  0.00    +0.160 A 
ATOM      9  N   LIG    1       -3.326  -1.145   0.024  0.00  0.00    -0.320 NA
ATOM     10  O   LIG    1       -2.510  -0.248   0.025  0.00  0.00    +0.110 OA
BRANCH   6  14
ATOM     11  N   LIG    1       -0.016   1.344   0.009  0.00  0.00    -0.830 N 
ATOM     12  H   LIG    1       -0.863   1.817   0.016  0.00  0.00    +0.410 HD
ATOM     13  H   LIG    1        0.817   1.840   0.004  0.00  0.00    +0.420 HD
ATOM     14  C   LIG    1        0.002  -0.004   0.002  0.00  0.00    +0.630 C 
ATOM     15  O   LIG    1        1.062  -0.597  -0.011  0.00  0.00    -0.480 OA
ENDBRANCH   6  14
ENDBRANCH   1   8
BRANCH   4  16
ATOM     16  O   LIG    1       -4.689  -6.299   1.289  0.00  0.00    -0.550 OA
ATOM     17  H   LIG    1       -4.510  -6.500   2.218  0.00  0.00    +0.390 HD
ENDBRANCH   4  16
BRANCH   5  18
ATOM     18  O   LIG    1       -4.566  -2.762   1.989  0.00  0.00    -0.540 OA
ATOM     19  H   LIG    1       -3.905  -2.098   2.228  0.00  0.00    +0.380 HD
ENDBRANCH   5  18
BRANCH   3  20
ATOM     20  C   LIG    1       -6.858  -4.350  -0.669  0.00  0.00    +0.210 C 
BRANCH  20  21
ATOM     21  O   LIG    1       -7.111  -4.237  -2.071  0.00  0.00    -0.560 OA
ATOM     22  H   LIG    1       -8.022  -3.998  -2.289  0.00  0.00    +0.380 HD
ENDBRANCH  20  21
ENDBRANCH   3  20
TORSDOF 6
ENDMDL
MODEL      561
REMARK  Name = ZINC000008648909
REMARK                            x       y       z     vdW  Elec       q    Type
REMARK                         _______ _______ _______ _____ _____    ______ ____
ROOT
ATOM      1  C   LIG    1       -1.268  -0.760   0.010  0.00  0.00    +0.170 A 
ATOM      2  N   LIG    1       -2.486  -0.249   0.019  0.00  0.00    -0.460 NA
ATOM      3  C   LIG    1       -3.342  -1.266   0.024  0.00  0.00    +0.190 A 
ATOM      4  N   LIG    1       -2.659  -2.383   0.018  0.00  0.00    -0.260 NA
ATOM      5  N   LIG    1       -1.401  -2.106   0.004  0.00  0.00    -0.350 N 
ATOM      6  H   LIG    1       -0.676  -2.750  -0.004  0.00  0.00    +0.460 HD
ENDROOT
BRANCH   1  10
ATOM      7  N   LIG    1       -0.016   1.344   0.009  0.00  0.00    -0.820 N 
ATOM      8  H   LIG    1       -0.863   1.817   0.016  0.00  0.00    +0.420 HD
ATOM      9  H   LIG    1        0.817   1.840   0.004  0.00  0.00    +0.420 HD
ATOM     10  C   LIG    1        0.002  -0.004   0.002  0.00  0.00    +0.620 C 
ATOM     11  O   LIG    1        1.063  -0.598  -0.011  0.00  0.00    -0.530 OA
ENDBRANCH   1  10
BRANCH   3  12
ATOM     12  C   LIG    1       -4.845  -1.152   0.034  0.00  0.00    +0.290 C 
ATOM     13  C   LIG    1       -5.421  -1.519  -1.356  0.00  0.00    +0.020 C 
ATOM     14  C   LIG    1       -6.859  -1.964  -0.971  0.00  0.00    +0.160 C 
ATOM     15  C   LIG    1       -6.640  -2.622   0.408  0.00  0.00    +0.190 C 
ATOM     16  O   LIG    1       -5.411  -2.110   0.942  0.00  0.00    -0.340 OA
BRANCH  14  17
ATOM     17  O   LIG    1       -7.368  -2.909  -1.914  0.00  0.00    -0.550 OA
ATOM     18  H   LIG    1       -7.441  -2.566  -2.815  0.00  0.00    +0.390 HD
ENDBRANCH  14  17
BRANCH  15  19
ATOM     19  C   LIG    1       -7.799  -2.267   1.342  0.00  0.00    +0.180 C 
BRANCH  19  20
ATOM     20  O   LIG    1       -7.649  -2.972   2.576  0.00  0.00    -0.560 OA
ATOM     21  H   LIG    1       -8.350  -2.795   3.218  0.00  0.00    +0.380 HD
ENDBRANCH  19  20
ENDBRANCH  15  19
ENDBRANCH   3  12
TORSDOF 5
ENDMDL
MODEL      562
REMARK  Name = ZINC000008648908
REMARK                            x       y       z     vdW  Elec       q    Type
REMARK                         _______ _______ _______ _____ _____    ______ ____
ROOT
ATOM      1  C   LIG    1       -1.268  -0.760   0.010  0.00  0.00    +0.170 A 
ATOM      2  N   LIG    1       -2.486  -0.249   0.019  0.00  0.00    -0.460 NA
ATOM      3  C   LIG    1       -3.342  -1.266   0.024  0.00  0.00    +0.180 A 
ATOM      4  N   LIG    1       -2.659  -2.383   0.018  0.00  0.00    -0.270 NA
ATOM      5  N   LIG    1       -1.401  -2.106   0.004  0.00  0.00    -0.360 N 
ATOM      6  H   LIG    1       -0.676  -2.750  -0.004  0.00  0.00    +0.460 HD
ENDROOT
BRANCH   1  10
ATOM      7  N   LIG    1       -0.016   1.344   0.009  0.00  0.00    -0.820 N 
ATOM      8  H   LIG    1       -0.863   1.817   0.016  0.00  0.00    +0.420 HD
ATOM      9  H   LIG    1        0.817   1.840   0.004  0.00  0.00    +0.420 HD
ATOM     10  C   LIG    1        0.002  -0.004   0.002  0.00  0.00    +0.620 C 
ATOM     11  O   LIG    1        1.063  -0.598  -0.011  0.00  0.00    -0.530 OA
ENDBRANCH   1  10
BRANCH   3  12
ATOM     12  C   LIG    1       -4.845  -1.152   0.034  0.00  0.00    +0.300 C 
ATOM     13  C   LIG    1       -5.386  -1.493   1.439  0.00  0.00    +0.010 C 
ATOM     14  C   LIG    1       -6.672  -2.299   1.110  0.00  0.00    +0.170 C 
ATOM     15  C   LIG    1       -6.237  -3.032  -0.184  0.00  0.00    +0.180 C 
ATOM     16  O   LIG    1       -5.410  -2.091  -0.889  0.00  0.00    -0.340 OA
BRANCH  14  17
ATOM     17  O   LIG    1       -7.777  -1.427   0.862  0.00  0.00    -0.550 OA
ATOM     18  H   LIG    1       -8.015  -0.870   1.615  0.00  0.00    +0.390 HD
ENDBRANCH  14  17
BRANCH  15  19
ATOM     19  C   LIG    1       -7.462  -3.398  -1.024  0.00  0.00    +0.200 C 
BRANCH  19  20
ATOM     20  O   LIG    1       -7.051  -4.173  -2.152  0.00  0.00    -0.570 OA
ATOM     21  H   LIG    1       -7.777  -4.442  -2.731  0.00  0.00    +0.380 HD
ENDBRANCH  19  20
ENDBRANCH  15  19
ENDBRANCH   3  12
TORSDOF 5
ENDMDL
MODEL      563
REMARK  Name = ZINC000005502305
REMARK                            x       y       z     vdW  Elec       q    Type
REMARK                         _______ _______ _______ _____ _____    ______ ____
ROOT
ATOM      1  C   LIG    1       -3.399  -3.650   0.023  0.00  0.00    +0.250 C 
ATOM      2  O   LIG    1       -4.539  -3.654  -0.864  0.00  0.00    -0.330 OA
ATOM      3  C   LIG    1       -5.394  -4.730  -0.443  0.00  0.00    +0.200 C 
ATOM      4  C   LIG    1       -5.135  -4.961   1.058  0.00  0.00    +0.190 C 
ATOM      5  C   LIG    1       -4.016  -3.949   1.413  0.00  0.00    +0.140 C 
ENDROOT
BRANCH   1   8
ATOM      6  C   LIG    1       -1.272  -0.763   0.010  0.00  0.00    +0.130 A 
ATOM      7  N   LIG    1       -1.406  -2.074   0.010  0.00  0.00    -0.400 NA
ATOM      8  C   LIG    1       -2.728  -2.301   0.019  0.00  0.00    +0.160 A 
ATOM      9  N   LIG    1       -3.326  -1.145   0.024  0.00  0.00    -0.320 NA
ATOM     10  O   LIG    1       -2.510  -0.248   0.025  0.00  0.00    +0.110 OA
BRANCH   6  14
ATOM     11  N   LIG    1       -0.016   1.344   0.009  0.00  0.00    -0.820 N 
ATOM     12  H   LIG    1       -0.863   1.817   0.016  0.00  0.00    +0.410 HD
ATOM     13  H   LIG    1        0.817   1.840   0.004  0.00  0.00    +0.420 HD
ATOM     14  C   LIG    1        0.002  -0.004   0.002  0.00  0.00    +0.630 C 
ATOM     15  O   LIG    1        1.062  -0.597  -0.011  0.00  0.00    -0.480 OA
ENDBRANCH   6  14
ENDBRANCH   1   8
BRANCH   4  16
ATOM     16  O   LIG    1       -6.316  -4.694   1.817  0.00  0.00    -0.530 OA
ATOM     17  H   LIG    1       -6.210  -4.824   2.769  0.00  0.00    +0.390 HD
ENDBRANCH   4  16
BRANCH   5  18
ATOM     18  O   LIG    1       -4.566  -2.762   1.989  0.00  0.00    -0.520 OA
ATOM     19  H   LIG    1       -3.905  -2.098   2.228  0.00  0.00    +0.370 HD
ENDBRANCH   5  18
BRANCH   3  20
ATOM     20  C   LIG    1       -5.061  -5.998  -1.233  0.00  0.00    +0.170 C 
BRANCH  20  21
ATOM     21  O   LIG    1       -5.401  -5.805  -2.607  0.00  0.00    -0.560 OA
ATOM     22  H   LIG    1       -5.216  -6.571  -3.169  0.00  0.00    +0.380 HD
ENDBRANCH  20  21
ENDBRANCH   3  20
TORSDOF 6
ENDMDL
MODEL      564
REMARK  Name = ZINC000005502192
REMARK                            x       y       z     vdW  Elec       q    Type
REMARK                         _______ _______ _______ _____ _____    ______ ____
ROOT
ATOM      1  C   LIG    1       -4.845  -1.152   0.034  0.00  0.00    +0.260 C 
ATOM      2  O   LIG    1       -5.400  -2.097   0.964  0.00  0.00    -0.340 OA
ATOM      3  C   LIG    1       -6.660  -2.539   0.414  0.00  0.00    +0.190 C 
ATOM      4  C   LIG    1       -6.362  -2.686  -1.100  0.00  0.00    +0.180 C 
ATOM      5  C   LIG    1       -5.406  -1.493  -1.360  0.00  0.00    +0.140 C 
ENDROOT
BRANCH   1   8
ATOM      6  C   LIG    1       -1.268  -0.760   0.010  0.00  0.00    +0.160 A 
ATOM      7  N   LIG    1       -2.486  -0.249   0.019  0.00  0.00    -0.460 NA
ATOM      8  C   LIG    1       -3.342  -1.266   0.024  0.00  0.00    +0.190 A 
ATOM      9  N   LIG    1       -2.659  -2.383   0.018  0.00  0.00    -0.230 NA
ATOM     10  N   LIG    1       -1.401  -2.106   0.004  0.00  0.00    -0.360 N 
ATOM     11  H   LIG    1       -0.676  -2.750  -0.004  0.00  0.00    +0.460 HD
BRANCH   6  15
ATOM     12  N   LIG    1       -0.016   1.344   0.009  0.00  0.00    -0.820 N 
ATOM     13  H   LIG    1       -0.863   1.817   0.016  0.00  0.00    +0.420 HD
ATOM     14  H   LIG    1        0.817   1.840   0.004  0.00  0.00    +0.420 HD
ATOM     15  C   LIG    1        0.002  -0.004   0.002  0.00  0.00    +0.620 C 
ATOM     16  O   LIG    1        1.063  -0.598  -0.011  0.00  0.00    -0.530 OA
ENDBRANCH   6  15
ENDBRANCH   1   8
BRANCH   4  17
ATOM     17  O   LIG    1       -5.715  -3.930  -1.373  0.00  0.00    -0.530 OA
ATOM     18  H   LIG    1       -5.508  -4.069  -2.308  0.00  0.00    +0.390 HD
ENDBRANCH   4  17
BRANCH   5  19
ATOM     19  O   LIG    1       -4.352  -1.880  -2.244  0.00  0.00    -0.540 OA
ATOM     20  H   LIG    1       -3.724  -1.172  -2.442  0.00  0.00    +0.380 HD
ENDBRANCH   5  19
BRANCH   3  21
ATOM     21  C   LIG    1       -7.070  -3.883   1.019  0.00  0.00    +0.220 C 
BRANCH  21  22
ATOM     22  O   LIG    1       -7.352  -3.713   2.410  0.00  0.00    -0.570 OA
ATOM     23  H   LIG    1       -7.619  -4.527   2.859  0.00  0.00    +0.380 HD
ENDBRANCH  21  22
ENDBRANCH   3  21
TORSDOF 6
ENDMDL
MODEL      565
REMARK  Name = ZINC000005575173
REMARK                            x       y       z     vdW  Elec       q    Type
REMARK                         _______ _______ _______ _____ _____    ______ ____
ROOT
ATOM      1  C   LIG    1       -1.268  -0.760   0.010  0.00  0.00    +0.170 A 
ATOM      2  N   LIG    1       -2.486  -0.249   0.019  0.00  0.00    -0.460 NA
ATOM      3  C   LIG    1       -3.342  -1.266   0.024  0.00  0.00    +0.190 A 
ATOM      4  N   LIG    1       -2.659  -2.383   0.018  0.00  0.00    -0.260 NA
ATOM      5  N   LIG    1       -1.401  -2.106   0.004  0.00  0.00    -0.350 N 
ATOM      6  H   LIG    1       -0.676  -2.750  -0.004  0.00  0.00    +0.460 HD
ENDROOT
BRANCH   1  10
ATOM      7  N   LIG    1       -0.016   1.344   0.009  0.00  0.00    -0.820 N 
ATOM      8  H   LIG    1       -0.863   1.817   0.016  0.00  0.00    +0.420 HD
ATOM      9  H   LIG    1        0.817   1.840   0.004  0.00  0.00    +0.420 HD
ATOM     10  C   LIG    1        0.002  -0.004   0.002  0.00  0.00    +0.620 C 
ATOM     11  O   LIG    1        1.063  -0.598  -0.011  0.00  0.00    -0.530 OA
ENDBRANCH   1  10
BRANCH   3  12
ATOM     12  C   LIG    1       -4.845  -1.152   0.034  0.00  0.00    +0.290 C 
ATOM     13  C   LIG    1       -5.412  -1.539   1.424  0.00  0.00    +0.010 C 
ATOM     14  C   LIG    1       -6.855  -1.977   1.074  0.00  0.00    +0.160 C 
ATOM     15  C   LIG    1       -6.795  -2.312  -0.429  0.00  0.00    +0.170 C 
ATOM     16  O   LIG    1       -5.434  -2.123  -0.857  0.00  0.00    -0.340 OA
BRANCH  14  17
ATOM     17  O   LIG    1       -7.774  -0.909   1.315  0.00  0.00    -0.560 OA
ATOM     18  H   LIG    1       -7.808  -0.620   2.237  0.00  0.00    +0.390 HD
ENDBRANCH  14  17
BRANCH  15  19
ATOM     19  C   LIG    1       -7.221  -3.764  -0.656  0.00  0.00    +0.200 C 
BRANCH  19  20
ATOM     20  O   LIG    1       -7.274  -4.031  -2.058  0.00  0.00    -0.560 OA
ATOM     21  H   LIG    1       -7.538  -4.935  -2.277  0.00  0.00    +0.380 HD
ENDBRANCH  19  20
ENDBRANCH  15  19
ENDBRANCH   3  12
TORSDOF 5
ENDMDL
MODEL      566
REMARK  Name = ZINC000008655644
REMARK                            x       y       z     vdW  Elec       q    Type
REMARK                         _______ _______ _______ _____ _____    ______ ____
ROOT
ATOM      1  C   LIG    1       -1.215  -0.729   0.010  0.00  0.00    -0.200 A 
ATOM      2  C   LIG    1       -1.366  -2.108   0.010  0.00  0.00    +0.400 A 
ATOM      3  N   LIG    1       -2.679  -2.366   0.018  0.00  0.00    -0.530 NA
ATOM      4  C   LIG    1       -3.353  -1.245   0.024  0.00  0.00    +0.290 A 
ATOM      5  N   LIG    1       -2.501  -0.205   0.025  0.00  0.00    -0.530 N 
ATOM      6  H   LIG    1       -2.740   0.736   0.029  0.00  0.00    +0.430 HD
ENDROOT
BRANCH   1  10
ATOM      7  N   LIG    1       -0.016   1.344   0.009  0.00  0.00    -0.860 N 
ATOM      8  H   LIG    1       -0.863   1.817   0.016  0.00  0.00    +0.390 HD
ATOM      9  H   LIG    1        0.817   1.840   0.004  0.00  0.00    +0.410 HD
ATOM     10  C   LIG    1        0.002  -0.004   0.002  0.00  0.00    +0.610 C 
ATOM     11  O   LIG    1        1.065  -0.599  -0.011  0.00  0.00    -0.550 OA
ENDBRANCH   1  10
BRANCH   2  12
ATOM     12  N   LIG    1       -0.344  -3.047   0.002  0.00  0.00    -0.820 N 
ATOM     13  H   LIG    1       -0.555  -3.994   0.003  0.00  0.00    +0.410 HD
ATOM     14  H   LIG    1        0.581  -2.756  -0.004  0.00  0.00    +0.420 HD
ENDBRANCH   2  12
BRANCH   4  15
ATOM     15  C   LIG    1       -4.856  -1.136   0.034  0.00  0.00    +0.320 C 
BRANCH  15  16
ATOM     16  O   LIG    1       -5.233   0.242   0.038  0.00  0.00    -0.390 OA
BRANCH  16  17
ATOM     17  C   LIG    1       -6.646   0.458   0.048  0.00  0.00    +0.210 C 
BRANCH  17  18
ATOM     18  C   LIG    1       -6.932   1.961   0.051  0.00  0.00    +0.210 C 
BRANCH  18  19
ATOM     19  O   LIG    1       -6.470   2.537  -1.172  0.00  0.00    -0.570 OA
ATOM     20  H   LIG    1       -6.619   3.490  -1.239  0.00  0.00    +0.380 HD
ENDBRANCH  18  19
ENDBRANCH  17  18
ENDBRANCH  16  17
ENDBRANCH  15  16
ENDBRANCH   4  15
TORSDOF 7
ENDMDL
MODEL      567
REMARK  Name = ZINC000005502302
REMARK                            x       y       z     vdW  Elec       q    Type
REMARK                         _______ _______ _______ _____ _____    ______ ____
ROOT
ATOM      1  C   LIG    1       -4.845  -1.152   0.034  0.00  0.00    +0.250 C 
ATOM      2  O   LIG    1       -5.422  -2.125   0.931  0.00  0.00    -0.330 OA
ATOM      3  C   LIG    1       -6.788  -2.311   0.525  0.00  0.00    +0.200 C 
ATOM      4  C   LIG    1       -6.869  -1.978  -0.977  0.00  0.00    +0.180 C 
ATOM      5  C   LIG    1       -5.431  -1.537  -1.348  0.00  0.00    +0.140 C 
ENDROOT
BRANCH   1   8
ATOM      6  C   LIG    1       -1.268  -0.760   0.010  0.00  0.00    +0.170 A 
ATOM      7  N   LIG    1       -2.486  -0.249   0.019  0.00  0.00    -0.460 NA
ATOM      8  C   LIG    1       -3.342  -1.266   0.024  0.00  0.00    +0.180 A 
ATOM      9  N   LIG    1       -2.659  -2.383   0.018  0.00  0.00    -0.240 NA
ATOM     10  N   LIG    1       -1.401  -2.106   0.004  0.00  0.00    -0.350 N 
ATOM     11  H   LIG    1       -0.676  -2.750  -0.004  0.00  0.00    +0.460 HD
BRANCH   6  15
ATOM     12  N   LIG    1       -0.016   1.344   0.009  0.00  0.00    -0.820 N 
ATOM     13  H   LIG    1       -0.863   1.817   0.016  0.00  0.00    +0.420 HD
ATOM     14  H   LIG    1        0.817   1.840   0.004  0.00  0.00    +0.420 HD
ATOM     15  C   LIG    1        0.002  -0.004   0.002  0.00  0.00    +0.620 C 
ATOM     16  O   LIG    1        1.063  -0.598  -0.011  0.00  0.00    -0.530 OA
ENDBRANCH   6  15
ENDBRANCH   1   8
BRANCH   4  17
ATOM     17  O   LIG    1       -7.252  -3.134  -1.726  0.00  0.00    -0.540 OA
ATOM     18  H   LIG    1       -7.318  -2.981  -2.678  0.00  0.00    +0.390 HD
ENDBRANCH   4  17
BRANCH   5  19
ATOM     19  O   LIG    1       -4.698  -2.619  -1.926  0.00  0.00    -0.520 OA
ATOM     20  H   LIG    1       -3.792  -2.392  -2.175  0.00  0.00    +0.370 HD
ENDBRANCH   5  19
BRANCH   3  21
ATOM     21  C   LIG    1       -7.700  -1.373   1.319  0.00  0.00    +0.170 C 
BRANCH  21  22
ATOM     22  O   LIG    1       -7.695  -1.756   2.696  0.00  0.00    -0.560 OA
ATOM     23  H   LIG    1       -8.252  -1.203   3.260  0.00  0.00    +0.380 HD
ENDBRANCH  21  22
ENDBRANCH   3  21
TORSDOF 6
ENDMDL
MODEL      568
REMARK  Name = ZINC000012358817
REMARK                            x       y       z     vdW  Elec       q    Type
REMARK                         _______ _______ _______ _____ _____    ______ ____
ROOT
ATOM      1  C   LIG    1        0.128   1.182  -0.490  0.00  0.00    +0.070 C 
ATOM      2  C   LIG    1        0.128  -0.308  -0.145  0.00  0.00    +0.150 C 
ATOM      3  O   LIG    1        0.897  -1.022  -1.115  0.00  0.00    -0.390 OA
ATOM      4  C   LIG    1        0.941  -2.434  -0.901  0.00  0.00    +0.310 C 
ATOM      5  C   LIG    1        1.589  -2.723   0.456  0.00  0.00    +0.100 C 
ATOM      6  C   LIG    1        0.795  -2.010   1.555  0.00  0.00    +0.160 C 
ATOM      7  C   LIG    1        1.480  -2.228   2.905  0.00  0.00    +0.040 C 
ATOM      8  C   LIG    1        1.582  -4.231   0.716  0.00  0.00    +0.050 C 
ATOM      9  C   LIG    1        0.743  -0.511   1.242  0.00  0.00    +0.120 C 
ATOM     10  C   LIG    1        2.160   0.064   1.261  0.00  0.00    +0.050 C 
ENDROOT
BRANCH   6  11
ATOM     11  O   LIG    1       -0.533  -2.536   1.602  0.00  0.00    -0.540 OA
ATOM     12  H   LIG    1       -0.574  -3.484   1.790  0.00  0.00    +0.380 HD
ENDBRANCH   6  11
BRANCH   5  13
ATOM     13  O   LIG    1        2.936  -2.245   0.453  0.00  0.00    -0.530 OA
ATOM     14  H   LIG    1        3.496  -2.652  -0.223  0.00  0.00    +0.380 HD
ENDBRANCH   5  13
BRANCH   4  15
ATOM     15  O   LIG    1        1.709  -3.050  -1.937  0.00  0.00    -0.540 OA
ATOM     16  H   LIG    1        1.356  -2.908  -2.825  0.00  0.00    +0.390 HD
ENDBRANCH   4  15
BRANCH   9  17
ATOM     17  O   LIG    1       -0.057   0.153   2.222  0.00  0.00    -0.540 OA
ATOM     18  H   LIG    1       -0.134   1.108   2.085  0.00  0.00    +0.380 HD
ENDBRANCH   9  17
TORSDOF 4
ENDMDL
MODEL      569
REMARK  Name = ZINC000004533877
REMARK                            x       y       z     vdW  Elec       q    Type
REMARK                         _______ _______ _______ _____ _____    ______ ____
ROOT
ATOM      1  C   LIG    1       -2.430  -2.690   0.621  0.00  0.00    +0.190 C 
ENDROOT
BRANCH   1   2
ATOM      2  O   LIG    1       -3.538  -2.322  -0.204  0.00  0.00    -0.510 OA
ATOM      3  H   LIG    1       -3.646  -1.367  -0.315  0.00  0.00    +0.360 HD
ENDBRANCH   1   2
BRANCH   1   4
ATOM      4  CA  LIG    1       -1.136  -2.159   0.001  0.00  0.00    +0.230 C 
BRANCH   4   7
ATOM      5  C   LIG    1       -0.018   1.503   0.010  0.00  0.00    +0.090 C 
ATOM      6  C   LIG    1        0.002  -0.004   0.002  0.00  0.00    +0.510 C 
ATOM      7  N   LIG    1       -1.156  -0.694   0.009  0.00  0.00    -0.720 N 
ATOM      8  H   LIG    1       -2.002  -0.220   0.020  0.00  0.00    +0.400 HD
ATOM      9  O   LIG    1        1.060  -0.596  -0.011  0.00  0.00    -0.540 OA
ENDBRANCH   4   7
BRANCH   4  10
ATOM     10  C   LIG    1       -1.017  -2.659  -1.440  0.00  0.00    +0.170 C 
BRANCH  10  11
ATOM     11  O   LIG    1       -2.190  -2.293  -2.169  0.00  0.00    -0.550 OA
ATOM     12  H   LIG    1       -2.183  -2.579  -3.093  0.00  0.00    +0.380 HD
ENDBRANCH  10  11
ENDBRANCH   4  10
ENDBRANCH   1   4
BRANCH   1  13
ATOM     13  C   LIG    1       -2.612  -2.090   2.016  0.00  0.00    +0.150 C 
BRANCH  13  14
ATOM     14  O   LIG    1       -1.504  -2.457   2.840  0.00  0.00    -0.550 OA
ATOM     15  H   LIG    1       -1.396  -3.412   2.952  0.00  0.00    +0.380 HD
ENDBRANCH  13  14
BRANCH  13  16
ATOM     16  C   LIG    1       -3.906  -2.621   2.635  0.00  0.00    +0.190 C 
BRANCH  16  17
ATOM     17  O   LIG    1       -5.014  -2.253   1.811  0.00  0.00    -0.530 OA
ATOM     18  H   LIG    1       -5.122  -1.299   1.700  0.00  0.00    +0.370 HD
ENDBRANCH  16  17
BRANCH  16  19
ATOM     19  C   LIG    1       -4.088  -2.021   4.031  0.00  0.00    +0.150 C 
BRANCH  19  20
ATOM     20  O   LIG    1       -5.233  -2.604   4.655  0.00  0.00    -0.570 OA
ATOM     21  H   LIG    1       -5.409  -2.270   5.545  0.00  0.00    +0.380 HD
ENDBRANCH  19  20
ENDBRANCH  16  19
ENDBRANCH  13  16
ENDBRANCH   1  13
TORSDOF 11
ENDMDL
MODEL      570
REMARK  Name = ZINC000005510475
REMARK                            x       y       z     vdW  Elec       q    Type
REMARK                         _______ _______ _______ _____ _____    ______ ____
ROOT
ATOM      1  N   LIG    1       -1.137  -2.041   0.002  0.00  0.00    -0.560 N 
ENDROOT
BRANCH   1   2
ATOM      2  C   LIG    1       -1.156  -0.694   0.009  0.00  0.00    +0.560 C 
ATOM      3  S   LIG    1       -2.650   0.142   0.028  0.00  0.00    -0.650 S 
BRANCH   2   5
ATOM      4  C   LIG    1       -0.018   1.461   0.010  0.00  0.00    +0.330 C 
ATOM      5  N   LIG    1        0.002  -0.004   0.002  0.00  0.00    -0.690 N 
ATOM      6  H   LIG    1        0.849  -0.478  -0.009  0.00  0.00    +0.400 HD
ENDBRANCH   2   5
ENDBRANCH   1   2
BRANCH   1   7
ATOM      7  C   LIG    1        0.141  -2.756  -0.014  0.00  0.00    +0.310 C 
BRANCH   7   8
ATOM      8  C   LIG    1        0.600  -3.013   1.423  0.00  0.00    +0.040 C 
BRANCH   8   9
ATOM      9  C   LIG    1        1.915  -3.749   1.406  0.00  0.00    +0.520 C 
ATOM     10  O   LIG    1        2.434  -4.039   0.349  0.00  0.00    -0.540 OA
ATOM     11  N   LIG    1        2.514  -4.084   2.566  0.00  0.00    -0.850 N 
ATOM     12  H   LIG    1        3.361  -4.558   2.555  0.00  0.00    +0.410 HD
ATOM     13  H   LIG    1        2.099  -3.852   3.411  0.00  0.00    +0.400 HD
ENDBRANCH   8   9
ENDBRANCH   7   8
ENDBRANCH   1   7
BRANCH   1  14
ATOM     14  C   LIG    1       -2.396  -2.791   0.010  0.00  0.00    +0.330 C 
BRANCH  14  15
ATOM     15  C   LIG    1       -2.848  -3.044  -1.430  0.00  0.00    +0.180 C 
BRANCH  15  16
ATOM     16  O   LIG    1       -1.905  -3.897  -2.082  0.00  0.00    -0.580 OA
ATOM     17  H   LIG    1       -2.128  -4.100  -3.001  0.00  0.00    +0.380 HD
ENDBRANCH  15  16
ENDBRANCH  14  15
ENDBRANCH   1  14
TORSDOF 8
ENDMDL
MODEL      571
REMARK  Name = ZINC000004593625
REMARK                            x       y       z     vdW  Elec       q    Type
REMARK                         _______ _______ _______ _____ _____    ______ ____
ROOT
ATOM      1  C   LIG    1        0.623  -0.616   1.037  0.00  0.00    +0.580 A 
ATOM      2  N   LIG    1        1.175   0.110   2.003  0.00  0.00    -0.620 NA
ATOM      3  C   LIG    1        1.784  -0.489   3.019  0.00  0.00    +0.400 A 
ATOM      4  N   LIG    1        1.842  -1.813   3.071  0.00  0.00    -0.570 NA
ATOM      5  C   LIG    1        1.290  -2.541   2.103  0.00  0.00    +0.630 A 
ATOM      6  N   LIG    1        0.676  -1.940   1.089  0.00  0.00    -0.600 NA
ENDROOT
BRANCH   5   7
ATOM      7  N   LIG    1        1.350  -3.919   2.156  0.00  0.00    -0.560 N 
ATOM      8  C   LIG    1        2.014  -4.606   3.275  0.00  0.00    +0.290 C 
ATOM      9  C   LIG    1        1.056  -5.670   3.825  0.00  0.00    +0.220 C 
ATOM     10  O   LIG    1        0.604  -6.497   2.751  0.00  0.00    -0.380 OA
ATOM     11  C   LIG    1       -0.144  -5.801   1.751  0.00  0.00    +0.220 C 
ATOM     12  C   LIG    1        0.746  -4.744   1.097  0.00  0.00    +0.280 C 
ENDBRANCH   5   7
BRANCH   3  13
ATOM     13  C   LIG    1        2.401   0.325   4.101  0.00  0.00    +0.590 C 
ATOM     14  O   LIG    1        2.958  -0.223   5.031  0.00  0.00    -0.490 OA
ATOM     15  N   LIG    1        2.341   1.671   4.050  0.00  0.00    -0.820 N 
ATOM     16  H   LIG    1        2.744   2.201   4.755  0.00  0.00    +0.410 HD
ATOM     17  H   LIG    1        1.896   2.108   3.307  0.00  0.00    +0.410 HD
ENDBRANCH   3  13
BRANCH   1  19
ATOM     18  C   LIG    1       -0.017   1.425   0.010  0.00  0.00    +0.290 C 
ATOM     19  O   LIG    1        0.002  -0.004   0.002  0.00  0.00    -0.280 OA
ENDBRANCH   1  19
TORSDOF 3
ENDMDL
MODEL      572
REMARK  Name = ZINC000097056109
REMARK                            x       y       z     vdW  Elec       q    Type
REMARK                         _______ _______ _______ _____ _____    ______ ____
ROOT
ATOM      1  C5M   T A  1       -0.019   1.526   0.010  0.00  0.00    +0.070 C 
ATOM      2  C5    T A  1        0.002  -0.004   0.002  0.00  0.00    +0.000 C 
ATOM      3  C6    T A  1       -1.433  -0.535   0.016  0.00  0.00    +0.310 C 
ATOM      4  N1    T A  1       -2.015  -0.338   1.345  0.00  0.00    -0.610 N 
ATOM      5  C2    T A  1       -1.265  -0.464   2.452  0.00  0.00    +0.720 C 
ATOM      6  N3    T A  1        0.062  -0.662   2.384  0.00  0.00    -0.670 N 
ATOM      7  H3    T A  1        0.547  -0.922   3.183  0.00  0.00    +0.430 HD
ATOM      8  O2    T A  1       -1.800  -0.397   3.541  0.00  0.00    -0.550 OA
ATOM      9  C4    T A  1        0.729  -0.505   1.225  0.00  0.00    +0.530 C 
ATOM     10  O4    T A  1        1.911  -0.766   1.165  0.00  0.00    -0.490 OA
ENDROOT
BRANCH   4  11
ATOM     11  C1*   T A  1       -3.435   0.001   1.469  0.00  0.00    +0.430 C 
ATOM     12  C2*   T A  1       -4.194  -1.105   2.246  0.00  0.00    +0.010 C 
ATOM     13  C3*   T A  1       -5.644  -0.924   1.734  0.00  0.00    +0.160 C 
ATOM     14  C4*   T A  1       -5.482  -0.171   0.400  0.00  0.00    +0.190 C 
ATOM     15  O4*   T A  1       -4.072   0.004   0.173  0.00  0.00    -0.360 OA
BRANCH  13  16
ATOM     16  O3*   T A  1       -6.408  -0.149   2.660  0.00  0.00    -0.560 OA
ATOM     17  H3*   T A  1       -6.492  -0.552   3.535  0.00  0.00    +0.390 HD
ENDBRANCH  13  16
BRANCH  14  18
ATOM     18  C5*   T A  1       -6.099  -0.987  -0.738  0.00  0.00    +0.210 C 
BRANCH  18  19
ATOM     19  O5*   T A  1       -6.048  -0.231  -1.949  0.00  0.00    -0.560 OA
ATOM     20  H5*   T A  1       -6.424  -0.689  -2.714  0.00  0.00    +0.380 HD
ENDBRANCH  18  19
ENDBRANCH  14  18
ENDBRANCH   4  11
TORSDOF 4
ENDMDL
MODEL      573
REMARK  Name = ZINC000006031181
REMARK                            x       y       z     vdW  Elec       q    Type
REMARK                         _______ _______ _______ _____ _____    ______ ____
ROOT
ATOM      1  C5M   T A  1       -0.019   1.526   0.010  0.00  0.00    +0.060 C 
ATOM      2  C5    T A  1        0.002  -0.004   0.002  0.00  0.00    +0.000 C 
ATOM      3  C6    T A  1       -1.433  -0.535   0.016  0.00  0.00    +0.300 C 
ATOM      4  N1    T A  1       -2.015  -0.338   1.345  0.00  0.00    -0.610 N 
ATOM      5  C2    T A  1       -1.265  -0.464   2.452  0.00  0.00    +0.710 C 
ATOM      6  N3    T A  1        0.062  -0.662   2.384  0.00  0.00    -0.680 N 
ATOM      7  H3    T A  1        0.547  -0.922   3.183  0.00  0.00    +0.430 HD
ATOM      8  O2    T A  1       -1.800  -0.397   3.541  0.00  0.00    -0.540 OA
ATOM      9  C4    T A  1        0.729  -0.505   1.225  0.00  0.00    +0.530 C 
ATOM     10  O4    T A  1        1.911  -0.766   1.165  0.00  0.00    -0.500 OA
ENDROOT
BRANCH   4  11
ATOM     11  C1*   T A  1       -3.435   0.001   1.469  0.00  0.00    +0.430 C 
ATOM     12  C2*   T A  1       -4.192  -1.120   2.216  0.00  0.00    +0.000 C 
ATOM     13  C3*   T A  1       -5.226  -0.363   3.080  0.00  0.00    +0.160 C 
ATOM     14  C4*   T A  1       -4.971   1.125   2.752  0.00  0.00    +0.180 C 
ATOM     15  O4*   T A  1       -3.602   1.175   2.293  0.00  0.00    -0.350 OA
BRANCH  13  16
ATOM     16  O3*   T A  1       -6.555  -0.739   2.714  0.00  0.00    -0.560 OA
ATOM     17  H3*   T A  1       -6.748  -1.677   2.844  0.00  0.00    +0.390 HD
ENDBRANCH  13  16
BRANCH  14  18
ATOM     18  C5*   T A  1       -5.147   1.984   4.006  0.00  0.00    +0.210 C 
BRANCH  18  19
ATOM     19  O5*   T A  1       -5.022   3.365   3.659  0.00  0.00    -0.570 OA
ATOM     20  H5*   T A  1       -5.123   3.969   4.407  0.00  0.00    +0.380 HD
ENDBRANCH  18  19
ENDBRANCH  14  18
ENDBRANCH   4  11
TORSDOF 4
ENDMDL
MODEL      574
REMARK  Name = ZINC000108242190
REMARK                            x       y       z     vdW  Elec       q    Type
REMARK                         _______ _______ _______ _____ _____    ______ ____
ROOT
ATOM      1  C   LIG    1       -0.021   1.414  -0.112  0.00  0.00    +0.030 C 
ATOM      2  C   LIG    1        0.188  -0.100  -0.184  0.00  0.00    +0.240 C 
ATOM      3  O   LIG    1        1.148  -0.427  -1.213  0.00  0.00    -0.350 OA
ATOM      4  C   LIG    1        2.432  -0.164  -0.609  0.00  0.00    +0.150 C 
ATOM      5  C   LIG    1        2.186  -0.271   0.910  0.00  0.00    +0.120 C 
ATOM      6  C   LIG    1       -1.142  -0.809  -0.448  0.00  0.00    +0.090 C 
ATOM      7  O   LIG    1        0.784  -0.585   1.038  0.00  0.00    -0.350 OA
ENDROOT
BRANCH   5   8
ATOM      8  C   LIG    1        3.041  -1.389   1.509  0.00  0.00    +0.200 C 
BRANCH   8   9
ATOM      9  O   LIG    1        2.645  -2.644   0.951  0.00  0.00    -0.540 OA
ATOM     10  H   LIG    1        1.720  -2.873   1.115  0.00  0.00    +0.380 HD
ENDBRANCH   8   9
BRANCH   8  11
ATOM     11  C   LIG    1        2.847  -1.422   3.027  0.00  0.00    +0.190 C 
BRANCH  11  12
ATOM     12  O   LIG    1        1.455  -1.546   3.326  0.00  0.00    -0.530 OA
ATOM     13  H   LIG    1        1.046  -2.346   2.968  0.00  0.00    +0.370 HD
ENDBRANCH  11  12
BRANCH  11  14
ATOM     14  C   LIG    1        3.603  -2.616   3.612  0.00  0.00    +0.160 C 
BRANCH  14  15
ATOM     15  O   LIG    1        3.518  -2.581   5.038  0.00  0.00    -0.570 OA
ATOM     16  H   LIG    1        3.977  -3.311   5.477  0.00  0.00    +0.380 HD
ENDBRANCH  14  15
ENDBRANCH  11  14
ENDBRANCH   8  11
ENDBRANCH   5   8
BRANCH   4  17
ATOM     17  C   LIG    1        3.455  -1.209  -1.059  0.00  0.00    +0.210 C 
BRANCH  17  18
ATOM     18  O   LIG    1        3.702  -1.060  -2.459  0.00  0.00    -0.570 OA
ATOM     19  H   LIG    1        4.343  -1.692  -2.814  0.00  0.00    +0.380 HD
ENDBRANCH  17  18
ENDBRANCH   4  17
TORSDOF 8
ENDMDL
MODEL      575
REMARK  Name = ZINC000108242184
REMARK                            x       y       z     vdW  Elec       q    Type
REMARK                         _______ _______ _______ _____ _____    ______ ____
ROOT
ATOM      1  C   LIG    1       -0.018   1.533   0.012  0.00  0.00    +0.030 C 
ATOM      2  C   LIG    1       -0.010   0.005   0.106  0.00  0.00    +0.240 C 
ATOM      3  O   LIG    1        0.737  -0.563  -0.991  0.00  0.00    -0.350 OA
ATOM      4  C   LIG    1        2.119  -0.420  -0.603  0.00  0.00    +0.150 C 
ATOM      5  C   LIG    1        2.092  -0.325   0.936  0.00  0.00    +0.130 C 
ATOM      6  C   LIG    1       -1.442  -0.534   0.115  0.00  0.00    +0.090 C 
ATOM      7  O   LIG    1        0.697  -0.423   1.290  0.00  0.00    -0.360 OA
ENDROOT
BRANCH   5   8
ATOM      8  C   LIG    1        2.882  -1.480   1.554  0.00  0.00    +0.190 C 
BRANCH   8   9
ATOM      9  O   LIG    1        4.266  -1.342   1.224  0.00  0.00    -0.540 OA
ATOM     10  H   LIG    1        4.665  -0.520   1.542  0.00  0.00    +0.380 HD
ENDBRANCH   8   9
BRANCH   8  11
ATOM     11  C   LIG    1        2.715  -1.456   3.075  0.00  0.00    +0.200 C 
BRANCH  11  12
ATOM     12  O   LIG    1        3.096  -0.173   3.575  0.00  0.00    -0.540 OA
ATOM     13  H   LIG    1        4.014   0.067   3.385  0.00  0.00    +0.370 HD
ENDBRANCH  11  12
BRANCH  11  14
ATOM     14  C   LIG    1        3.603  -2.533   3.702  0.00  0.00    +0.170 C 
BRANCH  14  15
ATOM     15  O   LIG    1        3.361  -2.589   5.109  0.00  0.00    -0.570 OA
ATOM     16  H   LIG    1        3.891  -3.252   5.573  0.00  0.00    +0.380 HD
ENDBRANCH  14  15
ENDBRANCH  11  14
ENDBRANCH   8  11
ENDBRANCH   5   8
BRANCH   4  17
ATOM     17  C   LIG    1        2.926  -1.641  -1.049  0.00  0.00    +0.210 C 
BRANCH  17  18
ATOM     18  O   LIG    1        2.917  -1.722  -2.475  0.00  0.00    -0.570 OA
ATOM     19  H   LIG    1        3.411  -2.475  -2.829  0.00  0.00    +0.380 HD
ENDBRANCH  17  18
ENDBRANCH   4  17
TORSDOF 8
ENDMDL
MODEL      576
REMARK  Name = ZINC000108242161
REMARK                            x       y       z     vdW  Elec       q    Type
REMARK                         _______ _______ _______ _____ _____    ______ ____
ROOT
ATOM      1  C   LIG    1       -0.019   1.526   0.010  0.00  0.00    +0.060 C 
ATOM      2  C   LIG    1        0.002  -0.004   0.002  0.00  0.00    +0.240 C 
ATOM      3  O   LIG    1        0.690  -0.483  -1.195  0.00  0.00    -0.320 OA
ATOM      4  C   LIG    1        2.002  -0.648  -0.725  0.00  0.00    +0.100 C 
ATOM      5  C   LIG    1        3.044  -1.592  -1.259  0.00  0.00    +0.190 C 
ATOM      6  O   LIG    1        3.749  -2.095  -0.092  0.00  0.00    -0.380 OA
ATOM      7  C   LIG    1        3.078  -1.615   1.111  0.00  0.00    +0.370 C 
ATOM      8  C   LIG    1        1.665  -1.391   0.630  0.00  0.00    +0.110 C 
ATOM      9  C   LIG    1       -1.430  -0.542   0.029  0.00  0.00    +0.070 C 
ATOM     10  O   LIG    1        0.735  -0.494   1.162  0.00  0.00    -0.350 OA
ENDROOT
BRANCH   7  11
ATOM     11  O   LIG    1        3.112  -2.607   2.139  0.00  0.00    -0.540 OA
ATOM     12  H   LIG    1        4.004  -2.849   2.423  0.00  0.00    +0.390 HD
ENDBRANCH   7  11
BRANCH   5  13
ATOM     13  C   LIG    1        2.377  -2.744  -2.014  0.00  0.00    +0.210 C 
BRANCH  13  14
ATOM     14  O   LIG    1        1.617  -2.222  -3.105  0.00  0.00    -0.530 OA
ATOM     15  H   LIG    1        2.141  -1.726  -3.748  0.00  0.00    +0.370 HD
ENDBRANCH  13  14
BRANCH  13  16
ATOM     16  C   LIG    1        3.452  -3.693  -2.549  0.00  0.00    +0.160 C 
BRANCH  16  17
ATOM     17  O   LIG    1        2.828  -4.828  -3.152  0.00  0.00    -0.560 OA
ATOM     18  H   LIG    1        3.450  -5.473  -3.514  0.00  0.00    +0.380 HD
ENDBRANCH  16  17
ENDBRANCH  13  16
ENDBRANCH   5  13
TORSDOF 5
ENDMDL
MODEL      577
REMARK  Name = ZINC000108242165
REMARK                            x       y       z     vdW  Elec       q    Type
REMARK                         _______ _______ _______ _____ _____    ______ ____
ROOT
ATOM      1  C   LIG    1       -0.019   1.526   0.010  0.00  0.00    +0.060 C 
ATOM      2  C   LIG    1        0.002  -0.004   0.002  0.00  0.00    +0.250 C 
ATOM      3  O   LIG    1        0.690  -0.483  -1.195  0.00  0.00    -0.330 OA
ATOM      4  C   LIG    1        2.002  -0.648  -0.725  0.00  0.00    +0.100 C 
ATOM      5  C   LIG    1        3.044  -1.592  -1.259  0.00  0.00    +0.200 C 
ATOM      6  O   LIG    1        3.749  -2.095  -0.092  0.00  0.00    -0.380 OA
ATOM      7  C   LIG    1        3.078  -1.615   1.111  0.00  0.00    +0.360 C 
ATOM      8  C   LIG    1        1.665  -1.391   0.630  0.00  0.00    +0.120 C 
ATOM      9  C   LIG    1       -1.430  -0.542   0.029  0.00  0.00    +0.070 C 
ATOM     10  O   LIG    1        0.735  -0.494   1.162  0.00  0.00    -0.350 OA
ENDROOT
BRANCH   7  11
ATOM     11  O   LIG    1        3.112  -2.607   2.139  0.00  0.00    -0.540 OA
ATOM     12  H   LIG    1        4.004  -2.849   2.423  0.00  0.00    +0.390 HD
ENDBRANCH   7  11
BRANCH   5  13
ATOM     13  C   LIG    1        2.377  -2.744  -2.014  0.00  0.00    +0.220 C 
BRANCH  13  14
ATOM     14  O   LIG    1        1.426  -3.385  -1.161  0.00  0.00    -0.540 OA
ATOM     15  H   LIG    1        1.808  -3.755  -0.354  0.00  0.00    +0.370 HD
ENDBRANCH  13  14
BRANCH  13  16
ATOM     16  C   LIG    1        3.442  -3.757  -2.442  0.00  0.00    +0.170 C 
BRANCH  16  17
ATOM     17  O   LIG    1        2.837  -4.772  -3.245  0.00  0.00    -0.560 OA
ATOM     18  H   LIG    1        3.454  -5.450  -3.553  0.00  0.00    +0.380 HD
ENDBRANCH  16  17
ENDBRANCH  13  16
ENDBRANCH   5  13
TORSDOF 5
ENDMDL
MODEL      578
REMARK  Name = ZINC000004543569
REMARK                            x       y       z     vdW  Elec       q    Type
REMARK                         _______ _______ _______ _____ _____    ______ ____
ROOT
ATOM      1  C5M   T A  1       -0.019   1.526   0.010  0.00  0.00    +0.060 C 
ATOM      2  C5    T A  1        0.002  -0.004   0.002  0.00  0.00    +0.000 C 
ATOM      3  C6    T A  1       -1.433  -0.535   0.016  0.00  0.00    +0.300 C 
ATOM      4  N1    T A  1       -2.015  -0.338   1.345  0.00  0.00    -0.610 N 
ATOM      5  C2    T A  1       -1.265  -0.464   2.452  0.00  0.00    +0.710 C 
ATOM      6  N3    T A  1        0.062  -0.662   2.384  0.00  0.00    -0.680 N 
ATOM      7  H3    T A  1        0.547  -0.922   3.183  0.00  0.00    +0.430 HD
ATOM      8  O2    T A  1       -1.800  -0.397   3.541  0.00  0.00    -0.540 OA
ATOM      9  C4    T A  1        0.729  -0.505   1.225  0.00  0.00    +0.530 C 
ATOM     10  O4    T A  1        1.911  -0.766   1.165  0.00  0.00    -0.500 OA
ENDROOT
BRANCH   4  11
ATOM     11  C1*   T A  1       -3.435   0.001   1.469  0.00  0.00    +0.430 C 
ATOM     12  C2*   T A  1       -4.193  -1.126   2.215  0.00  0.00    -0.000 C 
ATOM     13  C3*   T A  1       -5.402  -0.337   2.789  0.00  0.00    +0.170 C 
ATOM     14  C4*   T A  1       -4.779   1.043   3.089  0.00  0.00    +0.200 C 
ATOM     15  O4*   T A  1       -3.599   1.171   2.286  0.00  0.00    -0.360 OA
BRANCH  13  16
ATOM     16  O3*   T A  1       -6.446  -0.229   1.819  0.00  0.00    -0.560 OA
ATOM     17  H3*   T A  1       -6.808  -1.079   1.536  0.00  0.00    +0.390 HD
ENDBRANCH  13  16
BRANCH  14  18
ATOM     18  C5*   T A  1       -5.773   2.150   2.731  0.00  0.00    +0.200 C 
BRANCH  18  19
ATOM     19  O5*   T A  1       -5.237   3.416   3.119  0.00  0.00    -0.570 OA
ATOM     20  H5*   T A  1       -5.815   4.165   2.921  0.00  0.00    +0.380 HD
ENDBRANCH  18  19
ENDBRANCH  14  18
ENDBRANCH   4  11
TORSDOF 4
ENDMDL
MODEL      579
REMARK  Name = ZINC000072221072
REMARK                            x       y       z     vdW  Elec       q    Type
REMARK                         _______ _______ _______ _____ _____    ______ ____
ROOT
ATOM      1  O   LIG    1        0.002  -0.004   0.002  0.00  0.00    -0.520 OA
ATOM      2  C   LIG    1       -0.014   1.212   0.009  0.00  0.00    +0.730 A 
ATOM      3  N   LIG    1       -1.201   1.844   0.029  0.00  0.00    -0.620 N 
ATOM      4  H   LIG    1       -2.020   1.325   0.038  0.00  0.00    +0.440 HD
ATOM      5  C   LIG    1       -1.268   3.219   0.037  0.00  0.00    +0.320 A 
ATOM      6  C   LIG    1       -0.088   3.957   0.025  0.00  0.00    -0.140 A 
ATOM      7  C   LIG    1        1.185   3.225   0.004  0.00  0.00    +0.600 A 
ATOM      8  O   LIG    1        2.246   3.822  -0.007  0.00  0.00    -0.470 OA
ATOM      9  N   LIG    1       -0.411   5.259   0.036  0.00  0.00    -0.140 NA
ATOM     10  N   LIG    1       -1.693   5.387   0.054  0.00  0.00    -0.020 NA
ATOM     11  N   LIG    1       -2.278   4.112   0.056  0.00  0.00    -0.350 N 
ATOM     12  N   LIG    1        1.153   1.875   0.001  0.00  0.00    -0.650 N 
ATOM     13  H   LIG    1        1.986   1.378  -0.012  0.00  0.00    +0.450 HD
ENDROOT
BRANCH  11  14
ATOM     14  C   LIG    1       -3.711   3.809   0.073  0.00  0.00    +0.360 C 
BRANCH  14  15
ATOM     15  C   LIG    1       -4.229   3.711  -1.364  0.00  0.00    +0.140 C 
ATOM     16  C   LIG    1       -5.723   3.302  -1.370  0.00  0.00    +0.030 C 
ATOM     17  C   LIG    1       -6.181   3.877  -2.738  0.00  0.00    +0.020 C 
ATOM     18  C   LIG    1       -5.324   5.156  -2.858  0.00  0.00    +0.200 C 
ATOM     19  O   LIG    1       -4.188   4.999  -1.997  0.00  0.00    -0.370 OA
ENDBRANCH  14  15
ENDBRANCH  11  14
TORSDOF 2
ENDMDL
MODEL      580
REMARK  Name = ZINC000012358811
REMARK                            x       y       z     vdW  Elec       q    Type
REMARK                         _______ _______ _______ _____ _____    ______ ____
ROOT
ATOM      1  C   LIG    1        0.015   1.524   0.223  0.00  0.00    +0.030 C 
ATOM      2  C   LIG    1        0.037  -0.006   0.215  0.00  0.00    +0.270 C 
ATOM      3  O   LIG    1        0.507  -0.469  -1.052  0.00  0.00    -0.380 OA
ATOM      4  C   LIG    1        1.816  -0.007  -1.393  0.00  0.00    +0.160 C 
ATOM      5  C   LIG    1        2.821  -0.510  -0.354  0.00  0.00    +0.080 C 
ATOM      6  C   LIG    1        2.394  -0.022   1.034  0.00  0.00    +0.170 C 
ATOM      7  C   LIG    1        3.348  -0.586   2.090  0.00  0.00    +0.050 C 
ATOM      8  C   LIG    1        2.851  -2.040  -0.371  0.00  0.00    +0.040 C 
ATOM      9  C   LIG    1        0.970  -0.509   1.319  0.00  0.00    +0.150 C 
ATOM     10  C   LIG    1        0.504   0.037   2.671  0.00  0.00    +0.040 C 
ENDROOT
BRANCH   6  11
ATOM     11  O   LIG    1        2.430   1.406   1.071  0.00  0.00    -0.550 OA
ATOM     12  H   LIG    1        3.303   1.782   0.892  0.00  0.00    +0.390 HD
ENDBRANCH   6  11
BRANCH   5  13
ATOM     13  O   LIG    1        4.121  -0.003  -0.661  0.00  0.00    -0.550 OA
ATOM     14  H   LIG    1        4.452  -0.270  -1.530  0.00  0.00    +0.380 HD
ENDBRANCH   5  13
BRANCH   2  15
ATOM     15  O   LIG    1       -1.283  -0.502   0.444  0.00  0.00    -0.540 OA
ATOM     16  H   LIG    1       -1.929  -0.223  -0.219  0.00  0.00    +0.390 HD
ENDBRANCH   2  15
BRANCH   9  17
ATOM     17  O   LIG    1        0.950  -1.937   1.348  0.00  0.00    -0.540 OA
ATOM     18  H   LIG    1        0.077  -2.315   1.524  0.00  0.00    +0.390 HD
ENDBRANCH   9  17
BRANCH   4  19
ATOM     19  C   LIG    1        2.201  -0.540  -2.775  0.00  0.00    +0.200 C 
BRANCH  19  20
ATOM     20  O   LIG    1        1.333   0.021  -3.761  0.00  0.00    -0.560 OA
ATOM     21  H   LIG    1        1.519  -0.273  -4.663  0.00  0.00    +0.380 HD
ENDBRANCH  19  20
ENDBRANCH   4  19
TORSDOF 6
ENDMDL
MODEL      581
REMARK  Name = ZINC000006862761
REMARK                            x       y       z     vdW  Elec       q    Type
REMARK                         _______ _______ _______ _____ _____    ______ ____
ROOT
ATOM      1  C   LIG    1       -1.137  -2.084   0.002  0.00  0.00    +0.270 A 
ATOM      2  N   LIG    1       -0.076  -2.838  -0.007  0.00  0.00    -0.210 NA
ATOM      3  N   LIG    1       -0.245  -4.087  -0.012  0.00  0.00    -0.110 NA
ATOM      4  C   LIG    1       -1.460  -4.534  -0.009  0.00  0.00    -0.580 A 
ATOM      5  S   LIG    1       -2.548  -3.144   0.009  0.00  0.00    +0.190 S 
ENDROOT
BRANCH   4   6
ATOM      6  S   LIG    1       -1.941  -6.229  -0.015  0.00  0.00    +2.730 S 
ATOM      7  O   LIG    1       -0.851  -6.954  -0.568  0.00  0.00    -0.920 OA
ATOM      8  O   LIG    1       -3.256  -6.271  -0.554  0.00  0.00    -0.940 OA
BRANCH   6   9
ATOM      9  N   LIG    1       -2.068  -6.708   1.565  0.00  0.00    -1.240 NA
ATOM     10  H   LIG    1       -1.510  -6.295   2.243  0.00  0.00    +0.420 HD
ATOM     11  H   LIG    1       -2.700  -7.401   1.812  0.00  0.00    +0.430 HD
ENDBRANCH   6   9
ENDBRANCH   4   6
BRANCH   1  12
ATOM     12  N   LIG    1       -1.156  -0.694   0.009  0.00  0.00    -0.590 N 
ATOM     13  H   LIG    1       -2.002  -0.220   0.020  0.00  0.00    +0.420 HD
BRANCH  12  14
ATOM     14  C   LIG    1        0.002  -0.004   0.002  0.00  0.00    +0.530 C 
ATOM     15  S   LIG    1        1.496  -0.840  -0.017  0.00  0.00    -0.470 S 
BRANCH  14  16
ATOM     16  N   LIG    1       -0.016   1.344   0.009  0.00  0.00    -0.790 N 
ATOM     17  H   LIG    1       -0.863   1.817   0.016  0.00  0.00    +0.400 HD
ATOM     18  H   LIG    1        0.817   1.840   0.004  0.00  0.00    +0.440 HD
ENDBRANCH  14  16
ENDBRANCH  12  14
ENDBRANCH   1  12
TORSDOF 5
ENDMDL
MODEL      582
REMARK  Name = ZINC000036632795
REMARK                            x       y       z     vdW  Elec       q    Type
REMARK                         _______ _______ _______ _____ _____    ______ ____
ROOT
ATOM      1  C   LIG    1        2.450  -4.292  -1.468  0.00  0.00    +0.220 C 
ATOM      2  C   LIG    1        2.273  -5.475  -2.107  0.00  0.00    -0.110 C 
ENDROOT
BRANCH   1   5
ATOM      3  N   LIG    1        1.767  -2.762   0.324  0.00  0.00    -0.720 N 
ATOM      4  H   LIG    1        2.456  -2.148   0.025  0.00  0.00    +0.400 HD
ATOM      5  C   LIG    1        1.591  -3.938  -0.311  0.00  0.00    +0.550 C 
ATOM      6  O   LIG    1        0.729  -4.707   0.063  0.00  0.00    -0.500 OA
BRANCH   3   7
ATOM      7  C   LIG    1        0.919  -2.412   1.466  0.00  0.00    +0.290 C 
BRANCH   7   8
ATOM      8  C   LIG    1        1.324  -1.037   1.999  0.00  0.00    +0.170 C 
BRANCH   8  10
ATOM      9  C   LIG    1        1.396   1.285   1.408  0.00  0.00    +0.200 C 
ATOM     10  O   LIG    1        1.053  -0.043   1.009  0.00  0.00    -0.390 OA
ENDBRANCH   8  10
ENDBRANCH   7   8
ENDBRANCH   3   7
ENDBRANCH   1   5
BRANCH   1  11
ATOM     11  N   LIG    1        3.427  -3.420  -1.892  0.00  0.00    -0.830 N 
ATOM     12  H   LIG    1        4.128  -3.729  -2.488  0.00  0.00    +0.420 HD
ATOM     13  H   LIG    1        3.416  -2.497  -1.595  0.00  0.00    +0.390 HD
ENDBRANCH   1  11
BRANCH   2  14
ATOM     14  C   LIG    1        2.989  -5.747  -3.353  0.00  0.00    +0.510 C 
ATOM     15  O   LIG    1        3.657  -4.875  -3.873  0.00  0.00    -0.530 OA
BRANCH  14  16
ATOM     16  O   LIG    1        2.907  -6.966  -3.925  0.00  0.00    -0.350 OA
ATOM     17  C   LIG    1        3.632  -7.162  -5.141  0.00  0.00    +0.250 C 
ENDBRANCH  14  16
ENDBRANCH   2  14
TORSDOF 7
ENDMDL
MODEL      583
REMARK  Name = ZINC000072221073
REMARK                            x       y       z     vdW  Elec       q    Type
REMARK                         _______ _______ _______ _____ _____    ______ ____
ROOT
ATOM      1  O   LIG    1        0.002  -0.004   0.002  0.00  0.00    -0.520 OA
ATOM      2  C   LIG    1       -0.014   1.212   0.009  0.00  0.00    +0.730 A 
ATOM      3  N   LIG    1       -1.201   1.844   0.029  0.00  0.00    -0.610 N 
ATOM      4  H   LIG    1       -2.020   1.325   0.038  0.00  0.00    +0.440 HD
ATOM      5  C   LIG    1       -1.268   3.219   0.037  0.00  0.00    +0.340 A 
ATOM      6  C   LIG    1       -0.088   3.957   0.025  0.00  0.00    -0.140 A 
ATOM      7  C   LIG    1        1.185   3.225   0.004  0.00  0.00    +0.610 A 
ATOM      8  O   LIG    1        2.246   3.822  -0.007  0.00  0.00    -0.470 OA
ATOM      9  N   LIG    1       -0.411   5.259   0.036  0.00  0.00    -0.140 NA
ATOM     10  N   LIG    1       -1.693   5.387   0.054  0.00  0.00    -0.040 NA
ATOM     11  N   LIG    1       -2.278   4.112   0.056  0.00  0.00    -0.360 N 
ATOM     12  N   LIG    1        1.153   1.875   0.001  0.00  0.00    -0.650 N 
ATOM     13  H   LIG    1        1.986   1.378  -0.012  0.00  0.00    +0.450 HD
ENDROOT
BRANCH  11  14
ATOM     14  C   LIG    1       -3.711   3.809   0.073  0.00  0.00    +0.350 C 
BRANCH  14  15
ATOM     15  C   LIG    1       -4.229   3.711  -1.364  0.00  0.00    +0.160 C 
ATOM     16  C   LIG    1       -5.760   3.512  -1.356  0.00  0.00    +0.030 C 
ATOM     17  C   LIG    1       -5.966   2.494  -2.511  0.00  0.00    +0.010 C 
ATOM     18  C   LIG    1       -4.677   1.644  -2.387  0.00  0.00    +0.210 C 
ATOM     19  O   LIG    1       -3.646   2.575  -2.014  0.00  0.00    -0.380 OA
ENDBRANCH  14  15
ENDBRANCH  11  14
TORSDOF 2
ENDMDL
MODEL      584
REMARK  Name = ZINC000002563304
REMARK                            x       y       z     vdW  Elec       q    Type
REMARK                         _______ _______ _______ _____ _____    ______ ____
ROOT
ATOM      1  N   LEU A  3       -1.486  -0.796  -2.418  0.00  0.00    -0.680 N 
ATOM      2  H   LEU A  3       -1.002  -1.625  -2.281  0.00  0.00    +0.400 HD
ATOM      3  C   GLY A  2       -1.560  -0.254  -3.650  0.00  0.00    +0.500 C 
ATOM      4  O   GLY A  2       -2.164   0.783  -3.821  0.00  0.00    -0.550 OA
ENDROOT
BRANCH   1   5
ATOM      5  CA  LEU A  3       -2.135  -0.131  -1.286  0.00  0.00    +0.160 C 
BRANCH   5   6
ATOM      6  C   LEU A  3       -3.583  -0.545  -1.223  0.00  0.00    +0.490 C 
ATOM      7  OXT LEU A  3       -3.987  -1.455  -1.927  0.00  0.00    -0.690 OA
ATOM      8  O   LEU A  3       -4.349   0.029  -0.469  0.00  0.00    -0.690 OA
ENDBRANCH   5   6
BRANCH   5   9
ATOM      9  CB  LEU A  3       -1.433  -0.534   0.013  0.00  0.00    +0.030 C 
BRANCH   9  11
ATOM     10  CD1 LEU A  3       -0.019   1.526   0.010  0.00  0.00    +0.020 C 
ATOM     11  CG  LEU A  3        0.002  -0.004   0.002  0.00  0.00    -0.030 C 
ATOM     12  CD2 LEU A  3        0.742  -0.511   1.242  0.00  0.00    +0.010 C 
ENDBRANCH   9  11
ENDBRANCH   5   9
ENDBRANCH   1   5
BRANCH   3  13
ATOM     13  CA  GLY A  2       -0.891  -0.938  -4.815  0.00  0.00    +0.320 C 
BRANCH  13  14
ATOM     14  N   GLY A  2       -1.116  -0.157  -6.034  0.00  0.00    -0.680 N 
ATOM     15  H   GLY A  2       -1.631   0.664  -5.996  0.00  0.00    +0.420 HD
ATOM     16  C   GLY A  1       -0.607  -0.579  -7.208  0.00  0.00    +0.490 C 
ATOM     17  O   GLY A  1        0.037  -1.605  -7.256  0.00  0.00    -0.540 OA
BRANCH  16  18
ATOM     18  CA  GLY A  1       -0.838   0.225  -8.462  0.00  0.00    +0.300 C 
BRANCH  18  19
ATOM     19  N   GLY A  1       -0.186  -0.442  -9.598  0.00  0.00    -0.620 N 
ATOM     20  H1  GLY A  1       -0.575  -1.365  -9.714  0.00  0.00    +0.440 HD
ATOM     21  H2  GLY A  1        0.805  -0.514  -9.422  0.00  0.00    +0.440 HD
ATOM     22  H3  GLY A  1       -0.341   0.096 -10.437  0.00  0.00    +0.440 HD
ENDBRANCH  18  19
ENDBRANCH  16  18
ENDBRANCH  13  14
ENDBRANCH   3  13
TORSDOF 8
ENDMDL
MODEL      585
REMARK  Name = ZINC000026831208
REMARK                            x       y       z     vdW  Elec       q    Type
REMARK                         _______ _______ _______ _____ _____    ______ ____
ROOT
ATOM      1  C   LIG    1       -1.136  -2.159   0.001  0.00  0.00    +0.380 C 
ATOM      2  O   LIG    1       -1.260  -2.630  -1.342  0.00  0.00    -0.370 OA
ATOM      3  C   LIG    1       -1.226  -4.053  -1.467  0.00  0.00    +0.210 C 
ATOM      4  C   LIG    1       -2.398  -4.660  -0.691  0.00  0.00    +0.170 C 
ATOM      5  C   LIG    1       -2.312  -4.220   0.774  0.00  0.00    +0.160 C 
ATOM      6  C   LIG    1       -2.304  -2.690   0.837  0.00  0.00    +0.120 C 
ENDROOT
BRANCH   1   9
ATOM      7  C   LIG    1       -0.018   1.503   0.010  0.00  0.00    +0.110 C 
ATOM      8  C   LIG    1        0.002  -0.004   0.002  0.00  0.00    +0.520 C 
ATOM      9  N   LIG    1       -1.156  -0.694   0.009  0.00  0.00    -0.720 N 
ATOM     10  H   LIG    1       -2.002  -0.220   0.020  0.00  0.00    +0.400 HD
ATOM     11  O   LIG    1        1.060  -0.596  -0.011  0.00  0.00    -0.530 OA
ENDBRANCH   1   9
BRANCH   5  12
ATOM     12  O   LIG    1       -1.111  -4.730   1.357  0.00  0.00    -0.550 OA
ATOM     13  H   LIG    1       -0.991  -4.490   2.286  0.00  0.00    +0.390 HD
ENDBRANCH   5  12
BRANCH   4  14
ATOM     14  O   LIG    1       -3.630  -4.207  -1.255  0.00  0.00    -0.530 OA
ATOM     15  H   LIG    1       -4.416  -4.554  -0.811  0.00  0.00    +0.380 HD
ENDBRANCH   4  14
BRANCH   6  16
ATOM     16  O   LIG    1       -3.534  -2.184   0.316  0.00  0.00    -0.530 OA
ATOM     17  H   LIG    1       -3.598  -1.219   0.325  0.00  0.00    +0.370 HD
ENDBRANCH   6  16
BRANCH   3  18
ATOM     18  C   LIG    1       -1.338  -4.438  -2.943  0.00  0.00    +0.210 C 
BRANCH  18  19
ATOM     19  O   LIG    1       -0.186  -3.969  -3.647  0.00  0.00    -0.570 OA
ATOM     20  H   LIG    1       -0.189  -4.179  -4.591  0.00  0.00    +0.380 HD
ENDBRANCH  18  19
ENDBRANCH   3  18
TORSDOF 6
ENDMDL
MODEL      586
REMARK  Name = ZINC000022606405
REMARK                            x       y       z     vdW  Elec       q    Type
REMARK                         _______ _______ _______ _____ _____    ______ ____
ROOT
ATOM      1  N   LIG    1        1.401  -2.532  -0.162  0.00  0.00    -0.720 N 
ATOM      2  H   LIG    1        1.835  -1.870  -0.723  0.00  0.00    +0.410 HD
ATOM      3  C   LIG    1        1.505  -3.841  -0.462  0.00  0.00    +0.490 C 
ATOM      4  O   LIG    1        0.963  -4.669   0.239  0.00  0.00    -0.530 OA
ENDROOT
BRANCH   1   5
ATOM      5  C   LIG    1        0.633  -2.108   1.011  0.00  0.00    +0.280 C 
BRANCH   5   6
ATOM      6  C   LIG    1        0.673  -0.582   1.123  0.00  0.00    +0.180 C 
BRANCH   6   8
ATOM      7  C   LIG    1       -0.017   1.425   0.010  0.00  0.00    +0.200 C 
ATOM      8  O   LIG    1        0.002  -0.004   0.002  0.00  0.00    -0.390 OA
ENDBRANCH   6   8
ENDBRANCH   5   6
ENDBRANCH   1   5
BRANCH   3   9
ATOM      9  C   LIG    1        2.296  -4.277  -1.669  0.00  0.00    +0.350 C 
BRANCH   9  10
ATOM     10  N   LIG    1        2.257  -5.738  -1.776  0.00  0.00    -0.980 NA
ATOM     11  C   LIG    1        1.133  -6.393  -2.451  0.00  0.00    +0.300 C 
BRANCH  10  12
ATOM     12  S   LIG    1        3.483  -6.649  -1.136  0.00  0.00    +2.610 S 
ATOM     13  O   LIG    1        4.607  -5.779  -1.145  0.00  0.00    -0.960 OA
ATOM     14  O   LIG    1        3.474  -7.842  -1.908  0.00  0.00    -0.950 OA
ATOM     15  C   LIG    1        2.954  -6.987   0.566  0.00  0.00    -0.280 C 
ENDBRANCH  10  12
ENDBRANCH   9  10
ENDBRANCH   3   9
TORSDOF 6
ENDMDL
MODEL      587
REMARK  Name = ZINC000022585655
REMARK                            x       y       z     vdW  Elec       q    Type
REMARK                         _______ _______ _______ _____ _____    ______ ____
ROOT
ATOM      1  N   LIG    1       -3.744  -2.439  -0.187  0.00  0.00    -0.730 N 
ATOM      2  H   LIG    1       -3.347  -1.877  -0.871  0.00  0.00    +0.400 HD
ATOM      3  C   LIG    1       -3.440  -3.751  -0.133  0.00  0.00    +0.510 C 
ATOM      4  O   LIG    1       -3.937  -4.454   0.722  0.00  0.00    -0.520 OA
ENDROOT
BRANCH   1   5
ATOM      5  C   LIG    1       -4.674  -1.862   0.786  0.00  0.00    +0.280 C 
BRANCH   5   6
ATOM      6  C   LIG    1       -4.845  -0.368   0.504  0.00  0.00    +0.180 C 
BRANCH   6   8
ATOM      7  C   LIG    1       -5.679   1.175  -1.129  0.00  0.00    +0.200 C 
ATOM      8  O   LIG    1       -5.472  -0.192  -0.768  0.00  0.00    -0.390 OA
ENDBRANCH   6   8
ENDBRANCH   5   6
ENDBRANCH   1   5
BRANCH   3   9
ATOM      9  C   LIG    1       -2.484  -4.345  -1.134  0.00  0.00    +0.210 C 
BRANCH   9  10
ATOM     10  N   LIG    1       -2.433  -5.803  -0.959  0.00  0.00    -0.520 NA
ATOM     11  C   LIG    1       -1.341  -6.391  -1.746  0.00  0.00    +0.180 C 
ATOM     12  C   LIG    1       -1.272  -7.896  -1.475  0.00  0.00    +0.180 C 
ATOM     13  N   LIG    1       -2.560  -8.513  -1.822  0.00  0.00    -0.550 NA
ATOM     14  C   LIG    1       -3.652  -7.925  -1.034  0.00  0.00    +0.190 C 
ATOM     15  C   LIG    1       -2.510  -9.970  -1.646  0.00  0.00    +0.190 C 
ATOM     16  C   LIG    1       -3.721  -6.420  -1.306  0.00  0.00    +0.180 C 
ENDBRANCH   9  10
ENDBRANCH   3   9
TORSDOF 5
ENDMDL
MODEL      588
REMARK  Name = ZINC000028769330
REMARK                            x       y       z     vdW  Elec       q    Type
REMARK                         _______ _______ _______ _____ _____    ______ ____
ROOT
ATOM      1  C1* LIG    1        2.392   1.108  -0.021  0.00  0.00    +0.440 C 
ATOM      2  O4* LIG    1        2.363   0.126  -1.079  0.00  0.00    -0.340 OA
ATOM      3  C4* LIG    1        3.325  -0.887  -0.739  0.00  0.00    +0.150 C 
ATOM      4  C3* LIG    1        3.462  -0.890   0.796  0.00  0.00    +0.130 C 
ATOM      5  C2* LIG    1        2.529   0.254   1.266  0.00  0.00    +0.160 C 
ENDROOT
BRANCH   1  13
ATOM      6  O   LIG    1        0.002  -0.004   0.002  0.00  0.00    -0.520 OA
ATOM      7  C   LIG    1       -0.014   1.212   0.009  0.00  0.00    +0.710 C 
ATOM      8  N   LIG    1       -1.201   1.852   0.029  0.00  0.00    -0.740 N 
ATOM      9  H   LIG    1       -2.034   1.354   0.038  0.00  0.00    +0.420 HD
ATOM     10  C   LIG    1       -1.201   3.324   0.037  0.00  0.00    +0.280 C 
ATOM     11  C   LIG    1        0.146   4.016   0.022  0.00  0.00    -0.080 C 
ATOM     12  C   LIG    1        1.231   3.263   0.003  0.00  0.00    +0.240 C 
ATOM     13  N   LIG    1        1.147   1.879   0.001  0.00  0.00    -0.550 N 
ENDBRANCH   1  13
BRANCH   4  14
ATOM     14  O3* LIG    1        4.813  -0.620   1.178  0.00  0.00    -0.550 OA
ATOM     15  H3* LIG    1        5.450  -1.276   0.860  0.00  0.00    +0.390 HD
ENDBRANCH   4  14
BRANCH   5  16
ATOM     16  O2* LIG    1        1.258  -0.258   1.671  0.00  0.00    -0.500 OA
ATOM     17  H2* LIG    1        1.301  -0.873   2.417  0.00  0.00    +0.370 HD
ENDBRANCH   5  16
BRANCH   3  18
ATOM     18  C5* LIG    1        2.835  -2.253  -1.223  0.00  0.00    +0.200 C 
BRANCH  18  19
ATOM     19  O5* LIG    1        2.808  -2.271  -2.651  0.00  0.00    -0.560 OA
ATOM     20  H5* LIG    1        2.506  -3.108  -3.029  0.00  0.00    +0.380 HD
ENDBRANCH  18  19
ENDBRANCH   3  18
TORSDOF 5
ENDMDL
MODEL      589
REMARK  Name = ZINC000217370996
REMARK                            x       y       z     vdW  Elec       q    Type
REMARK                         _______ _______ _______ _____ _____    ______ ____
ROOT
ATOM      1  O   LIG    1       -0.113   0.051   0.034  0.00  0.00    -0.930 OA
ATOM      2  S   LIG    1       -0.101   1.472   0.064  0.00  0.00    +2.380 S 
ATOM      3  C   LIG    1       -0.405   2.055   1.780  0.00  0.00    -0.340 C 
ATOM      4  C   LIG    1        0.406   3.377   1.797  0.00  0.00    +0.200 C 
ATOM      5  C   LIG    1        1.738   3.144   1.080  0.00  0.00    +0.230 C 
ATOM      6  O   LIG    1       -0.906   2.211  -0.845  0.00  0.00    -0.930 OA
ATOM      7  C   LIG    1        1.628   2.074  -0.017  0.00  0.00    -0.320 C 
ENDROOT
BRANCH   5   8
ATOM      8  N   LIG    1        2.177   4.405   0.469  0.00  0.00    -0.510 NA
ATOM      9  C   LIG    1        1.297   4.784  -0.660  0.00  0.00    +0.150 C 
ATOM     10  C   LIG    1        2.272   5.418  -1.684  0.00  0.00    +0.230 C 
ATOM     11  N   LIG    1        3.488   4.577  -1.520  0.00  0.00    -0.700 NA
ATOM     12  H   LIG    1        3.415   3.727  -2.059  0.00  0.00    +0.340 HD
ATOM     13  C   LIG    1        3.545   4.283  -0.071  0.00  0.00    +0.520 C 
BRANCH  13  14
ATOM     14  O   LIG    1        4.029   2.954   0.134  0.00  0.00    -0.580 OA
ATOM     15  H   LIG    1        4.924   2.805  -0.201  0.00  0.00    +0.390 HD
ENDBRANCH  13  14
ENDBRANCH   5   8
BRANCH   4  16
ATOM     16  O   LIG    1        0.654   3.772   3.148  0.00  0.00    -0.540 OA
ATOM     17  H   LIG    1       -0.148   3.947   3.660  0.00  0.00    +0.390 HD
ENDBRANCH   4  16
TORSDOF 3
ENDMDL
MODEL      590
REMARK  Name = ZINC000217371069
REMARK                            x       y       z     vdW  Elec       q    Type
REMARK                         _______ _______ _______ _____ _____    ______ ____
ROOT
ATOM      1  O   LIG    1        0.077  -0.049  -0.048  0.00  0.00    -0.930 OA
ATOM      2  S   LIG    1        0.104   1.369  -0.142  0.00  0.00    +2.390 S 
ATOM      3  C   LIG    1       -0.384   2.109   1.469  0.00  0.00    -0.330 C 
ATOM      4  C   LIG    1        0.894   1.956   2.318  0.00  0.00    +0.220 C 
ATOM      5  C   LIG    1        2.152   1.876   1.460  0.00  0.00    +0.180 C 
ATOM      6  O   LIG    1       -0.576   2.029  -1.201  0.00  0.00    -0.930 OA
ATOM      7  C   LIG    1        1.839   1.968  -0.047  0.00  0.00    -0.300 C 
ENDROOT
BRANCH   5   8
ATOM      8  N   LIG    1        3.049   2.980   1.826  0.00  0.00    -0.490 NA
ATOM      9  C   LIG    1        4.164   3.101   0.858  0.00  0.00    +0.150 C 
ATOM     10  C   LIG    1        5.369   3.508   1.742  0.00  0.00    +0.230 C 
ATOM     11  N   LIG    1        5.121   2.730   2.986  0.00  0.00    -0.700 NA
ATOM     12  H   LIG    1        5.460   1.784   2.894  0.00  0.00    +0.340 HD
ATOM     13  C   LIG    1        3.652   2.754   3.154  0.00  0.00    +0.530 C 
BRANCH  13  14
ATOM     14  O   LIG    1        3.205   1.503   3.682  0.00  0.00    -0.590 OA
ATOM     15  H   LIG    1        3.567   1.293   4.553  0.00  0.00    +0.390 HD
ENDBRANCH  13  14
ENDBRANCH   5   8
BRANCH   4  16
ATOM     16  O   LIG    1        1.005   3.078   3.195  0.00  0.00    -0.530 OA
ATOM     17  H   LIG    1        0.272   3.163   3.820  0.00  0.00    +0.380 HD
ENDBRANCH   4  16
TORSDOF 3
ENDMDL
MODEL      591
REMARK  Name = ZINC000217370920
REMARK                            x       y       z     vdW  Elec       q    Type
REMARK                         _______ _______ _______ _____ _____    ______ ____
ROOT
ATOM      1  O   LIG    1       -0.016  -0.016   0.054  0.00  0.00    -0.930 OA
ATOM      2  S   LIG    1       -0.027   1.405   0.037  0.00  0.00    +2.400 S 
ATOM      3  C   LIG    1       -0.464   2.029   1.704  0.00  0.00    -0.350 C 
ATOM      4  C   LIG    1        0.921   2.164   2.387  0.00  0.00    +0.200 C 
ATOM      5  C   LIG    1        1.869   2.779   1.343  0.00  0.00    +0.180 C 
ATOM      6  O   LIG    1       -0.791   2.095  -0.942  0.00  0.00    -0.930 OA
ATOM      7  C   LIG    1        1.694   2.024   0.010  0.00  0.00    -0.260 C 
ENDROOT
BRANCH   5   8
ATOM      8  N   LIG    1        3.259   2.652   1.800  0.00  0.00    -0.520 NA
ATOM      9  C   LIG    1        3.432   3.249   3.146  0.00  0.00    +0.190 C 
ATOM     10  C   LIG    1        4.844   3.882   3.083  0.00  0.00    +0.210 C 
ATOM     11  N   LIG    1        4.901   4.382   1.682  0.00  0.00    -0.700 NA
ATOM     12  H   LIG    1        4.453   5.282   1.601  0.00  0.00    +0.340 HD
ATOM     13  C   LIG    1        4.182   3.359   0.892  0.00  0.00    +0.510 C 
BRANCH  13  14
ATOM     14  O   LIG    1        3.442   3.988  -0.156  0.00  0.00    -0.580 OA
ATOM     15  H   LIG    1        3.991   4.473  -0.788  0.00  0.00    +0.400 HD
ENDBRANCH  13  14
ENDBRANCH   5   8
BRANCH   4  16
ATOM     16  O   LIG    1        0.824   3.022   3.526  0.00  0.00    -0.550 OA
ATOM     17  H   LIG    1        0.224   2.698   4.212  0.00  0.00    +0.390 HD
ENDBRANCH   4  16
TORSDOF 3
ENDMDL
MODEL      592
REMARK  Name = ZINC000217370851
REMARK                            x       y       z     vdW  Elec       q    Type
REMARK                         _______ _______ _______ _____ _____    ______ ____
ROOT
ATOM      1  O   LIG    1       -0.025   0.085  -0.065  0.00  0.00    -0.930 OA
ATOM      2  S   LIG    1        0.064   1.503  -0.045  0.00  0.00    +2.390 S 
ATOM      3  C   LIG    1       -0.425   2.120   1.610  0.00  0.00    -0.270 C 
ATOM      4  C   LIG    1        0.923   2.140   2.374  0.00  0.00    +0.190 C 
ATOM      5  C   LIG    1        1.972   2.709   1.403  0.00  0.00    +0.200 C 
ATOM      6  O   LIG    1       -0.590   2.268  -1.048  0.00  0.00    -0.930 OA
ATOM      7  C   LIG    1        1.823   1.998   0.043  0.00  0.00    -0.350 C 
ENDROOT
BRANCH   4   8
ATOM      8  N   LIG    1        0.816   3.001   3.560  0.00  0.00    -0.490 NA
ATOM      9  C   LIG    1        2.144   3.217   4.182  0.00  0.00    +0.150 C 
ATOM     10  C   LIG    1        1.834   3.241   5.699  0.00  0.00    +0.230 C 
ATOM     11  N   LIG    1        0.760   2.218   5.816  0.00  0.00    -0.700 NA
ATOM     12  H   LIG    1        1.150   1.289   5.872  0.00  0.00    +0.340 HD
ATOM     13  C   LIG    1       -0.045   2.382   4.586  0.00  0.00    +0.510 C 
BRANCH  13  14
ATOM     14  O   LIG    1       -0.500   1.106   4.132  0.00  0.00    -0.590 OA
ATOM     15  H   LIG    1       -1.070   0.644   4.761  0.00  0.00    +0.400 HD
ENDBRANCH  13  14
ENDBRANCH   4   8
BRANCH   5  16
ATOM     16  O   LIG    1        1.759   4.112   1.234  0.00  0.00    -0.540 OA
ATOM     17  H   LIG    1        2.387   4.536   0.632  0.00  0.00    +0.380 HD
ENDBRANCH   5  16
TORSDOF 3
ENDMDL
MODEL      593
REMARK  Name = ZINC000215661046
REMARK                            x       y       z     vdW  Elec       q    Type
REMARK                         _______ _______ _______ _____ _____    ______ ____
ROOT
ATOM      1  C   LIG    1        2.759  -0.509  -0.206  0.00  0.00    +0.340 C 
ENDROOT
BRANCH   1   3
ATOM      2  N   LIG    1        0.667  -0.577   1.113  0.00  0.00    -0.480 N 
ATOM      3  C   LIG    1        1.989  -0.833   1.048  0.00  0.00    +0.500 C 
ATOM      4  O   LIG    1        2.559  -1.324   2.000  0.00  0.00    -0.510 OA
ATOM      5  C   LIG    1       -0.081  -0.892   2.332  0.00  0.00    +0.320 C 
BRANCH   2   7
ATOM      6  C   LIG    1       -0.017   1.425   0.010  0.00  0.00    +0.220 C 
ATOM      7  O   LIG    1        0.002  -0.004   0.002  0.00  0.00    -0.140 OA
ENDBRANCH   2   7
ENDBRANCH   1   3
BRANCH   1   8
ATOM      8  N   LIG    1        4.165  -0.878  -0.025  0.00  0.00    -0.990 NA
ATOM      9  C   LIG    1        4.600  -2.254  -0.281  0.00  0.00    +0.300 C 
BRANCH   8  10
ATOM     10  S   LIG    1        5.263   0.259   0.469  0.00  0.00    +2.610 S 
ATOM     11  O   LIG    1        4.709   1.493   0.033  0.00  0.00    -0.960 OA
ATOM     12  O   LIG    1        6.504  -0.208  -0.040  0.00  0.00    -0.950 OA
ATOM     13  C   LIG    1        5.238   0.155   2.280  0.00  0.00    -0.270 C 
ENDBRANCH   8  10
ENDBRANCH   1   8
TORSDOF 4
ENDMDL
MODEL      594
REMARK  Name = ZINC000019364679
REMARK                            x       y       z     vdW  Elec       q    Type
REMARK                         _______ _______ _______ _____ _____    ______ ____
ROOT
ATOM      1  CE  LYS A  1       -3.446  -0.472   1.409  0.00  0.00    +0.250 C 
ENDROOT
BRANCH   1   2
ATOM      2  NZ  LYS A  1       -2.072   0.036   1.304  0.00  0.00    -0.500 N 
ATOM      3  HZ1 LYS A  1       -2.091   1.042   1.226  0.00  0.00    +0.430 HD
ATOM      4  HZ2 LYS A  1       -1.551  -0.228   2.126  0.00  0.00    +0.420 HD
BRANCH   2   5
ATOM      5  C   LYS A  1       -1.429  -0.534   0.112  0.00  0.00    +0.270 C 
BRANCH   5   6
ATOM      6  CA  LYS A  1        0.002  -0.004   0.002  0.00  0.00    +0.080 C 
BRANCH   6   7
ATOM      7  N   LYS A  1       -0.018   1.465   0.010  0.00  0.00    -0.850 NA
ATOM      8  H1  LYS A  1       -0.556   1.823  -0.764  0.00  0.00    +0.340 HD
ATOM      9  H2  LYS A  1        0.919   1.839   0.003  0.00  0.00    +0.360 HD
ENDBRANCH   6   7
BRANCH   6  10
ATOM     10  C   LYS A  1        0.621  -0.491  -1.283  0.00  0.00    +0.470 C 
ATOM     11  OXT LYS A  1        0.733  -1.687  -1.491  0.00  0.00    -0.680 OA
ATOM     12  O   LYS A  1        1.009   0.311  -2.115  0.00  0.00    -0.670 OA
ENDBRANCH   6  10
ENDBRANCH   5   6
ENDBRANCH   2   5
ENDBRANCH   1   2
BRANCH   1  13
ATOM     13  CD  LYS A  1       -4.116   0.122   2.650  0.00  0.00    +0.030 C 
BRANCH  13  14
ATOM     14  CG  LYS A  1       -5.547  -0.408   2.760  0.00  0.00    +0.020 C 
BRANCH  14  15
ATOM     15  CB  LYS A  1       -6.216   0.186   4.001  0.00  0.00    +0.070 C 
BRANCH  15  16
ATOM     16  CA  LYS A  1       -7.647  -0.344   4.111  0.00  0.00    +0.080 C 
BRANCH  16  17
ATOM     17  N   LYS A  1       -7.616  -1.794   4.344  0.00  0.00    -0.620 N 
ATOM     18  H1  LYS A  1       -7.119  -1.987   5.200  0.00  0.00    +0.430 HD
ATOM     19  H2  LYS A  1       -7.148  -2.248   3.574  0.00  0.00    +0.410 HD
ATOM     20  H3  LYS A  1       -8.560  -2.144   4.416  0.00  0.00    +0.430 HD
ENDBRANCH  16  17
BRANCH  16  21
ATOM     21  C   LYS A  1       -8.347   0.334   5.261  0.00  0.00    +0.480 C 
ATOM     22  OXT LYS A  1       -8.298  -0.154   6.378  0.00  0.00    -0.670 OA
ATOM     23  O   LYS A  1       -8.962   1.370   5.075  0.00  0.00    -0.630 OA
ENDBRANCH  16  21
ENDBRANCH  15  16
ENDBRANCH  14  15
ENDBRANCH  13  14
ENDBRANCH   1  13
TORSDOF 11
ENDMDL
MODEL      595
REMARK  Name = ZINC000005248252
REMARK                            x       y       z     vdW  Elec       q    Type
REMARK                         _______ _______ _______ _____ _____    ______ ____
ROOT
ATOM      1  C   LIG    1       -0.677  -2.869   1.074  0.00  0.00    -0.010 C 
ENDROOT
BRANCH   1   8
ATOM      2  C   LIG    1       -2.084  -1.250  -0.194  0.00  0.00    +0.220 C 
ATOM      3  C   LIG    1       -3.391  -1.107   0.116  0.00  0.00    -0.300 C 
ATOM      4  C   LIG    1       -3.924  -2.352   0.501  0.00  0.00    +0.520 C 
ATOM      5  O   LIG    1       -2.984  -3.315   0.449  0.00  0.00    -0.300 OA
ATOM      6  O   LIG    1       -5.080  -2.533   0.837  0.00  0.00    -0.450 OA
ATOM      7 CL   LIG    1       -4.279   0.383   0.050  0.00  0.00    -0.020 Cl
ATOM      8  C   LIG    1       -1.761  -2.714   0.006  0.00  0.00    +0.300 C 
BRANCH   2  10
ATOM      9  C   LIG    1       -1.695   1.115  -0.720  0.00  0.00    +0.320 C 
ATOM     10  N   LIG    1       -1.227  -0.269  -0.611  0.00  0.00    -0.680 N 
ATOM     11  H   LIG    1       -0.309  -0.490  -0.835  0.00  0.00    +0.410 HD
ENDBRANCH   2  10
ENDBRANCH   1   8
BRANCH   1  12
ATOM     12  C   LIG    1        0.634  -2.355   0.537  0.00  0.00    +0.530 C 
ATOM     13  O   LIG    1        0.961  -2.602  -0.604  0.00  0.00    -0.510 OA
ATOM     14  N   LIG    1        1.444  -1.621   1.326  0.00  0.00    -0.840 N 
ATOM     15  H   LIG    1        2.244  -1.216   0.957  0.00  0.00    +0.410 HD
ATOM     16  H   LIG    1        1.226  -1.498   2.263  0.00  0.00    +0.410 HD
ENDBRANCH   1  12
BRANCH   1  17
ATOM     17  C   LIG    1       -0.535  -4.325   1.437  0.00  0.00    +0.540 C 
ATOM     18  O   LIG    1       -0.769  -5.182   0.612  0.00  0.00    -0.500 OA
ATOM     19  N   LIG    1       -0.147  -4.675   2.680  0.00  0.00    -0.850 N 
ATOM     20  H   LIG    1       -0.008  -5.609   2.900  0.00  0.00    +0.410 HD
ATOM     21  H   LIG    1       -0.008  -3.992   3.355  0.00  0.00    +0.400 HD
ENDBRANCH   1  17
TORSDOF 4
ENDMDL
MODEL      596
REMARK  Name = ZINC000005248253
REMARK                            x       y       z     vdW  Elec       q    Type
REMARK                         _______ _______ _______ _____ _____    ______ ____
ROOT
ATOM      1  C   LIG    1       -0.714  -2.821  -1.255  0.00  0.00    -0.010 C 
ENDROOT
BRANCH   1   8
ATOM      2  C   LIG    1        1.234  -1.315  -1.705  0.00  0.00    +0.200 C 
ATOM      3  C   LIG    1        1.043   0.021  -1.761  0.00  0.00    -0.290 C 
ATOM      4  C   LIG    1        0.059   0.398  -0.828  0.00  0.00    +0.530 C 
ATOM      5  O   LIG    1       -0.403  -0.674  -0.156  0.00  0.00    -0.290 OA
ATOM      6  O   LIG    1       -0.324   1.540  -0.652  0.00  0.00    -0.440 OA
ATOM      7 CL   LIG    1        1.883   1.108  -2.822  0.00  0.00    -0.020 Cl
ATOM      8  C   LIG    1        0.283  -1.832  -0.648  0.00  0.00    +0.280 C 
BRANCH   2  10
ATOM      9  C   LIG    1        2.963  -1.391  -3.444  0.00  0.00    +0.300 C 
ATOM     10  N   LIG    1        2.107  -2.053  -2.457  0.00  0.00    -0.680 N 
ATOM     11  H   LIG    1        2.158  -3.014  -2.336  0.00  0.00    +0.410 HD
ENDBRANCH   2  10
ENDBRANCH   1   8
BRANCH   1  12
ATOM     12  C   LIG    1       -1.471  -2.150  -2.372  0.00  0.00    +0.520 C 
ATOM     13  O   LIG    1       -2.244  -1.248  -2.124  0.00  0.00    -0.480 OA
ATOM     14  N   LIG    1       -1.289  -2.551  -3.645  0.00  0.00    -0.850 N 
ATOM     15  H   LIG    1       -1.835  -2.176  -4.354  0.00  0.00    +0.410 HD
ATOM     16  H   LIG    1       -0.612  -3.214  -3.853  0.00  0.00    +0.400 HD
ENDBRANCH   1  12
BRANCH   1  17
ATOM     17  C   LIG    1       -1.683  -3.273  -0.192  0.00  0.00    +0.530 C 
ATOM     18  O   LIG    1       -2.720  -2.669  -0.021  0.00  0.00    -0.480 OA
ATOM     19  N   LIG    1       -1.395  -4.348   0.568  0.00  0.00    -0.850 N 
ATOM     20  H   LIG    1       -2.048  -4.681   1.204  0.00  0.00    +0.410 HD
ATOM     21  H   LIG    1       -0.536  -4.790   0.478  0.00  0.00    +0.400 HD
ENDBRANCH   1  17
TORSDOF 4
ENDMDL
MODEL      597
REMARK  Name = ZINC000072417665
REMARK                            x       y       z     vdW  Elec       q    Type
REMARK                         _______ _______ _______ _____ _____    ______ ____
ROOT
ATOM      1  N   LIG    1       -2.430   0.984   0.019  0.00  0.00    -0.530 N 
ATOM      2  C   LIG    1       -2.997   0.489  -1.088  0.00  0.00    +0.710 C 
ATOM      3  N   LIG    1       -3.986  -0.383  -0.814  0.00  0.00    -0.740 N 
ATOM      4  H   LIG    1       -4.533  -0.862  -1.455  0.00  0.00    +0.430 HD
ATOM      5  C   LIG    1       -4.073  -0.464   0.650  0.00  0.00    +0.100 C 
ATOM      6  C   LIG    1       -5.445  -0.000   1.130  0.00  0.00    +0.090 C 
ATOM      7  C   LIG    1       -6.506  -1.001   0.659  0.00  0.00    +0.070 C 
ATOM      8  C   LIG    1       -6.137  -2.398   1.163  0.00  0.00    +0.270 C 
ATOM      9  N   LIG    1       -4.830  -2.791   0.622  0.00  0.00    -0.500 N 
ATOM     10  H   LIG    1       -4.856  -2.743  -0.386  0.00  0.00    +0.430 HD
ATOM     11  H   LIG    1       -4.619  -3.735   0.907  0.00  0.00    +0.440 HD
ATOM     12  C   LIG    1       -3.791  -1.884   1.126  0.00  0.00    +0.310 C 
ATOM     13  O   LIG    1       -2.656   0.791  -2.215  0.00  0.00    -0.510 OA
ATOM     14  C   LIG    1       -2.994   0.477   1.135  0.00  0.00    +0.540 C 
ATOM     15  O   LIG    1       -2.702   0.728   2.284  0.00  0.00    -0.450 OA
ENDROOT
BRANCH   1  16
ATOM     16  C   LIG    1       -1.330   1.951   0.019  0.00  0.00    +0.240 C 
BRANCH  16  18
ATOM     17  O   LIG    1        0.002  -0.004   0.002  0.00  0.00    -0.690 OA
ATOM     18  C   LIG    1       -0.015   1.215   0.009  0.00  0.00    +0.490 C 
ATOM     19  O   LIG    1        1.033   1.839   0.002  0.00  0.00    -0.670 OA
ENDBRANCH  16  18
ENDBRANCH   1  16
TORSDOF 2
ENDMDL
MODEL      598
REMARK  Name = ZINC000072417664
REMARK                            x       y       z     vdW  Elec       q    Type
REMARK                         _______ _______ _______ _____ _____    ______ ____
ROOT
ATOM      1  N   LIG    1       -2.430   0.984   0.019  0.00  0.00    -0.530 N 
ATOM      2  C   LIG    1       -2.997   0.489  -1.088  0.00  0.00    +0.710 C 
ATOM      3  N   LIG    1       -3.987  -0.382  -0.814  0.00  0.00    -0.740 N 
ATOM      4  H   LIG    1       -4.534  -0.861  -1.455  0.00  0.00    +0.430 HD
ATOM      5  C   LIG    1       -4.074  -0.463   0.650  0.00  0.00    +0.100 C 
ATOM      6  C   LIG    1       -3.789  -1.884   1.125  0.00  0.00    +0.090 C 
ATOM      7  C   LIG    1       -4.918  -2.807   0.654  0.00  0.00    +0.070 C 
ATOM      8  C   LIG    1       -6.256  -2.264   1.163  0.00  0.00    +0.270 C 
ATOM      9  N   LIG    1       -6.479  -0.916   0.627  0.00  0.00    -0.500 N 
ATOM     10  H   LIG    1       -7.387  -0.586   0.917  0.00  0.00    +0.440 HD
ATOM     11  H   LIG    1       -6.439  -0.944  -0.381  0.00  0.00    +0.430 HD
ATOM     12  C   LIG    1       -5.445  -0.002   1.131  0.00  0.00    +0.300 C 
ATOM     13  O   LIG    1       -2.656   0.791  -2.215  0.00  0.00    -0.510 OA
ATOM     14  C   LIG    1       -2.994   0.477   1.135  0.00  0.00    +0.540 C 
ATOM     15  O   LIG    1       -2.702   0.728   2.284  0.00  0.00    -0.450 OA
ENDROOT
BRANCH   1  16
ATOM     16  C   LIG    1       -1.330   1.951   0.019  0.00  0.00    +0.240 C 
BRANCH  16  18
ATOM     17  O   LIG    1        0.002  -0.004   0.002  0.00  0.00    -0.690 OA
ATOM     18  C   LIG    1       -0.015   1.215   0.009  0.00  0.00    +0.490 C 
ATOM     19  O   LIG    1        1.033   1.839   0.002  0.00  0.00    -0.670 OA
ENDBRANCH  16  18
ENDBRANCH   1  16
TORSDOF 2
ENDMDL
MODEL      599
REMARK  Name = ZINC000215659569
REMARK                            x       y       z     vdW  Elec       q    Type
REMARK                         _______ _______ _______ _____ _____    ______ ____
ROOT
ATOM      1  N   LIG    1       -1.402  -0.700   4.916  0.00  0.00    -0.530 N 
ATOM      2  C   LIG    1       -0.586  -1.639   5.487  0.00  0.00    +0.350 A 
ATOM      3  C   LIG    1        0.038  -1.361   6.652  0.00  0.00    -0.120 A 
ATOM      4  C   LIG    1       -0.166  -0.099   7.260  0.00  0.00    +0.550 A 
ATOM      5  N   LIG    1       -0.978   0.798   6.665  0.00  0.00    -0.660 N 
ATOM      6  H   LIG    1       -1.123   1.665   7.075  0.00  0.00    +0.430 HD
ATOM      7  O   LIG    1        0.387   0.173   8.310  0.00  0.00    -0.510 OA
ATOM      8  C   LIG    1       -1.584   0.497   5.501  0.00  0.00    +0.700 A 
ATOM      9  O   LIG    1       -2.313   1.317   4.976  0.00  0.00    -0.540 OA
ENDROOT
BRANCH   1  10
ATOM     10  C   LIG    1       -2.079  -1.000   3.652  0.00  0.00    +0.340 C 
BRANCH  10  11
ATOM     11  C   LIG    1       -1.188  -0.578   2.483  0.00  0.00    +0.050 C 
BRANCH  11  13
ATOM     12  N   LIG    1       -1.284  -0.598   0.011  0.00  0.00    -0.480 N 
ATOM     13  C   LIG    1       -1.884  -0.886   1.183  0.00  0.00    +0.530 C 
ATOM     14  O   LIG    1       -2.985  -1.395   1.190  0.00  0.00    -0.520 OA
ATOM     15  C   LIG    1       -1.961  -0.898  -1.253  0.00  0.00    +0.320 C 
BRANCH  12  17
ATOM     16  C   LIG    1       -0.017   1.425   0.010  0.00  0.00    +0.210 C 
ATOM     17  O   LIG    1        0.002  -0.004   0.002  0.00  0.00    -0.140 OA
ENDBRANCH  12  17
ENDBRANCH  11  13
ENDBRANCH  10  11
ENDBRANCH   1  10
TORSDOF 4
ENDMDL
MODEL      600
REMARK  Name = ZINC000104232232
REMARK                            x       y       z     vdW  Elec       q    Type
REMARK                         _______ _______ _______ _____ _____    ______ ____
ROOT
ATOM      1  N   LIG    1       -0.016   1.315   0.009  0.00  0.00    -0.690 NA
ATOM      2  H   LIG    1        0.818   1.812   0.004  0.00  0.00    +0.340 HD
ATOM      3  C   LIG    1        0.002  -0.004   0.002  0.00  0.00    +0.390 A 
ATOM      4  C   LIG    1       -1.253  -0.768   0.004  0.00  0.00    -0.030 A 
ATOM      5  C   LIG    1       -1.177  -2.112  -0.053  0.00  0.00    +0.320 A 
ATOM      6  N   LIG    1        0.043  -2.717  -0.114  0.00  0.00    -0.560 N 
ATOM      7  C   LIG    1        1.207  -1.983  -0.042  0.00  0.00    +0.560 A 
ATOM      8  O   LIG    1        2.306  -2.821   0.016  0.00  0.00    -0.230 OA
ATOM      9  C   LIG    1        1.794  -3.965   0.600  0.00  0.00    +0.130 C 
ATOM     10  C   LIG    1        2.222  -5.399   0.573  0.00  0.00    +0.230 C 
ATOM     11  C   LIG    1        0.846  -6.094   0.839  0.00  0.00    +0.180 C 
ATOM     12  O   LIG    1       -0.182  -5.135   0.473  0.00  0.00    -0.340 OA
ATOM     13  C   LIG    1        0.472  -4.107  -0.268  0.00  0.00    +0.380 C 
ATOM     14  N   LIG    1        1.173  -0.673  -0.013  0.00  0.00    -0.560 NA
ENDROOT
BRANCH  10  15
ATOM     15  O   LIG    1        2.750  -5.761  -0.705  0.00  0.00    -0.540 OA
ATOM     16  H   LIG    1        3.039  -6.682  -0.765  0.00  0.00    +0.390 HD
ENDBRANCH  10  15
BRANCH  11  17
ATOM     17  C   LIG    1        0.719  -7.352  -0.022  0.00  0.00    +0.200 C 
BRANCH  17  18
ATOM     18  O   LIG    1       -0.488  -8.040   0.314  0.00  0.00    -0.560 OA
ATOM     19  H   LIG    1       -0.634  -8.849  -0.194  0.00  0.00    +0.390 HD
ENDBRANCH  17  18
ENDBRANCH  11  17
TORSDOF 3
ENDMDL
MODEL      601
REMARK  Name = ZINC000100495025
REMARK                            x       y       z     vdW  Elec       q    Type
REMARK                         _______ _______ _______ _____ _____    ______ ____
ROOT
ATOM      1  N   LIG    1       -1.300  -1.317   1.520  0.00  0.00    -0.520 N 
ENDROOT
BRANCH   1   2
ATOM      2  N   LIG    1       -2.350  -0.493   1.948  0.00  0.00    +0.210 N 
ATOM      3  O   LIG    1       -3.451  -0.969   2.159  0.00  0.00    -0.180 OA
ATOM      4  O   LIG    1       -2.161   0.700   2.108  0.00  0.00    -0.180 OA
ENDBRANCH   1   2
BRANCH   1   5
ATOM      5  C   LIG    1        0.024  -0.743   1.267  0.00  0.00    +0.650 C 
BRANCH   5   7
ATOM      6  C   LIG    1       -0.018   1.461   0.010  0.00  0.00    +0.360 C 
ATOM      7  N   LIG    1        0.002  -0.004   0.002  0.00  0.00    -0.510 N 
BRANCH   7   8
ATOM      8  N   LIG    1        0.000  -0.698  -1.215  0.00  0.00    +0.210 N 
ATOM      9  O   LIG    1        0.017  -1.916  -1.222  0.00  0.00    -0.200 OA
ATOM     10  O   LIG    1       -0.018  -0.083  -2.267  0.00  0.00    -0.180 OA
ENDBRANCH   7   8
ENDBRANCH   5   7
ENDBRANCH   1   5
BRANCH   1  11
ATOM     11  C   LIG    1       -1.526  -2.751   1.327  0.00  0.00    +0.650 C 
BRANCH  11  12
ATOM     12  N   LIG    1       -1.603  -3.413   2.632  0.00  0.00    -0.510 N 
ATOM     13  C   LIG    1       -2.899  -3.845   3.160  0.00  0.00    +0.360 C 
BRANCH  12  14
ATOM     14  N   LIG    1       -0.435  -3.634   3.375  0.00  0.00    +0.210 N 
ATOM     15  O   LIG    1       -0.498  -4.184   4.459  0.00  0.00    -0.180 OA
ATOM     16  O   LIG    1        0.643  -3.275   2.936  0.00  0.00    -0.200 OA
ENDBRANCH  12  14
ENDBRANCH  11  12
ENDBRANCH   1  11
TORSDOF 7
ENDMDL
MODEL      602
REMARK  Name = ZINC000256028052
REMARK                            x       y       z     vdW  Elec       q    Type
REMARK                         _______ _______ _______ _____ _____    ______ ____
ROOT
ATOM      1  O   LIG    1        0.002  -0.004   0.002  0.00  0.00    -0.480 OA
ATOM      2  C   LIG    1       -0.014   1.214   0.009  0.00  0.00    +0.590 A 
ATOM      3  C   LIG    1       -1.226   1.931   0.030  0.00  0.00    -0.410 A 
ATOM      4  S   LIG    1       -0.738   3.636   0.033  0.00  0.00    +0.160 S 
ATOM      5  C   LIG    1        0.994   3.278   0.006  0.00  0.00    +0.260 A 
ATOM      6  N   LIG    1        2.194   3.814  -0.008  0.00  0.00    -0.490 NA
ATOM      7  C   LIG    1        3.110   2.848  -0.027  0.00  0.00    +0.480 A 
ATOM      8  N   LIG    1        2.516   1.688  -0.025  0.00  0.00    -0.270 NA
ATOM      9  C   LIG    1       -2.487   1.428   0.046  0.00  0.00    +0.530 C 
ATOM     10  N   LIG    1        1.117   1.925   0.002  0.00  0.00    -0.400 N 
ENDROOT
BRANCH   9  11
ATOM     11  N   LIG    1       -3.560   2.275   0.066  0.00  0.00    -0.690 N 
ATOM     12  H   LIG    1       -3.420   3.235   0.069  0.00  0.00    +0.410 HD
BRANCH  11  13
ATOM     13  C   LIG    1       -4.921   1.732   0.083  0.00  0.00    +0.290 C 
BRANCH  13  14
ATOM     14  C   LIG    1       -5.928   2.884   0.104  0.00  0.00    +0.020 C 
BRANCH  14  15
ATOM     15  C   LIG    1       -7.349   2.317   0.122  0.00  0.00    +0.180 C 
BRANCH  15  16
ATOM     16  O   LIG    1       -8.290   3.393   0.141  0.00  0.00    -0.570 OA
ATOM     17  H   LIG    1       -9.214   3.107   0.153  0.00  0.00    +0.390 HD
ENDBRANCH  15  16
ENDBRANCH  14  15
ENDBRANCH  13  14
ENDBRANCH  11  13
ENDBRANCH   9  11
TORSDOF 5
ENDMDL
MODEL      603
REMARK  Name = ZINC000257279869
REMARK                            x       y       z     vdW  Elec       q    Type
REMARK                         _______ _______ _______ _____ _____    ______ ____
ROOT
ATOM      1  C   LIG    1       -0.018   1.503   0.010  0.00  0.00    +0.110 C 
ATOM      2  C   LIG    1        0.002  -0.004   0.002  0.00  0.00    +0.530 C 
ATOM      3  N   LIG    1       -1.156  -0.694   0.009  0.00  0.00    -0.620 N 
ATOM      4  C   LIG    1       -2.503  -0.106   0.019  0.00  0.00    +0.240 C 
ATOM      5  C   LIG    1       -3.513  -1.273  -0.003  0.00  0.00    +0.170 C 
ATOM      6  C   LIG    1       -2.680  -2.441  -0.595  0.00  0.00    +0.260 C 
ATOM      7  C   LIG    1       -1.281  -2.163   0.003  0.00  0.00    +0.270 C 
ATOM      8  O   LIG    1        1.060  -0.596  -0.011  0.00  0.00    -0.530 OA
ENDROOT
BRANCH   6   9
ATOM      9  N   LIG    1       -3.199  -3.736  -0.146  0.00  0.00    -0.720 N 
ATOM     10  H   LIG    1       -3.695  -3.797   0.685  0.00  0.00    +0.400 HD
ATOM     11  C   LIG    1       -2.986  -4.841  -0.887  0.00  0.00    +0.600 C 
ATOM     12  O   LIG    1       -2.363  -4.763  -1.929  0.00  0.00    -0.510 OA
BRANCH  11  13
ATOM     13  C   LIG    1       -3.506  -6.141  -0.436  0.00  0.00    -0.050 A 
ATOM     14  C   LIG    1       -3.367  -7.359  -1.078  0.00  0.00    +0.020 A 
ATOM     15  C   LIG    1       -4.027  -8.283  -0.265  0.00  0.00    +0.190 A 
ATOM     16  N   LIG    1       -4.509  -7.638   0.767  0.00  0.00    -0.270 NA
ATOM     17  N   LIG    1       -4.219  -6.388   0.703  0.00  0.00    -0.380 N 
ATOM     18  H   LIG    1       -4.473  -5.721   1.359  0.00  0.00    +0.440 HD
ENDBRANCH  11  13
ENDBRANCH   6   9
BRANCH   5  19
ATOM     19  O   LIG    1       -4.625  -0.963  -0.845  0.00  0.00    -0.550 OA
ATOM     20  H   LIG    1       -5.133  -0.192  -0.557  0.00  0.00    +0.390 HD
ENDBRANCH   5  19
TORSDOF 3
ENDMDL
MODEL      604
REMARK  Name = ZINC000257243634
REMARK                            x       y       z     vdW  Elec       q    Type
REMARK                         _______ _______ _______ _____ _____    ______ ____
ROOT
ATOM      1  C   LIG    1        0.020  -2.136  -1.177  0.00  0.00    +0.260 C 
ATOM      2  C   LIG    1        1.474  -2.672  -1.183  0.00  0.00    +0.270 C 
ATOM      3  N   LIG    1        1.379  -4.012  -1.791  0.00  0.00    -0.610 N 
ATOM      4  C   LIG    1        0.176  -4.064  -2.634  0.00  0.00    +0.250 C 
ATOM      5  C   LIG    1        2.252  -5.022  -1.604  0.00  0.00    +0.620 C 
ATOM      6  O   LIG    1        3.216  -4.866  -0.881  0.00  0.00    -0.520 OA
ATOM      7  C   LIG    1       -0.524  -2.693  -2.519  0.00  0.00    +0.170 C 
ENDROOT
BRANCH   5   8
ATOM      8  C   LIG    1        2.035  -6.319  -2.277  0.00  0.00    -0.010 A 
ATOM      9  N   LIG    1        1.042  -6.626  -3.088  0.00  0.00    -0.260 NA
ATOM     10  N   LIG    1        1.163  -7.838  -3.494  0.00  0.00    -0.380 N 
ATOM     11  H   LIG    1        0.550  -8.285  -4.099  0.00  0.00    +0.450 HD
ATOM     12  C   LIG    1        2.267  -8.402  -2.958  0.00  0.00    +0.180 A 
ATOM     13  C   LIG    1        2.858  -7.466  -2.179  0.00  0.00    -0.010 A 
ENDBRANCH   5   8
BRANCH   1  16
ATOM     14  C   LIG    1       -0.018   1.503   0.010  0.00  0.00    +0.110 C 
ATOM     15  C   LIG    1        0.002  -0.004   0.002  0.00  0.00    +0.510 C 
ATOM     16  N   LIG    1        0.000  -0.672  -1.169  0.00  0.00    -0.720 N 
ATOM     17  H   LIG    1       -0.015  -0.182  -2.006  0.00  0.00    +0.400 HD
ATOM     18  O   LIG    1        0.020  -0.616   1.049  0.00  0.00    -0.540 OA
ENDBRANCH   1  16
BRANCH   7  19
ATOM     19  O   LIG    1       -1.943  -2.852  -2.469  0.00  0.00    -0.550 OA
ATOM     20  H   LIG    1       -2.321  -3.267  -3.256  0.00  0.00    +0.390 HD
ENDBRANCH   7  19
TORSDOF 3
ENDMDL
MODEL      605
REMARK  Name = ZINC000257272132
REMARK                            x       y       z     vdW  Elec       q    Type
REMARK                         _______ _______ _______ _____ _____    ______ ____
ROOT
ATOM      1  C   LIG    1       -4.152  -4.516   0.018  0.00  0.00    +0.260 C 
ATOM      2  C   LIG    1       -4.663  -4.538   1.471  0.00  0.00    +0.020 C 
ATOM      3  C   LIG    1       -5.875  -5.413   1.642  0.00  0.00    +0.020 C 
ATOM      4  C   LIG    1       -5.408  -6.815   2.086  0.00  0.00    +0.010 C 
ATOM      5  C   LIG    1       -4.929  -7.619   0.972  0.00  0.00    -0.010 C 
ATOM      6  C   LIG    1       -3.700  -6.993   0.282  0.00  0.00    +0.130 C 
ATOM      7  C   LIG    1       -4.173  -5.907  -0.643  0.00  0.00    +0.180 C 
ENDROOT
BRANCH   1   9
ATOM      8  C   LIG    1       -2.550  -2.680   0.012  0.00  0.00    +0.510 C 
ATOM      9  N   LIG    1       -2.778  -4.008   0.007  0.00  0.00    -0.710 N 
ATOM     10  H   LIG    1       -2.032  -4.629  -0.003  0.00  0.00    +0.410 HD
ATOM     11  O   LIG    1       -3.482  -1.905   0.025  0.00  0.00    -0.540 OA
BRANCH   8  12
ATOM     12  C   LIG    1       -1.136  -2.159   0.001  0.00  0.00    +0.300 C 
BRANCH  12  15
ATOM     13  C   LIG    1       -0.018   1.503   0.010  0.00  0.00    +0.100 C 
ATOM     14  C   LIG    1        0.002  -0.004   0.002  0.00  0.00    +0.510 C 
ATOM     15  N   LIG    1       -1.156  -0.694   0.009  0.00  0.00    -0.720 N 
ATOM     16  H   LIG    1       -2.002  -0.220   0.020  0.00  0.00    +0.410 HD
ATOM     17  O   LIG    1        1.060  -0.596  -0.011  0.00  0.00    -0.550 OA
ENDBRANCH  12  15
ENDBRANCH   8  12
ENDBRANCH   1   9
BRANCH   6  18
ATOM     18  O   LIG    1       -3.005  -7.995  -0.464  0.00  0.00    -0.560 OA
ATOM     19  H   LIG    1       -2.684  -8.733   0.073  0.00  0.00    +0.390 HD
ENDBRANCH   6  18
BRANCH   7  20
ATOM     20  O   LIG    1       -3.330  -5.881  -1.796  0.00  0.00    -0.550 OA
ATOM     21  H   LIG    1       -3.323  -6.708  -2.297  0.00  0.00    +0.390 HD
ENDBRANCH   7  20
TORSDOF 5
ENDMDL
MODEL      606
REMARK  Name = ZINC000256028051
REMARK                            x       y       z     vdW  Elec       q    Type
REMARK                         _______ _______ _______ _____ _____    ______ ____
ROOT
ATOM      1  O   LIG    1        0.002  -0.004   0.002  0.00  0.00    -0.480 OA
ATOM      2  C   LIG    1       -0.014   1.214   0.009  0.00  0.00    +0.590 A 
ATOM      3  C   LIG    1       -1.226   1.931   0.030  0.00  0.00    -0.410 A 
ATOM      4  S   LIG    1       -0.738   3.636   0.033  0.00  0.00    +0.160 S 
ATOM      5  C   LIG    1        0.994   3.278   0.006  0.00  0.00    +0.260 A 
ATOM      6  N   LIG    1        2.194   3.814  -0.008  0.00  0.00    -0.490 NA
ATOM      7  C   LIG    1        3.110   2.848  -0.027  0.00  0.00    +0.480 A 
ATOM      8  N   LIG    1        2.516   1.688  -0.025  0.00  0.00    -0.270 NA
ATOM      9  C   LIG    1       -2.487   1.428   0.046  0.00  0.00    +0.520 C 
ATOM     10  N   LIG    1        1.117   1.925   0.002  0.00  0.00    -0.400 N 
ENDROOT
BRANCH   9  11
ATOM     11  N   LIG    1       -3.560   2.275   0.066  0.00  0.00    -0.680 N 
ATOM     12  H   LIG    1       -3.420   3.235   0.069  0.00  0.00    +0.410 HD
BRANCH  11  13
ATOM     13  C   LIG    1       -4.921   1.732   0.083  0.00  0.00    +0.290 C 
BRANCH  13  14
ATOM     14  C   LIG    1       -5.928   2.884   0.104  0.00  0.00    +0.190 C 
BRANCH  14  15
ATOM     15  O   LIG    1       -5.831   3.623  -1.115  0.00  0.00    -0.570 OA
ATOM     16  H   LIG    1       -6.443   4.370  -1.172  0.00  0.00    +0.390 HD
ENDBRANCH  14  15
ENDBRANCH  13  14
ENDBRANCH  11  13
ENDBRANCH   9  11
TORSDOF 4
ENDMDL
MODEL      607
REMARK  Name = ZINC000000057331
REMARK                            x       y       z     vdW  Elec       q    Type
REMARK                         _______ _______ _______ _____ _____    ______ ____
ROOT
ATOM      1  C   LIG    1        0.001  -4.173  -0.023  0.00  0.00    +0.410 C 
ATOM      2  O   LIG    1       -0.935  -4.653  -1.012  0.00  0.00    -0.330 OA
ATOM      3  C   LIG    1       -2.238  -4.503  -0.408  0.00  0.00    +0.160 C 
ATOM      4  C   LIG    1       -2.043  -4.931   1.063  0.00  0.00    +0.160 C 
ATOM      5  C   LIG    1       -0.534  -4.709   1.324  0.00  0.00    +0.160 C 
ATOM      6  F   LIG    1        0.089  -5.917   1.657  0.00  0.00    -0.170 F 
ENDROOT
BRANCH   1  10
ATOM      7  C   LIG    1        0.124  -0.006   0.052  0.00  0.00    +0.510 A 
ATOM      8  N   LIG    1        0.928  -0.727   0.823  0.00  0.00    -0.610 NA
ATOM      9  C   LIG    1        0.884  -2.058   0.794  0.00  0.00    +0.660 A 
ATOM     10  N   LIG    1        0.026  -2.708  -0.014  0.00  0.00    -0.550 N 
ATOM     11  C   LIG    1       -0.819  -2.010  -0.823  0.00  0.00    +0.370 A 
ATOM     12  O   LIG    1        1.634  -2.698   1.513  0.00  0.00    -0.540 OA
ATOM     13  C   LIG    1       -0.790  -0.657  -0.802  0.00  0.00    -0.140 A 
BRANCH   7  14
ATOM     14  N   LIG    1        0.178   1.368   0.090  0.00  0.00    -0.810 N 
ATOM     15  H   LIG    1        0.805   1.812   0.682  0.00  0.00    +0.410 HD
ATOM     16  H   LIG    1       -0.414   1.892  -0.471  0.00  0.00    +0.420 HD
ENDBRANCH   7  14
ENDBRANCH   1  10
BRANCH   4  17
ATOM     17  O   LIG    1       -2.386  -6.308   1.233  0.00  0.00    -0.540 OA
ATOM     18  H   LIG    1       -2.282  -6.631   2.139  0.00  0.00    +0.390 HD
ENDBRANCH   4  17
BRANCH   3  19
ATOM     19  C   LIG    1       -3.254  -5.413  -1.101  0.00  0.00    +0.230 C 
BRANCH  19  20
ATOM     20  O   LIG    1       -3.451  -4.971  -2.446  0.00  0.00    -0.570 OA
ATOM     21  H   LIG    1       -4.084  -5.503  -2.946  0.00  0.00    +0.390 HD
ENDBRANCH  19  20
ENDBRANCH   3  19
TORSDOF 5
ENDMDL
MODEL      608
REMARK  Name = ZINC000012501222
REMARK                            x       y       z     vdW  Elec       q    Type
REMARK                         _______ _______ _______ _____ _____    ______ ____
ROOT
ATOM      1  C   LIG    1       -0.186  -0.059   2.835  0.00  0.00    +0.180 C 
ATOM      2  O   LIG    1       -0.207   1.369   2.880  0.00  0.00    -0.340 OA
ATOM      3  C   LIG    1       -1.042   1.908   3.907  0.00  0.00    +0.180 C 
ATOM      4  C   LIG    1       -0.530   1.445   5.273  0.00  0.00    +0.180 C 
ATOM      5  C   LIG    1       -0.509  -0.086   5.309  0.00  0.00    +0.160 C 
ATOM      6  C   LIG    1        0.360  -0.602   4.158  0.00  0.00    +0.150 C 
ENDROOT
BRANCH   5   7
ATOM      7  O   LIG    1       -1.841  -0.586   5.166  0.00  0.00    -0.540 OA
ATOM      8  H   LIG    1       -1.902  -1.551   5.180  0.00  0.00    +0.380 HD
ENDBRANCH   5   7
BRANCH   4   9
ATOM      9  O   LIG    1       -1.396   1.936   6.299  0.00  0.00    -0.550 OA
ATOM     10  H   LIG    1       -1.132   1.680   7.193  0.00  0.00    +0.380 HD
ENDBRANCH   4   9
BRANCH   6  11
ATOM     11  O   LIG    1        1.706  -0.156   4.339  0.00  0.00    -0.540 OA
ATOM     12  H   LIG    1        2.313  -0.446   3.645  0.00  0.00    +0.390 HD
ENDBRANCH   6  11
BRANCH   1  13
ATOM     13  S   LIG    1        0.879  -0.605   1.472  0.00  0.00    -0.220 S 
BRANCH  13  15
ATOM     14  C   LIG    1       -0.019   1.526   0.010  0.00  0.00    +0.060 C 
ATOM     15  C   LIG    1        0.002  -0.004   0.002  0.00  0.00    +0.040 C 
ATOM     16  C   LIG    1        0.718  -0.497  -1.257  0.00  0.00    +0.070 C 
ENDBRANCH  13  15
ENDBRANCH   1  13
BRANCH   3  17
ATOM     17  C   LIG    1       -1.009   3.437   3.841  0.00  0.00    +0.210 C 
BRANCH  17  18
ATOM     18  O   LIG    1       -1.593   3.873   2.612  0.00  0.00    -0.570 OA
ATOM     19  H   LIG    1       -1.606   4.834   2.502  0.00  0.00    +0.380 HD
ENDBRANCH  17  18
ENDBRANCH   3  17
TORSDOF 7
ENDMDL
MODEL      609
REMARK  Name = ZINC000039243931
REMARK                            x       y       z     vdW  Elec       q    Type
REMARK                         _______ _______ _______ _____ _____    ______ ____
ROOT
ATOM      1  C   LIG    1       -0.536   1.441   0.106  0.00  0.00    +0.340 C 
ATOM      2  N   LIG    1       -0.444  -0.021   0.085  0.00  0.00    -0.540 N 
ATOM      3  C   LIG    1       -0.689  -0.788  -0.995  0.00  0.00    +0.500 A 
ATOM      4  C   LIG    1       -0.477  -2.214  -0.577  0.00  0.00    +0.420 A 
ATOM      5  C   LIG    1       -0.107  -2.148   0.788  0.00  0.00    -0.420 A 
ATOM      6  C   LIG    1        0.236  -3.155   1.791  0.00  0.00    +0.590 A 
ATOM      7  O   LIG    1        0.235  -4.340   1.512  0.00  0.00    -0.480 OA
ATOM      8  N   LIG    1        0.547  -2.736   3.038  0.00  0.00    -0.550 N 
ATOM      9  C   LIG    1        0.891  -3.718   4.069  0.00  0.00    +0.360 C 
ATOM     10  C   LIG    1        0.546  -1.427   3.338  0.00  0.00    +0.710 A 
ATOM     11  O   LIG    1        0.835  -1.089   4.469  0.00  0.00    -0.510 OA
ATOM     12  N   LIG    1        0.240  -0.477   2.442  0.00  0.00    -0.510 N 
ATOM     13  C   LIG    1        0.262   0.930   2.851  0.00  0.00    +0.360 C 
ATOM     14  O   LIG    1       -0.598  -3.210  -1.263  0.00  0.00    -0.360 OA
ATOM     15  O   LIG    1       -1.017  -0.400  -2.096  0.00  0.00    -0.410 OA
ATOM     16  C   LIG    1       -0.092  -0.795   1.156  0.00  0.00    +0.510 A 
ENDROOT
TORSDOF 0
ENDMDL
MODEL      610
REMARK  Name = ZINC000006524890
REMARK                            x       y       z     vdW  Elec       q    Type
REMARK                         _______ _______ _______ _____ _____    ______ ____
ROOT
ATOM      1  C   LIG    1        0.001  -4.173  -0.023  0.00  0.00    +0.430 C 
ATOM      2  O   LIG    1       -0.820  -4.641  -1.105  0.00  0.00    -0.330 OA
ATOM      3  C   LIG    1       -1.464  -5.852  -0.653  0.00  0.00    +0.170 C 
ATOM      4  C   LIG    1       -1.837  -5.536   0.818  0.00  0.00    +0.170 C 
ATOM      5  F   LIG    1       -1.948  -6.711   1.568  0.00  0.00    -0.190 F 
ATOM      6  C   LIG    1       -0.621  -4.694   1.287  0.00  0.00    +0.140 C 
ENDROOT
BRANCH   1  10
ATOM      7  C   LIG    1        0.002  -0.004   0.002  0.00  0.00    +0.510 A 
ATOM      8  N   LIG    1       -1.135  -0.687   0.004  0.00  0.00    -0.620 NA
ATOM      9  C   LIG    1       -1.129  -2.018  -0.004  0.00  0.00    +0.660 A 
ATOM     10  N   LIG    1        0.026  -2.708  -0.014  0.00  0.00    -0.540 N 
ATOM     11  C   LIG    1        1.220  -2.050  -0.016  0.00  0.00    +0.380 A 
ATOM     12  O   LIG    1       -2.189  -2.623  -0.003  0.00  0.00    -0.530 OA
ATOM     13  C   LIG    1        1.230  -0.697  -0.013  0.00  0.00    -0.140 A 
BRANCH   7  14
ATOM     14  N   LIG    1       -0.017   1.371   0.010  0.00  0.00    -0.810 N 
ATOM     15  H   LIG    1       -0.863   1.845   0.016  0.00  0.00    +0.410 HD
ATOM     16  H   LIG    1        0.817   1.868   0.004  0.00  0.00    +0.420 HD
ENDBRANCH   7  14
ENDBRANCH   1  10
BRANCH   6  17
ATOM     17  O   LIG    1        0.309  -5.512   2.000  0.00  0.00    -0.550 OA
ATOM     18  H   LIG    1       -0.053  -5.912   2.802  0.00  0.00    +0.400 HD
ENDBRANCH   6  17
BRANCH   3  19
ATOM     19  C   LIG    1       -2.718  -6.137  -1.481  0.00  0.00    +0.220 C 
BRANCH  19  20
ATOM     20  O   LIG    1       -2.342  -6.438  -2.827  0.00  0.00    -0.560 OA
ATOM     21  H   LIG    1       -3.090  -6.630  -3.410  0.00  0.00    +0.390 HD
ENDBRANCH  19  20
ENDBRANCH   3  19
TORSDOF 5
ENDMDL
MODEL      611
REMARK  Name = ZINC000015021495
REMARK                            x       y       z     vdW  Elec       q    Type
REMARK                         _______ _______ _______ _____ _____    ______ ____
ROOT
ATOM      1  C   LIG    1        1.734  -3.741   2.830  0.00  0.00    +0.320 C 
ENDROOT
BRANCH   1   2
ATOM      2  C   LIG    1        1.515  -2.287   2.501  0.00  0.00    +0.310 C 
ATOM      3  O   LIG    1        1.937  -1.431   3.240  0.00  0.00    -0.370 OA
BRANCH   2   4
ATOM      4  C   LIG    1        0.770  -1.902   1.249  0.00  0.00    +0.190 C 
BRANCH   4   5
ATOM      5  O   LIG    1        0.693  -0.477   1.160  0.00  0.00    -0.370 OA
BRANCH   5   7
ATOM      6  C   LIG    1       -0.019   1.526   0.010  0.00  0.00    +0.070 C 
ATOM      7  C   LIG    1        0.002  -0.004   0.002  0.00  0.00    +0.150 C 
ENDBRANCH   5   7
ENDBRANCH   4   5
ENDBRANCH   2   4
ENDBRANCH   1   2
BRANCH   1   8
ATOM      8  C   LIG    1        0.407  -4.456   2.852  0.00  0.00    +0.410 C 
ATOM      9  O   LIG    1        0.236  -5.433   2.162  0.00  0.00    -0.470 OA
BRANCH   8  10
ATOM     10  O   LIG    1       -0.584  -4.008   3.639  0.00  0.00    -0.350 OA
BRANCH  10  11
ATOM     11  C   LIG    1       -1.834  -4.746   3.609  0.00  0.00    +0.220 C 
ATOM     12  C   LIG    1       -2.836  -4.090   4.562  0.00  0.00    +0.070 C 
ENDBRANCH  10  11
ENDBRANCH   8  10
ENDBRANCH   1   8
BRANCH   1  13
ATOM     13  O   LIG    1        2.356  -3.851   4.112  0.00  0.00    -0.500 OA
ATOM     14  H   LIG    1        1.838  -3.470   4.834  0.00  0.00    +0.410 HD
ENDBRANCH   1  13
BRANCH   1  15
ATOM     15  O   LIG    1        2.577  -4.332   1.839  0.00  0.00    -0.490 OA
ATOM     16  H   LIG    1        2.217  -4.294   0.943  0.00  0.00    +0.410 HD
ENDBRANCH   1  15
TORSDOF 9
ENDMDL
MODEL      612
REMARK  Name = ZINC000001558984
REMARK                            x       y       z     vdW  Elec       q    Type
REMARK                         _______ _______ _______ _____ _____    ______ ____
ROOT
ATOM      1  C1* LIG    1       -0.008  -4.184   0.160  0.00  0.00    +0.460 C 
ATOM      2  O4* LIG    1       -0.668  -4.603  -1.055  0.00  0.00    -0.330 OA
ATOM      3  C4* LIG    1       -2.081  -4.483  -0.781  0.00  0.00    +0.120 C 
ATOM      4  C3* LIG    1       -2.248  -4.998   0.665  0.00  0.00    +0.120 C 
ATOM      5  C2* LIG    1       -0.851  -4.797   1.301  0.00  0.00    +0.160 C 
ENDROOT
BRANCH   1   9
ATOM      6  C   LIG    1        0.105  -0.064   0.873  0.00  0.00    +0.690 C 
ATOM      7  N   LIG    1        1.199  -0.737   0.555  0.00  0.00    -0.650 NA
ATOM      8  C   LIG    1        1.164  -2.057   0.355  0.00  0.00    +0.700 C 
ATOM      9  N   LIG    1       -0.002  -2.723   0.260  0.00  0.00    -0.660 N 
ATOM     10  C   LIG    1       -1.268  -1.978   0.256  0.00  0.00    +0.520 C 
ATOM     11  O   LIG    1        2.211  -2.673   0.257  0.00  0.00    -0.540 OA
ATOM     12  N   LIG    1       -1.074  -0.742   1.034  0.00  0.00    -0.770 N 
ATOM     13  H   LIG    1       -1.762  -0.418   1.635  0.00  0.00    +0.410 HD
BRANCH   6  14
ATOM     14  N   LIG    1        0.152   1.289   1.044  0.00  0.00    -0.810 N 
ATOM     15  H   LIG    1        0.991   1.763   0.932  0.00  0.00    +0.430 HD
ATOM     16  H   LIG    1       -0.653   1.776   1.280  0.00  0.00    +0.410 HD
ENDBRANCH   6  14
ENDBRANCH   1   9
BRANCH   4  17
ATOM     17  O3* LIG    1       -2.607  -6.381   0.666  0.00  0.00    -0.540 OA
ATOM     18  H3* LIG    1       -3.447  -6.570   0.227  0.00  0.00    +0.380 HD
ENDBRANCH   4  17
BRANCH   5  19
ATOM     19  O2* LIG    1       -0.304  -6.051   1.715  0.00  0.00    -0.530 OA
ATOM     20  H2* LIG    1       -0.830  -6.506   2.387  0.00  0.00    +0.390 HD
ENDBRANCH   5  19
BRANCH   3  21
ATOM     21  C5* LIG    1       -2.886  -5.347  -1.753  0.00  0.00    +0.210 C 
BRANCH  21  22
ATOM     22  O5* LIG    1       -2.752  -4.826  -3.077  0.00  0.00    -0.560 OA
ATOM     23  H5* LIG    1       -3.238  -5.326  -3.748  0.00  0.00    +0.390 HD
ENDBRANCH  21  22
ENDBRANCH   3  21
TORSDOF 6
ENDMDL
MODEL      613
REMARK  Name = ZINC000005370859
REMARK                            x       y       z     vdW  Elec       q    Type
REMARK                         _______ _______ _______ _____ _____    ______ ____
ROOT
ATOM      1  C1* LIG    1       -0.008  -4.184   0.160  0.00  0.00    +0.430 C 
ATOM      2  O4* LIG    1        1.285  -4.718   0.518  0.00  0.00    -0.360 OA
ATOM      3  C4* LIG    1        1.044  -6.098   0.867  0.00  0.00    +0.140 C 
ATOM      4  C3* LIG    1       -0.276  -6.078   1.669  0.00  0.00    +0.120 C 
ATOM      5  C2* LIG    1       -0.986  -4.789   1.192  0.00  0.00    +0.180 C 
ENDROOT
BRANCH   1   9
ATOM      6  C   LIG    1        0.002  -0.004   0.002  0.00  0.00    +0.680 C 
ATOM      7  N   LIG    1       -1.129  -0.689   0.004  0.00  0.00    -0.650 NA
ATOM      8  C   LIG    1       -1.129  -2.025   0.027  0.00  0.00    +0.710 C 
ATOM      9  N   LIG    1       -0.002  -2.723   0.260  0.00  0.00    -0.640 N 
ATOM     10  C   LIG    1        1.234  -2.014   0.614  0.00  0.00    +0.550 C 
ATOM     11  O   LIG    1       -2.171  -2.625  -0.168  0.00  0.00    -0.550 OA
ATOM     12  N   LIG    1        1.193  -0.681  -0.013  0.00  0.00    -0.770 N 
ATOM     13  H   LIG    1        1.985  -0.294  -0.418  0.00  0.00    +0.410 HD
BRANCH   6  14
ATOM     14  N   LIG    1       -0.016   1.360   0.009  0.00  0.00    -0.810 N 
ATOM     15  H   LIG    1       -0.863   1.833   0.016  0.00  0.00    +0.430 HD
ATOM     16  H   LIG    1        0.817   1.856   0.004  0.00  0.00    +0.410 HD
ENDBRANCH   6  14
ENDBRANCH   1   9
BRANCH   4  17
ATOM     17  O3* LIG    1       -0.009  -6.017   3.072  0.00  0.00    -0.540 OA
ATOM     18  H3* LIG    1        0.487  -6.775   3.411  0.00  0.00    +0.380 HD
ENDBRANCH   4  17
BRANCH   5  19
ATOM     19  O2* LIG    1       -1.181  -3.890   2.285  0.00  0.00    -0.530 OA
ATOM     20  H2* LIG    1       -1.739  -4.245   2.991  0.00  0.00    +0.380 HD
ENDBRANCH   5  19
BRANCH   3  21
ATOM     21  C5* LIG    1        2.186  -6.637   1.730  0.00  0.00    +0.210 C 
BRANCH  21  22
ATOM     22  O5* LIG    1        3.386  -6.689   0.955  0.00  0.00    -0.560 OA
ATOM     23  H5* LIG    1        4.153  -7.021   1.440  0.00  0.00    +0.380 HD
ENDBRANCH  21  22
ENDBRANCH   3  21
TORSDOF 6
ENDMDL
MODEL      614
REMARK  Name = ZINC000095887419
REMARK                            x       y       z     vdW  Elec       q    Type
REMARK                         _______ _______ _______ _____ _____    ______ ____
ROOT
ATOM      1  C   LIG    1       -0.018   1.503   0.010  0.00  0.00    +0.170 C 
ATOM      2  C   LIG    1        0.002  -0.004   0.002  0.00  0.00    +0.220 A 
ATOM      3  C   LIG    1       -1.156  -0.698   0.004  0.00  0.00    -0.270 A 
ATOM      4  C   LIG    1       -1.111  -2.113  -0.005  0.00  0.00    +0.560 A 
ATOM      5  N   LIG    1        0.084  -2.737  -0.014  0.00  0.00    -0.660 N 
ATOM      6  H   LIG    1        0.123  -3.706  -0.020  0.00  0.00    +0.430 HD
ATOM      7  C   LIG    1        1.224  -2.020  -0.016  0.00  0.00    +0.700 A 
ATOM      8  O   LIG    1        2.294  -2.597  -0.024  0.00  0.00    -0.540 OA
ATOM      9  O   LIG    1       -2.142  -2.761  -0.004  0.00  0.00    -0.490 OA
ATOM     10  N   LIG    1        1.194  -0.675  -0.013  0.00  0.00    -0.630 N 
ATOM     11  H   LIG    1        2.026  -0.177  -0.014  0.00  0.00    +0.440 HD
ENDROOT
BRANCH   3  12
ATOM     12  C   LIG    1       -2.479   0.024   0.014  0.00  0.00    +0.240 C 
ATOM     13  C   LIG    1       -3.267  -0.280  -1.280  0.00  0.00    +0.000 C 
ATOM     14  C   LIG    1       -4.737  -0.370  -0.811  0.00  0.00    +0.160 C 
ATOM     15  C   LIG    1       -4.663  -0.110   0.710  0.00  0.00    +0.180 C 
ATOM     16  O   LIG    1       -3.314  -0.472   1.083  0.00  0.00    -0.340 OA
BRANCH  14  17
ATOM     17  O   LIG    1       -5.529   0.630  -1.455  0.00  0.00    -0.560 OA
ATOM     18  H   LIG    1       -5.561   0.548  -2.418  0.00  0.00    +0.380 HD
ENDBRANCH  14  17
BRANCH  15  19
ATOM     19  C   LIG    1       -5.676  -0.986   1.450  0.00  0.00    +0.200 C 
BRANCH  19  20
ATOM     20  O   LIG    1       -5.673  -0.648   2.838  0.00  0.00    -0.570 OA
ATOM     21  H   LIG    1       -6.294  -1.165   3.370  0.00  0.00    +0.380 HD
ENDBRANCH  19  20
ENDBRANCH  15  19
ENDBRANCH   3  12
TORSDOF 4
ENDMDL
MODEL      615
REMARK  Name = ZINC000014420733
REMARK                            x       y       z     vdW  Elec       q    Type
REMARK                         _______ _______ _______ _____ _____    ______ ____
ROOT
ATOM      1  C   LIG    1        0.739  -2.004  -1.265  0.00  0.00    +0.130 A 
ATOM      2  C   LIG    1        0.232  -2.693  -2.362  0.00  0.00    +0.210 A 
ATOM      3  N   LIG    1        0.241  -4.011  -2.388  0.00  0.00    -0.350 NA
ATOM      4  C   LIG    1        0.739  -4.683  -1.359  0.00  0.00    -0.070 A 
ATOM      5  C   LIG    1        0.774  -6.155  -1.337  0.00  0.00    +0.580 A 
ATOM      6  N   LIG    1        1.301  -6.752  -0.243  0.00  0.00    -0.660 N 
ATOM      7  H   LIG    1        1.341  -7.720  -0.193  0.00  0.00    +0.420 HD
ATOM      8  C   LIG    1        1.777  -6.001   0.791  0.00  0.00    +0.670 A 
ATOM      9  N   LIG    1        1.756  -4.691   0.793  0.00  0.00    -0.580 NA
ATOM     10  O   LIG    1        0.345  -6.811  -2.269  0.00  0.00    -0.470 OA
ATOM     11  C   LIG    1        1.256  -3.989  -0.240  0.00  0.00    +0.370 A 
ATOM     12  N   LIG    1        1.242  -2.655  -0.235  0.00  0.00    -0.440 NA
ENDROOT
BRANCH   8  13
ATOM     13  N   LIG    1        2.303  -6.647   1.880  0.00  0.00    -0.810 N 
ATOM     14  H   LIG    1        2.647  -6.135   2.628  0.00  0.00    +0.430 HD
ATOM     15  H   LIG    1        2.330  -7.616   1.902  0.00  0.00    +0.420 HD
ENDBRANCH   8  13
BRANCH   1  16
ATOM     16  C   LIG    1        0.718  -0.497  -1.257  0.00  0.00    +0.300 C 
BRANCH  16  18
ATOM     17  C   LIG    1       -0.019   1.526   0.010  0.00  0.00    +0.030 C 
ATOM     18  C   LIG    1        0.002  -0.004   0.002  0.00  0.00    +0.150 C 
BRANCH  18  19
ATOM     19  O   LIG    1       -1.339  -0.499   0.012  0.00  0.00    -0.560 OA
ATOM     20  H   LIG    1       -1.853  -0.225   0.784  0.00  0.00    +0.390 HD
ENDBRANCH  18  19
ENDBRANCH  16  18
BRANCH  16  21
ATOM     21  O   LIG    1        2.059  -0.003  -1.267  0.00  0.00    -0.540 OA
ATOM     22  H   LIG    1        2.588  -0.285  -0.508  0.00  0.00    +0.390 HD
ENDBRANCH  16  21
ENDBRANCH   1  16
TORSDOF 5
ENDMDL
MODEL      616
REMARK  Name = ZINC000013815079
REMARK                            x       y       z     vdW  Elec       q    Type
REMARK                         _______ _______ _______ _____ _____    ______ ____
ROOT
ATOM      1  C   LIG    1       -1.413  -2.059   0.130  0.00  0.00    +0.220 C 
ATOM      2  C   LIG    1       -2.851  -2.600   0.123  0.00  0.00    +0.290 C 
ATOM      3  N   LIG    1       -3.453  -2.285  -1.181  0.00  0.00    -0.730 N 
ATOM      4  H   LIG    1       -4.351  -1.921  -1.232  0.00  0.00    +0.400 HD
ATOM      5  C   LIG    1       -2.725  -2.513  -2.331  0.00  0.00    +0.340 A 
ATOM      6  C   LIG    1       -1.372  -2.686  -2.268  0.00  0.00    -0.050 A 
ATOM      7  C   LIG    1       -0.654  -2.912  -3.459  0.00  0.00    +0.540 A 
ATOM      8  N   LIG    1       -1.313  -2.956  -4.628  0.00  0.00    -0.630 NA
ATOM      9  C   LIG    1       -2.618  -2.791  -4.678  0.00  0.00    +0.660 A 
ATOM     10  O   LIG    1        0.559  -3.066  -3.429  0.00  0.00    -0.530 OA
ATOM     11  N   LIG    1       -3.348  -2.569  -3.551  0.00  0.00    -0.640 N 
ATOM     12  H   LIG    1       -4.309  -2.450  -3.611  0.00  0.00    +0.410 HD
ATOM     13  N   LIG    1       -0.705  -2.638  -1.023  0.00  0.00    -0.720 N 
ATOM     14  H   LIG    1        0.198  -2.979  -0.931  0.00  0.00    +0.410 HD
ENDROOT
BRANCH   9  15
ATOM     15  N   LIG    1       -3.256  -2.844  -5.891  0.00  0.00    -0.820 N 
ATOM     16  H   LIG    1       -4.217  -2.723  -5.939  0.00  0.00    +0.410 HD
ATOM     17  H   LIG    1       -2.745  -3.002  -6.700  0.00  0.00    +0.430 HD
ENDBRANCH   9  15
BRANCH   1  18
ATOM     18  C   LIG    1       -1.433  -0.534   0.013  0.00  0.00    +0.210 C 
BRANCH  18  20
ATOM     19  C   LIG    1       -0.019   1.526   0.010  0.00  0.00    +0.010 C 
ATOM     20  C   LIG    1        0.002  -0.004   0.002  0.00  0.00    +0.140 C 
BRANCH  20  21
ATOM     21  O   LIG    1        0.693  -0.477   1.160  0.00  0.00    -0.570 OA
ATOM     22  H   LIG    1        1.611  -0.180   1.219  0.00  0.00    +0.380 HD
ENDBRANCH  20  21
ENDBRANCH  18  20
BRANCH  18  23
ATOM     23  O   LIG    1       -2.137   0.021   1.126  0.00  0.00    -0.560 OA
ATOM     24  H   LIG    1       -1.747  -0.195   1.985  0.00  0.00    +0.380 HD
ENDBRANCH  18  23
ENDBRANCH   1  18
TORSDOF 5
ENDMDL
MODEL      617
REMARK  Name = ZINC000217402770
REMARK                            x       y       z     vdW  Elec       q    Type
REMARK                         _______ _______ _______ _____ _____    ______ ____
ROOT
ATOM      1  O   LIG    1        0.002  -0.004   0.002  0.00  0.00    -0.540 OA
ATOM      2  C   LIG    1       -0.014   1.209   0.009  0.00  0.00    +0.630 C 
ATOM      3  N   LIG    1        1.143   1.898   0.001  0.00  0.00    -0.600 N 
ENDROOT
BRANCH   3   4
ATOM      4  C   LIG    1        2.422   1.183  -0.015  0.00  0.00    +0.260 C 
ATOM      5  C   LIG    1        2.495   0.262  -1.245  0.00  0.00    +0.070 C 
ATOM      6  C   LIG    1        3.673  -0.715  -1.062  0.00  0.00    -0.310 C 
ATOM      7  S   LIG    1        3.858  -0.904   0.748  0.00  0.00    +2.390 S 
ATOM      8  O   LIG    1        5.119  -0.386   1.149  0.00  0.00    -0.940 OA
ATOM      9  O   LIG    1        3.481  -2.222   1.125  0.00  0.00    -0.930 OA
ATOM     10  C   LIG    1        2.534   0.269   1.232  0.00  0.00    -0.310 C 
ENDBRANCH   3   4
BRANCH   3  11
ATOM     11  C   LIG    1        1.124   3.363   0.009  0.00  0.00    +0.270 C 
BRANCH  11  12
ATOM     12  C   LIG    1        1.131   3.865   1.455  0.00  0.00    +0.190 C 
BRANCH  12  13
ATOM     13  O   LIG    1       -0.023   3.370   2.137  0.00  0.00    -0.540 OA
ATOM     14  H   LIG    1       -0.862   3.646   1.743  0.00  0.00    +0.370 HD
ENDBRANCH  12  13
BRANCH  12  15
ATOM     15  C   LIG    1        1.110   5.395   1.463  0.00  0.00    +0.160 C 
BRANCH  15  16
ATOM     16  O   LIG    1        1.234   5.866   2.807  0.00  0.00    -0.560 OA
ATOM     17  H   LIG    1        1.228   6.829   2.888  0.00  0.00    +0.380 HD
ENDBRANCH  15  16
ENDBRANCH  12  15
ENDBRANCH  11  12
ENDBRANCH   3  11
TORSDOF 6
ENDMDL
MODEL      618
REMARK  Name = ZINC000257213887
REMARK                            x       y       z     vdW  Elec       q    Type
REMARK                         _______ _______ _______ _____ _____    ______ ____
ROOT
ATOM      1  C   LIG    1       -2.883  -2.333   0.017  0.00  0.00    +0.530 C 
ATOM      2  N   LIG    1       -3.215  -3.639   0.013  0.00  0.00    -0.620 N 
ATOM      3  C   LIG    1       -2.269  -4.764   0.005  0.00  0.00    +0.240 C 
ATOM      4  C   LIG    1       -3.101  -6.063   0.031  0.00  0.00    +0.170 C 
ATOM      5  C   LIG    1       -4.456  -5.596   0.624  0.00  0.00    +0.260 C 
ATOM      6  C   LIG    1       -4.588  -4.176   0.023  0.00  0.00    +0.270 C 
ATOM      7  O   LIG    1       -3.751  -1.486   0.030  0.00  0.00    -0.510 OA
ENDROOT
BRANCH   5   8
ATOM      8  N   LIG    1       -5.551  -6.461   0.179  0.00  0.00    -0.720 N 
ATOM      9  H   LIG    1       -5.471  -6.957  -0.651  0.00  0.00    +0.400 HD
ATOM     10  C   LIG    1       -6.670  -6.569   0.922  0.00  0.00    +0.510 C 
ATOM     11  O   LIG    1       -6.771  -5.950   1.960  0.00  0.00    -0.540 OA
ATOM     12  C   LIG    1       -7.796  -7.460   0.465  0.00  0.00    +0.110 C 
ENDBRANCH   5   8
BRANCH   4  13
ATOM     13  O   LIG    1       -2.487  -7.040   0.874  0.00  0.00    -0.550 OA
ATOM     14  H   LIG    1       -1.603  -7.309   0.586  0.00  0.00    +0.390 HD
ENDBRANCH   4  13
BRANCH   1  15
ATOM     15  C   LIG    1       -1.432  -1.925   0.005  0.00  0.00    +0.210 C 
BRANCH  15  16
ATOM     16  O   LIG    1       -1.339  -0.499   0.012  0.00  0.00    -0.370 OA
BRANCH  16  18
ATOM     17  C   LIG    1       -0.019   1.526   0.010  0.00  0.00    +0.060 C 
ATOM     18  C   LIG    1        0.002  -0.004   0.002  0.00  0.00    +0.160 C 
ENDBRANCH  16  18
ENDBRANCH  15  16
ENDBRANCH   1  15
TORSDOF 5
ENDMDL
MODEL      619
REMARK  Name = ZINC000006861655
REMARK                            x       y       z     vdW  Elec       q    Type
REMARK                         _______ _______ _______ _____ _____    ______ ____
ROOT
ATOM      1  O   LIG    1        1.613   2.782   1.986  0.00  0.00    -0.500 OA
ATOM      2  C   LIG    1        0.834   2.680   1.058  0.00  0.00    +0.620 C 
ATOM      3  N   LIG    1        1.143   1.902   0.001  0.00  0.00    -0.630 N 
ATOM      4  H   LIG    1        0.494   1.762  -0.705  0.00  0.00    +0.430 HD
ENDROOT
BRANCH   3   5
ATOM      5  C   LIG    1        2.408   1.293  -0.076  0.00  0.00    -0.030 A 
ATOM      6  C   LIG    1        2.524  -0.054  -0.173  0.00  0.00    +0.360 A 
ATOM      7  N   LIG    1        3.770  -0.621  -0.248  0.00  0.00    -0.630 N 
ATOM      8  H   LIG    1        3.850  -1.585  -0.317  0.00  0.00    +0.440 HD
ATOM      9  C   LIG    1        4.881   0.133  -0.226  0.00  0.00    +0.700 A 
ATOM     10  N   LIG    1        4.824   1.474  -0.131  0.00  0.00    -0.650 N 
ATOM     11  H   LIG    1        5.643   1.992  -0.117  0.00  0.00    +0.440 HD
ATOM     12  O   LIG    1        5.967  -0.410  -0.294  0.00  0.00    -0.530 OA
ATOM     13  C   LIG    1        3.630   2.100  -0.060  0.00  0.00    +0.550 A 
ATOM     14  O   LIG    1        3.571   3.313   0.026  0.00  0.00    -0.490 OA
ENDBRANCH   3   5
BRANCH   2  15
ATOM     15  C   LIG    1       -0.451   3.402   1.090  0.00  0.00    +0.130 A 
ATOM     16  N   LIG    1       -1.386   3.379   0.164  0.00  0.00    -0.240 NA
ATOM     17  N   LIG    1       -2.367   4.126   0.527  0.00  0.00    -0.290 NA
ATOM     18  C   LIG    1       -2.113   4.661   1.696  0.00  0.00    +0.430 A 
ATOM     19  N   LIG    1       -0.902   4.220   2.093  0.00  0.00    -0.550 N 
ATOM     20  H   LIG    1       -0.442   4.441   2.917  0.00  0.00    +0.440 HD
ENDBRANCH   2  15
TORSDOF 2
ENDMDL
MODEL      620
REMARK  Name = ZINC000006452786
REMARK                            x       y       z     vdW  Elec       q    Type
REMARK                         _______ _______ _______ _____ _____    ______ ____
ROOT
ATOM      1  O   LIG    1       -0.000  -0.003   0.026  0.00  0.00    -0.500 OA
ATOM      2  C   LIG    1       -0.015   1.213   0.024  0.00  0.00    +0.630 C 
ATOM      3  N   LIG    1        1.143   1.901   0.001  0.00  0.00    -0.630 N 
ATOM      4  H   LIG    1        1.132   2.868  -0.077  0.00  0.00    +0.450 HD
ENDROOT
BRANCH   3   5
ATOM      5  C   LIG    1        2.344   1.232   0.090  0.00  0.00    +0.440 A 
ATOM      6  C   LIG    1        3.514   1.928   0.192  0.00  0.00    -0.150 A 
ATOM      7  C   LIG    1        4.724   1.218   0.281  0.00  0.00    +0.560 A 
ATOM      8  N   LIG    1        4.708  -0.129   0.266  0.00  0.00    -0.660 N 
ATOM      9  H   LIG    1        5.542  -0.621   0.327  0.00  0.00    +0.430 HD
ATOM     10  C   LIG    1        3.545  -0.798   0.165  0.00  0.00    +0.710 A 
ATOM     11  O   LIG    1        3.552  -2.014   0.153  0.00  0.00    -0.530 OA
ATOM     12  O   LIG    1        5.781   1.818   0.373  0.00  0.00    -0.510 OA
ATOM     13  N   LIG    1        2.373  -0.141   0.083  0.00  0.00    -0.640 N 
ATOM     14  H   LIG    1        1.544  -0.641   0.011  0.00  0.00    +0.440 HD
ENDBRANCH   3   5
BRANCH   2  15
ATOM     15  C   LIG    1       -1.300   1.934   0.040  0.00  0.00    +0.110 A 
ATOM     16  N   LIG    1       -1.466   3.240   0.034  0.00  0.00    -0.220 NA
ATOM     17  N   LIG    1       -2.723   3.512   0.052  0.00  0.00    -0.280 NA
ATOM     18  C   LIG    1       -3.420   2.402   0.070  0.00  0.00    +0.440 A 
ATOM     19  N   LIG    1       -2.551   1.373   0.057  0.00  0.00    -0.540 N 
ATOM     20  H   LIG    1       -2.766   0.427   0.065  0.00  0.00    +0.440 HD
ENDBRANCH   2  15
TORSDOF 2
ENDMDL
MODEL      621
REMARK  Name = ZINC000142539881
REMARK                            x       y       z     vdW  Elec       q    Type
REMARK                         _______ _______ _______ _____ _____    ______ ____
ROOT
ATOM      1  C   LIG    1       -1.330   1.944   0.019  0.00  0.00    +0.210 C 
ENDROOT
BRANCH   1   3
ATOM      2  O   LIG    1        0.002  -0.004   0.002  0.00  0.00    -0.520 OA
ATOM      3  C   LIG    1       -0.014   1.209   0.009  0.00  0.00    +0.500 C 
ATOM      4  N   LIG    1        1.143   1.898   0.001  0.00  0.00    -0.700 N 
ATOM      5  H   LIG    1        1.130   2.868   0.007  0.00  0.00    +0.400 HD
BRANCH   4   6
ATOM      6  C   LIG    1        2.422   1.183  -0.015  0.00  0.00    +0.220 C 
ATOM      7  C   LIG    1        3.509   1.701  -0.959  0.00  0.00    +0.010 C 
ATOM      8  C   LIG    1        3.644   1.909   0.551  0.00  0.00    +0.020 C 
ENDBRANCH   4   6
ENDBRANCH   1   3
BRANCH   1   9
ATOM      9  O   LIG    1       -2.400   1.005   0.136  0.00  0.00    -0.520 OA
ATOM     10  H   LIG    1       -2.439   0.361  -0.584  0.00  0.00    +0.390 HD
ENDBRANCH   1   9
BRANCH   1  11
ATOM     11  C   LIG    1       -1.483   2.732  -1.283  0.00  0.00    +0.210 C 
BRANCH  11  12
ATOM     12  C   LIG    1       -2.849   3.369  -1.327  0.00  0.00    +0.500 C 
ATOM     13  N   LIG    1       -3.178   4.319  -0.431  0.00  0.00    -0.700 N 
ATOM     14  H   LIG    1       -2.537   4.594   0.243  0.00  0.00    +0.400 HD
ATOM     15  O   LIG    1       -3.651   3.025  -2.170  0.00  0.00    -0.520 OA
BRANCH  13  16
ATOM     16  C   LIG    1       -4.506   4.938  -0.474  0.00  0.00    +0.220 C 
ATOM     17  C   LIG    1       -5.235   5.137   0.856  0.00  0.00    +0.010 C 
ATOM     18  C   LIG    1       -4.650   6.342   0.117  0.00  0.00    +0.020 C 
ENDBRANCH  13  16
ENDBRANCH  11  12
BRANCH  11  19
ATOM     19  O   LIG    1       -1.334   1.848  -2.396  0.00  0.00    -0.520 OA
ATOM     20  H   LIG    1       -1.982   1.131  -2.418  0.00  0.00    +0.390 HD
ENDBRANCH  11  19
ENDBRANCH   1  11
TORSDOF 7
ENDMDL
MODEL      622
REMARK  Name = ZINC000142539678
REMARK                            x       y       z     vdW  Elec       q    Type
REMARK                         _______ _______ _______ _____ _____    ______ ____
ROOT
ATOM      1  C   LIG    1       -1.330   1.944   0.019  0.00  0.00    +0.200 C 
ENDROOT
BRANCH   1   3
ATOM      2  O   LIG    1        0.002  -0.004   0.002  0.00  0.00    -0.530 OA
ATOM      3  C   LIG    1       -0.014   1.209   0.009  0.00  0.00    +0.500 C 
ATOM      4  N   LIG    1        1.143   1.898   0.001  0.00  0.00    -0.690 N 
ATOM      5  H   LIG    1        1.130   2.868   0.007  0.00  0.00    +0.400 HD
BRANCH   4   6
ATOM      6  C   LIG    1        2.422   1.183  -0.015  0.00  0.00    +0.210 C 
ATOM      7  C   LIG    1        3.509   1.701  -0.959  0.00  0.00    +0.010 C 
ATOM      8  C   LIG    1        3.644   1.909   0.551  0.00  0.00    +0.020 C 
ENDBRANCH   4   6
ENDBRANCH   1   3
BRANCH   1   9
ATOM      9  O   LIG    1       -2.400   1.005   0.136  0.00  0.00    -0.520 OA
ATOM     10  H   LIG    1       -2.439   0.361  -0.584  0.00  0.00    +0.390 HD
ENDBRANCH   1   9
BRANCH   1  11
ATOM     11  C   LIG    1       -1.483   2.732  -1.283  0.00  0.00    +0.200 C 
BRANCH  11  12
ATOM     12  C   LIG    1       -2.798   3.468  -1.273  0.00  0.00    +0.500 C 
ATOM     13  N   LIG    1       -3.956   2.778  -1.272  0.00  0.00    -0.690 N 
ATOM     14  H   LIG    1       -3.943   1.808  -1.277  0.00  0.00    +0.400 HD
ATOM     15  O   LIG    1       -2.815   4.681  -1.266  0.00  0.00    -0.530 OA
BRANCH  13  16
ATOM     16  C   LIG    1       -5.235   3.494  -1.262  0.00  0.00    +0.210 C 
ATOM     17  C   LIG    1       -6.335   2.986  -2.195  0.00  0.00    +0.010 C 
ATOM     18  C   LIG    1       -6.449   2.762  -0.686  0.00  0.00    +0.030 C 
ENDBRANCH  13  16
ENDBRANCH  11  12
BRANCH  11  19
ATOM     19  O   LIG    1       -0.413   3.672  -1.401  0.00  0.00    -0.520 OA
ATOM     20  H   LIG    1       -0.374   4.316  -0.680  0.00  0.00    +0.390 HD
ENDBRANCH  11  19
ENDBRANCH   1  11
TORSDOF 7
ENDMDL
MODEL      623
REMARK  Name = ZINC000142540080
REMARK                            x       y       z     vdW  Elec       q    Type
REMARK                         _______ _______ _______ _____ _____    ______ ____
ROOT
ATOM      1  C   LIG    1       -1.330   1.944   0.019  0.00  0.00    +0.210 C 
ENDROOT
BRANCH   1   3
ATOM      2  O   LIG    1        0.002  -0.004   0.002  0.00  0.00    -0.520 OA
ATOM      3  C   LIG    1       -0.014   1.209   0.009  0.00  0.00    +0.500 C 
ATOM      4  N   LIG    1        1.143   1.898   0.001  0.00  0.00    -0.700 N 
ATOM      5  H   LIG    1        1.130   2.868   0.007  0.00  0.00    +0.400 HD
BRANCH   4   6
ATOM      6  C   LIG    1        2.422   1.183  -0.015  0.00  0.00    +0.220 C 
ATOM      7  C   LIG    1        3.509   1.701  -0.959  0.00  0.00    +0.010 C 
ATOM      8  C   LIG    1        3.644   1.909   0.551  0.00  0.00    +0.020 C 
ENDBRANCH   4   6
ENDBRANCH   1   3
BRANCH   1   9
ATOM      9  O   LIG    1       -2.401   1.006  -0.099  0.00  0.00    -0.520 OA
ATOM     10  H   LIG    1       -2.433   0.354   0.615  0.00  0.00    +0.390 HD
ENDBRANCH   1   9
BRANCH   1  11
ATOM     11  C   LIG    1       -1.471   2.718   1.331  0.00  0.00    +0.210 C 
BRANCH  11  12
ATOM     12  C   LIG    1       -2.836   3.354   1.395  0.00  0.00    +0.500 C 
ATOM     13  N   LIG    1       -3.174   4.314   0.512  0.00  0.00    -0.700 N 
ATOM     14  H   LIG    1       -2.539   4.596  -0.165  0.00  0.00    +0.400 HD
ATOM     15  O   LIG    1       -3.630   3.001   2.241  0.00  0.00    -0.520 OA
BRANCH  13  16
ATOM     16  C   LIG    1       -4.501   4.932   0.574  0.00  0.00    +0.220 C 
ATOM     17  C   LIG    1       -4.580   6.452   0.420  0.00  0.00    +0.010 C 
ATOM     18  C   LIG    1       -5.057   5.542  -0.714  0.00  0.00    +0.020 C 
ENDBRANCH  13  16
ENDBRANCH  11  12
BRANCH  11  19
ATOM     19  O   LIG    1       -1.311   1.822   2.433  0.00  0.00    -0.520 OA
ATOM     20  H   LIG    1       -1.959   1.104   2.453  0.00  0.00    +0.390 HD
ENDBRANCH  11  19
ENDBRANCH   1  11
TORSDOF 7
ENDMDL
MODEL      624
REMARK  Name = ZINC000001719088
REMARK                            x       y       z     vdW  Elec       q    Type
REMARK                         _______ _______ _______ _____ _____    ______ ____
ROOT
ATOM      1  C   LIG    1       -1.227   5.107   2.308  0.00  0.00    +0.160 C 
ATOM      2  C   LIG    1       -2.074   5.833   1.242  0.00  0.00    +0.050 C 
ATOM      3  C   LIG    1       -3.429   6.093   1.946  0.00  0.00    +0.030 C 
ATOM      4  C   LIG    1       -3.001   6.441   3.394  0.00  0.00    +0.040 C 
ATOM      5  C   LIG    1       -1.817   5.494   3.676  0.00  0.00    +0.050 C 
ENDROOT
BRANCH   1   7
ATOM      6  C   LIG    1       -0.782   3.091   1.015  0.00  0.00    +0.490 C 
ATOM      7  N   LIG    1       -1.314   3.657   2.116  0.00  0.00    -0.690 N 
ATOM      8  H   LIG    1       -1.754   3.105   2.781  0.00  0.00    +0.410 HD
ATOM      9  O   LIG    1       -0.312   3.788   0.141  0.00  0.00    -0.510 OA
BRANCH   6  10
ATOM     10  C   LIG    1       -0.770   1.591   0.870  0.00  0.00    +0.300 C 
BRANCH  10  11
ATOM     11  N   LIG    1       -0.141   1.227  -0.406  0.00  0.00    -0.620 N 
ATOM     12  H   LIG    1       -0.664   1.634  -1.167  0.00  0.00    +0.440 HD
ATOM     13  H   LIG    1        0.806   1.573  -0.425  0.00  0.00    +0.450 HD
ATOM     14  H   LIG    1       -0.134   0.222  -0.503  0.00  0.00    +0.440 HD
ENDBRANCH  10  11
ENDBRANCH   6  10
ENDBRANCH   1   7
BRANCH   1  15
ATOM     15  C   LIG    1        0.209   5.554   2.220  0.00  0.00    +0.510 C 
ATOM     16  N   LIG    1        1.192   4.762   2.692  0.00  0.00    -0.700 N 
ATOM     17  H   LIG    1        0.971   3.938   3.154  0.00  0.00    +0.400 HD
ATOM     18  O   LIG    1        0.481   6.627   1.724  0.00  0.00    -0.530 OA
BRANCH  16  19
ATOM     19  C   LIG    1        2.594   5.145   2.508  0.00  0.00    +0.190 C 
BRANCH  19  20
ATOM     20  C   LIG    1        3.486   4.098   3.123  0.00  0.00    +0.490 C 
ATOM     21  O   LIG    1        4.697   4.226   3.079  0.00  0.00    -0.680 OA
ATOM     22  O   LIG    1        2.996   3.122   3.665  0.00  0.00    -0.700 OA
ENDBRANCH  19  20
ENDBRANCH  16  19
ENDBRANCH   1  15
TORSDOF 6
ENDMDL
MODEL      625
REMARK  Name = ZINC000004899608
REMARK                            x       y       z     vdW  Elec       q    Type
REMARK                         _______ _______ _______ _____ _____    ______ ____
ROOT
ATOM      1  C   GLY A  1       -2.113   0.957   1.227  0.00  0.00    +0.510 C 
ATOM      2  N   PRO A  2       -2.938   1.266   2.247  0.00  0.00    -0.580 N 
ATOM      3  CD  PRO A  2       -2.591   2.105   3.409  0.00  0.00    +0.260 C 
ATOM      4  CG  PRO A  2       -3.945   2.656   3.918  0.00  0.00    +0.050 C 
ATOM      5  CB  PRO A  2       -4.882   1.441   3.689  0.00  0.00    +0.070 C 
ATOM      6  CA  PRO A  2       -4.334   0.827   2.384  0.00  0.00    +0.230 C 
ATOM      7  O   GLY A  1       -2.509   0.259   0.317  0.00  0.00    -0.510 OA
ENDROOT
BRANCH   6   8
ATOM      8  C   PRO A  2       -5.149   1.305   1.210  0.00  0.00    +0.500 C 
ATOM      9  N   GLY A  3       -6.464   1.018   1.141  0.00  0.00    -0.690 N 
ATOM     10  H   GLY A  3       -6.886   0.504   1.847  0.00  0.00    +0.410 HD
ATOM     11  O   PRO A  2       -4.622   1.948   0.327  0.00  0.00    -0.550 OA
BRANCH   9  12
ATOM     12  CA  GLY A  3       -7.257   1.484   0.000  0.00  0.00    +0.190 C 
BRANCH  12  13
ATOM     13  C   GLY A  3       -8.686   1.034   0.164  0.00  0.00    +0.490 C 
ATOM     14  OXT GLY A  3       -9.515   1.319  -0.682  0.00  0.00    -0.680 OA
ATOM     15  O   GLY A  3       -9.012   0.385   1.144  0.00  0.00    -0.690 OA
ENDBRANCH  12  13
ENDBRANCH   9  12
ENDBRANCH   6   8
BRANCH   1  16
ATOM     16  CA  GLY A  1       -0.699   1.479   1.216  0.00  0.00    +0.300 C 
BRANCH  16  17
ATOM     17  N   GLY A  1       -0.012   1.005   0.008  0.00  0.00    -0.620 N 
ATOM     18  H1  GLY A  1       -0.500   1.339  -0.810  0.00  0.00    +0.440 HD
ATOM     19  H2  GLY A  1        0.935   1.354   0.000  0.00  0.00    +0.440 HD
ATOM     20  H3  GLY A  1        0.002  -0.004   0.002  0.00  0.00    +0.440 HD
ENDBRANCH  16  17
ENDBRANCH   1  16
TORSDOF 5
ENDMDL
MODEL      626
REMARK  Name = ZINC000148959784
REMARK                            x       y       z     vdW  Elec       q    Type
REMARK                         _______ _______ _______ _____ _____    ______ ____
ROOT
ATOM      1  C   LIG    1        0.857  -1.841   1.398  0.00  0.00    +0.450 C 
ATOM      2  N   LIG    1        1.454  -2.373   2.405  0.00  0.00    -0.580 NA
ATOM      3  C   LIG    1        1.579  -3.824   2.485  0.00  0.00    +0.200 C 
ATOM      4  C   LIG    1        0.827  -4.486   1.354  0.00  0.00    +0.260 C 
ATOM      5  O   LIG    1        1.416  -5.503   0.623  0.00  0.00    -0.320 OA
ATOM      6  C   LIG    1        2.816  -5.668   0.589  0.00  0.00    +0.150 C 
ATOM      7  C   LIG    1        3.419  -5.505   1.973  0.00  0.00    +0.130 C 
ATOM      8  C   LIG    1        3.045  -4.189   2.581  0.00  0.00    +0.210 C 
ATOM      9  S   LIG    1        0.244  -3.108   0.325  0.00  0.00    -0.220 S 
ENDROOT
BRANCH   1  10
ATOM     10  N   LIG    1        0.711  -0.489   1.189  0.00  0.00    -0.690 N 
ATOM     11  H   LIG    1        1.077   0.142   1.827  0.00  0.00    +0.410 HD
BRANCH  10  13
ATOM     12  C   LIG    1       -0.019   1.526   0.010  0.00  0.00    +0.050 C 
ATOM     13  C   LIG    1        0.002  -0.004   0.002  0.00  0.00    +0.260 C 
ENDBRANCH  10  13
ENDBRANCH   1  10
BRANCH   7  14
ATOM     14  O   LIG    1        4.842  -5.594   1.877  0.00  0.00    -0.550 OA
ATOM     15  H   LIG    1        5.160  -6.435   1.521  0.00  0.00    +0.390 HD
ENDBRANCH   7  14
BRANCH   8  16
ATOM     16  O   LIG    1        3.788  -3.160   1.926  0.00  0.00    -0.540 OA
ATOM     17  H   LIG    1        4.747  -3.258   2.003  0.00  0.00    +0.380 HD
ENDBRANCH   8  16
BRANCH   6  18
ATOM     18  C   LIG    1        3.144  -7.066   0.061  0.00  0.00    +0.200 C 
BRANCH  18  19
ATOM     19  O   LIG    1        2.714  -7.176  -1.298  0.00  0.00    -0.560 OA
ATOM     20  H   LIG    1        2.891  -8.038  -1.698  0.00  0.00    +0.380 HD
ENDBRANCH  18  19
ENDBRANCH   6  18
TORSDOF 6
ENDMDL
MODEL      627
REMARK  Name = ZINC000001724334
REMARK                            x       y       z     vdW  Elec       q    Type
REMARK                         _______ _______ _______ _____ _____    ______ ____
ROOT
ATOM      1  C   LIG    1       -5.017   1.245   3.498  0.00  0.00    +0.510 C 
ATOM      2  N   LIG    1       -6.301   0.900   3.721  0.00  0.00    -0.690 N 
ATOM      3  H   LIG    1       -6.771   0.340   3.084  0.00  0.00    +0.390 HD
ATOM      4  O   LIG    1       -4.430   1.946   4.294  0.00  0.00    -0.520 OA
ENDROOT
BRANCH   2   5
ATOM      5  C   LIG    1       -6.987   1.373   4.927  0.00  0.00    +0.100 C 
ATOM      6  C   LIG    1       -7.078   2.913   4.913  0.00  0.00    +0.030 C 
ATOM      7  C   LIG    1       -8.482   3.205   4.328  0.00  0.00    +0.000 C 
ATOM      8  C   LIG    1       -9.352   2.086   4.951  0.00  0.00    +0.010 C 
ATOM      9  C   LIG    1       -8.433   0.847   4.951  0.00  0.00    +0.030 C 
BRANCH   5  10
ATOM     10  C   LIG    1       -6.248   0.909   6.156  0.00  0.00    +0.500 C 
ATOM     11  O   LIG    1       -6.657   1.213   7.263  0.00  0.00    -0.690 OA
ATOM     12  O   LIG    1       -5.242   0.230   6.042  0.00  0.00    -0.680 OA
ENDBRANCH   5  10
ENDBRANCH   2   5
BRANCH   1  13
ATOM     13  C   LIG    1       -4.312   0.759   2.258  0.00  0.00    +0.310 C 
BRANCH  13  15
ATOM     14  C   LIG    1       -2.113   0.957   1.227  0.00  0.00    +0.490 C 
ATOM     15  N   LIG    1       -2.938   1.266   2.247  0.00  0.00    -0.680 N 
ATOM     16  H   LIG    1       -2.621   1.824   2.975  0.00  0.00    +0.420 HD
ATOM     17  O   LIG    1       -2.509   0.259   0.317  0.00  0.00    -0.540 OA
BRANCH  14  18
ATOM     18  C   LIG    1       -0.699   1.479   1.216  0.00  0.00    +0.300 C 
BRANCH  18  19
ATOM     19  N   LIG    1       -0.012   1.005   0.008  0.00  0.00    -0.620 N 
ATOM     20  H   LIG    1       -0.500   1.339  -0.810  0.00  0.00    +0.440 HD
ATOM     21  H   LIG    1        0.935   1.354   0.000  0.00  0.00    +0.440 HD
ATOM     22  H   LIG    1        0.002  -0.004   0.002  0.00  0.00    +0.440 HD
ENDBRANCH  18  19
ENDBRANCH  14  18
ENDBRANCH  13  15
ENDBRANCH   1  13
TORSDOF 6
ENDMDL
MODEL      628
REMARK  Name = ZINC000002561009
REMARK                            x       y       z     vdW  Elec       q    Type
REMARK                         _______ _______ _______ _____ _____    ______ ____
ROOT
ATOM      1  C   LIG    1        0.285   0.807   4.854  0.00  0.00    +0.310 C 
ENDROOT
BRANCH   1   3
ATOM      2  C   LIG    1        0.030   0.979   2.437  0.00  0.00    +0.490 C 
ATOM      3  N   LIG    1       -0.423   1.292   3.667  0.00  0.00    -0.700 N 
ATOM      4  H   LIG    1       -1.219   1.839   3.767  0.00  0.00    +0.410 HD
ATOM      5  O   LIG    1        1.024   0.296   2.313  0.00  0.00    -0.530 OA
BRANCH   2   6
ATOM      6  C   LIG    1       -0.699   1.479   1.216  0.00  0.00    +0.290 C 
BRANCH   6   7
ATOM      7  N   LIG    1       -0.012   1.005   0.008  0.00  0.00    -0.620 N 
ATOM      8  H   LIG    1       -0.500   1.339  -0.810  0.00  0.00    +0.440 HD
ATOM      9  H   LIG    1        0.935   1.354   0.000  0.00  0.00    +0.440 HD
ATOM     10  H   LIG    1        0.002  -0.004   0.002  0.00  0.00    +0.440 HD
ENDBRANCH   6   7
ENDBRANCH   2   6
ENDBRANCH   1   3
BRANCH   1  11
ATOM     11  C   LIG    1       -0.431   1.300   6.113  0.00  0.00    +0.040 C 
BRANCH  11  12
ATOM     12  C   LIG    1        0.298   0.801   7.334  0.00  0.00    +0.500 C 
ATOM     13  N   LIG    1       -0.155   1.114   8.564  0.00  0.00    -0.690 N 
ATOM     14  H   LIG    1       -0.951   1.660   8.664  0.00  0.00    +0.410 HD
ATOM     15  O   LIG    1        1.292   0.118   7.209  0.00  0.00    -0.560 OA
BRANCH  13  16
ATOM     16  C   LIG    1        0.553   0.628   9.751  0.00  0.00    +0.190 C 
BRANCH  16  17
ATOM     17  C   LIG    1       -0.152   1.114  10.991  0.00  0.00    +0.490 C 
ATOM     18  O   LIG    1        0.279   0.820  12.092  0.00  0.00    -0.680 OA
ATOM     19  O   LIG    1       -1.154   1.802  10.892  0.00  0.00    -0.690 OA
ENDBRANCH  16  17
ENDBRANCH  13  16
ENDBRANCH  11  12
ENDBRANCH   1  11
TORSDOF 7
ENDMDL
MODEL      629
REMARK  Name = ZINC000002390904
REMARK                            x       y       z     vdW  Elec       q    Type
REMARK                         _______ _______ _______ _____ _____    ______ ____
ROOT
ATOM      1  C   LIG    1        0.285   0.807   4.854  0.00  0.00    +0.310 C 
ENDROOT
BRANCH   1   3
ATOM      2  C   LIG    1        0.030   0.979   2.437  0.00  0.00    +0.500 C 
ATOM      3  N   LIG    1       -0.423   1.292   3.667  0.00  0.00    -0.680 N 
ATOM      4  H   LIG    1       -1.219   1.839   3.767  0.00  0.00    +0.420 HD
ATOM      5  O   LIG    1        1.024   0.296   2.313  0.00  0.00    -0.540 OA
BRANCH   2   6
ATOM      6  C   LIG    1       -0.699   1.479   1.216  0.00  0.00    +0.320 C 
BRANCH   6   7
ATOM      7  N   LIG    1       -0.012   1.005   0.008  0.00  0.00    -0.620 N 
ATOM      8  H   LIG    1       -0.500   1.339  -0.810  0.00  0.00    +0.440 HD
ATOM      9  H   LIG    1        0.935   1.354   0.000  0.00  0.00    +0.440 HD
ATOM     10  H   LIG    1        0.002  -0.004   0.002  0.00  0.00    +0.440 HD
ENDBRANCH   6   7
ENDBRANCH   2   6
ENDBRANCH   1   3
BRANCH   1  11
ATOM     11  C   LIG    1       -0.420   1.293   6.094  0.00  0.00    +0.500 C 
ATOM     12  N   LIG    1        0.056   0.967   7.312  0.00  0.00    -0.710 N 
ATOM     13  H   LIG    1        0.853   0.420   7.390  0.00  0.00    +0.400 HD
ATOM     14  O   LIG    1       -1.417   1.977   5.996  0.00  0.00    -0.540 OA
BRANCH  12  15
ATOM     15  C   LIG    1       -0.629   1.439   8.517  0.00  0.00    +0.280 C 
BRANCH  15  16
ATOM     16  C   LIG    1        0.111   0.932   9.757  0.00  0.00    -0.060 C 
BRANCH  16  17
ATOM     17  C   LIG    1       -0.595   1.419  10.997  0.00  0.00    +0.490 C 
ATOM     18  O   LIG    1       -0.164   1.124  12.098  0.00  0.00    -0.690 OA
ATOM     19  O   LIG    1       -1.597   2.107  10.898  0.00  0.00    -0.690 OA
ENDBRANCH  16  17
ENDBRANCH  15  16
ENDBRANCH  12  15
ENDBRANCH   1  11
TORSDOF 7
ENDMDL
MODEL      630
REMARK  Name = ZINC000202763759
REMARK                            x       y       z     vdW  Elec       q    Type
REMARK                         _______ _______ _______ _____ _____    ______ ____
ROOT
ATOM      1  C   LIG    1       -1.484  -1.756   0.134  0.00  0.00    +0.320 C 
ATOM      2  O   LIG    1       -0.836  -2.096  -1.093  0.00  0.00    -0.380 OA
ATOM      3  C   LIG    1       -0.689  -3.501  -1.305  0.00  0.00    +0.150 C 
ATOM      4  C   LIG    1       -2.071  -4.157  -1.355  0.00  0.00    +0.120 C 
ATOM      5  C   LIG    1       -2.817  -3.858  -0.050  0.00  0.00    +0.180 C 
ATOM      6  C   LIG    1       -2.899  -2.341   0.142  0.00  0.00    +0.250 C 
ENDROOT
BRANCH   6   7
ATOM      7  N   LIG    1       -3.680  -1.750  -0.947  0.00  0.00    -0.690 N 
ATOM      8  H   LIG    1       -3.234  -1.442  -1.752  0.00  0.00    +0.410 HD
ATOM      9  C   LIG    1       -5.018  -1.635  -0.832  0.00  0.00    +0.520 C 
ATOM     10  O   LIG    1       -5.575  -2.021   0.174  0.00  0.00    -0.540 OA
ATOM     11  C   LIG    1       -5.822  -1.028  -1.953  0.00  0.00    +0.080 C 
ENDBRANCH   6   7
BRANCH   5  12
ATOM     12  O   LIG    1       -4.135  -4.405  -0.117  0.00  0.00    -0.530 OA
ATOM     13  H   LIG    1       -4.157  -5.364  -0.245  0.00  0.00    +0.380 HD
ENDBRANCH   5  12
BRANCH   4  14
ATOM     14  O   LIG    1       -2.809  -3.630  -2.459  0.00  0.00    -0.530 OA
ATOM     15  H   LIG    1       -2.392  -3.780  -3.319  0.00  0.00    +0.370 HD
ENDBRANCH   4  14
BRANCH   1  16
ATOM     16  O   LIG    1       -1.556  -0.334   0.257  0.00  0.00    -0.350 OA
BRANCH  16  18
ATOM     17  C   LIG    1       -0.480   1.817   0.498  0.00  0.00    +0.040 C 
ATOM     18  C   LIG    1       -0.283   0.304   0.373  0.00  0.00    +0.170 C 
ENDBRANCH  16  18
ENDBRANCH   1  16
BRANCH   3  19
ATOM     19  C   LIG    1        0.040  -3.744  -2.628  0.00  0.00    +0.210 C 
BRANCH  19  20
ATOM     20  O   LIG    1        1.371  -3.233  -2.540  0.00  0.00    -0.560 OA
ATOM     21  H   LIG    1        1.893  -3.353  -3.346  0.00  0.00    +0.390 HD
ENDBRANCH  19  20
ENDBRANCH   3  19
TORSDOF 7
ENDMDL
MODEL      631
REMARK  Name = ZINC000002561012
REMARK                            x       y       z     vdW  Elec       q    Type
REMARK                         _______ _______ _______ _____ _____    ______ ____
ROOT
ATOM      1  CA  GLN A  2       -2.307  -3.058   0.008  0.00  0.00    +0.160 C 
ENDROOT
BRANCH   1   2
ATOM      2  N   GLN A  2       -3.037  -2.800  -1.236  0.00  0.00    -0.660 N 
ATOM      3  H   GLN A  2       -2.556  -2.530  -2.034  0.00  0.00    +0.400 HD
ATOM      4  C   GLY A  1       -4.378  -2.938  -1.272  0.00  0.00    +0.480 C 
ATOM      5  O   GLY A  1       -4.979  -3.277  -0.274  0.00  0.00    -0.540 OA
BRANCH   4   6
ATOM      6  CA  GLY A  1       -5.129  -2.673  -2.551  0.00  0.00    +0.290 C 
BRANCH   6   7
ATOM      7  N   GLY A  1       -6.564  -2.892  -2.330  0.00  0.00    -0.620 N 
ATOM      8  H1  GLY A  1       -7.067  -2.714  -3.187  0.00  0.00    +0.440 HD
ATOM      9  H2  GLY A  1       -6.893  -2.265  -1.611  0.00  0.00    +0.440 HD
ATOM     10  H3  GLY A  1       -6.719  -3.846  -2.042  0.00  0.00    +0.440 HD
ENDBRANCH   6   7
ENDBRANCH   4   6
ENDBRANCH   1   2
BRANCH   1  11
ATOM     11  C   GLN A  2       -2.013  -4.532   0.121  0.00  0.00    +0.490 C 
ATOM     12  OXT GLN A  2       -1.857  -5.202  -0.886  0.00  0.00    -0.690 OA
ATOM     13  O   GLN A  2       -1.931  -5.055   1.219  0.00  0.00    -0.680 OA
ENDBRANCH   1  11
BRANCH   1  14
ATOM     14  CB  GLN A  2       -0.993  -2.276  -0.001  0.00  0.00    +0.070 C 
BRANCH  14  15
ATOM     15  CG  GLN A  2       -1.293  -0.775   0.010  0.00  0.00    +0.040 C 
BRANCH  15  19
ATOM     16  NE2 GLN A  2       -0.016   1.344   0.009  0.00  0.00    -0.860 N 
ATOM     17 HE21 GLN A  2       -0.863   1.817   0.016  0.00  0.00    +0.400 HD
ATOM     18 HE22 GLN A  2        0.817   1.840   0.004  0.00  0.00    +0.400 HD
ATOM     19  CD  GLN A  2        0.002  -0.004   0.002  0.00  0.00    +0.510 C 
ATOM     20  OE1 GLN A  2        1.060  -0.596  -0.011  0.00  0.00    -0.530 OA
ENDBRANCH  15  19
ENDBRANCH  14  15
ENDBRANCH   1  14
TORSDOF 7
ENDMDL
MODEL      632
REMARK  Name = ZINC000205680157
REMARK                            x       y       z     vdW  Elec       q    Type
REMARK                         _______ _______ _______ _____ _____    ______ ____
ROOT
ATOM      1  C   LIG    1        1.552  -2.473  -0.107  0.00  0.00    +0.540 C 
ATOM      2  N   LIG    1        1.331  -3.674  -0.678  0.00  0.00    -0.640 N 
ATOM      3  C   LIG    1        0.434  -4.813  -0.434  0.00  0.00    +0.320 C 
ATOM      4  C   LIG    1        1.488  -5.714  -1.093  0.00  0.00    -0.030 C 
ATOM      5  C   LIG    1        1.877  -4.418  -1.823  0.00  0.00    +0.300 C 
ATOM      6  O   LIG    1        2.392  -1.728  -0.567  0.00  0.00    -0.520 OA
ENDROOT
BRANCH   1  12
ATOM      7  C   LIG    1       -0.018   1.465   0.010  0.00  0.00    +0.200 C 
ATOM      8  N   LIG    1        0.002  -0.004   0.002  0.00  0.00    -0.540 NA
ATOM      9  C   LIG    1       -1.361  -0.549  -0.075  0.00  0.00    +0.150 C 
ATOM     10  C   LIG    1       -1.291  -2.077  -0.141  0.00  0.00    +0.230 C 
ATOM     11  O   LIG    1       -0.576  -2.566   0.997  0.00  0.00    -0.360 OA
ATOM     12  C   LIG    1        0.756  -2.056   1.102  0.00  0.00    +0.110 C 
ATOM     13  C   LIG    1        1.417  -2.612   2.365  0.00  0.00    +0.090 C 
ATOM     14  C   LIG    1        0.707  -0.528   1.181  0.00  0.00    +0.190 C 
ENDBRANCH   1  12
BRANCH   4  15
ATOM     15  C   LIG    1        0.915  -6.779  -1.993  0.00  0.00    +0.530 C 
ATOM     16  O   LIG    1       -0.285  -6.865  -2.143  0.00  0.00    -0.540 OA
ATOM     17  N   LIG    1        1.737  -7.636  -2.631  0.00  0.00    -0.850 N 
ATOM     18  H   LIG    1        1.369  -8.321  -3.210  0.00  0.00    +0.400 HD
ATOM     19  H   LIG    1        2.697  -7.567  -2.511  0.00  0.00    +0.400 HD
ENDBRANCH   4  15
TORSDOF 2
ENDMDL
MODEL      633
REMARK  Name = ZINC000061707755
REMARK                            x       y       z     vdW  Elec       q    Type
REMARK                         _______ _______ _______ _____ _____    ______ ____
ROOT
ATOM      1  N   LIG    1        1.401  -2.532  -0.162  0.00  0.00    -0.730 N 
ATOM      2  H   LIG    1        1.835  -1.870  -0.723  0.00  0.00    +0.400 HD
ATOM      3  C   LIG    1        1.505  -3.841  -0.462  0.00  0.00    +0.510 C 
ATOM      4  O   LIG    1        0.963  -4.669   0.239  0.00  0.00    -0.520 OA
ENDROOT
BRANCH   1   5
ATOM      5  C   LIG    1        0.633  -2.108   1.011  0.00  0.00    +0.280 C 
BRANCH   5   6
ATOM      6  C   LIG    1        0.673  -0.582   1.123  0.00  0.00    +0.180 C 
BRANCH   6   8
ATOM      7  C   LIG    1       -0.017   1.425   0.010  0.00  0.00    +0.200 C 
ATOM      8  O   LIG    1        0.002  -0.004   0.002  0.00  0.00    -0.390 OA
ENDBRANCH   6   8
ENDBRANCH   5   6
ENDBRANCH   1   5
BRANCH   3   9
ATOM      9  C   LIG    1        2.296  -4.277  -1.669  0.00  0.00    +0.210 C 
BRANCH   9  10
ATOM     10  N   LIG    1        2.257  -5.742  -1.777  0.00  0.00    -0.500 NA
ATOM     11  C   LIG    1        0.918  -6.207  -2.220  0.00  0.00    +0.180 C 
ATOM     12  C   LIG    1        1.201  -7.627  -2.773  0.00  0.00    +0.010 C 
ATOM     13  C   LIG    1        2.575  -7.461  -3.462  0.00  0.00    +0.150 C 
ATOM     14  C   LIG    1        3.210  -6.224  -2.800  0.00  0.00    +0.200 C 
BRANCH  13  15
ATOM     15  O   LIG    1        3.385  -8.617  -3.236  0.00  0.00    -0.560 OA
ATOM     16  H   LIG    1        3.013  -9.434  -3.594  0.00  0.00    +0.380 HD
ENDBRANCH  13  15
ENDBRANCH   9  10
ENDBRANCH   3   9
TORSDOF 6
ENDMDL
MODEL      634
REMARK  Name = ZINC000061707756
REMARK                            x       y       z     vdW  Elec       q    Type
REMARK                         _______ _______ _______ _____ _____    ______ ____
ROOT
ATOM      1  N   LIG    1        1.401  -2.532  -0.162  0.00  0.00    -0.730 N 
ATOM      2  H   LIG    1        1.835  -1.870  -0.723  0.00  0.00    +0.400 HD
ATOM      3  C   LIG    1        1.505  -3.841  -0.462  0.00  0.00    +0.510 C 
ATOM      4  O   LIG    1        0.963  -4.669   0.239  0.00  0.00    -0.520 OA
ENDROOT
BRANCH   1   5
ATOM      5  C   LIG    1        0.633  -2.108   1.011  0.00  0.00    +0.280 C 
BRANCH   5   6
ATOM      6  C   LIG    1        0.673  -0.582   1.123  0.00  0.00    +0.180 C 
BRANCH   6   8
ATOM      7  C   LIG    1       -0.017   1.425   0.010  0.00  0.00    +0.200 C 
ATOM      8  O   LIG    1        0.002  -0.004   0.002  0.00  0.00    -0.390 OA
ENDBRANCH   6   8
ENDBRANCH   5   6
ENDBRANCH   1   5
BRANCH   3   9
ATOM      9  C   LIG    1        2.296  -4.277  -1.669  0.00  0.00    +0.210 C 
BRANCH   9  10
ATOM     10  N   LIG    1        2.257  -5.742  -1.777  0.00  0.00    -0.510 NA
ATOM     11  C   LIG    1        2.592  -6.378  -0.485  0.00  0.00    +0.200 C 
ATOM     12  C   LIG    1        3.340  -7.679  -0.867  0.00  0.00    -0.000 C 
ATOM     13  C   LIG    1        4.158  -7.220  -2.103  0.00  0.00    +0.140 C 
ATOM     14  C   LIG    1        3.207  -6.222  -2.797  0.00  0.00    +0.200 C 
BRANCH  13  15
ATOM     15  O   LIG    1        4.446  -8.328  -2.958  0.00  0.00    -0.560 OA
ATOM     16  H   LIG    1        4.979  -9.018  -2.542  0.00  0.00    +0.380 HD
ENDBRANCH  13  15
ENDBRANCH   9  10
ENDBRANCH   3   9
TORSDOF 6
ENDMDL
MODEL      635
REMARK  Name = ZINC000216592723
REMARK                            x       y       z     vdW  Elec       q    Type
REMARK                         _______ _______ _______ _____ _____    ______ ____
ROOT
ATOM      1  O   LIG    1        0.002  -0.004   0.002  0.00  0.00    -0.550 OA
ATOM      2  C   LIG    1       -0.014   1.209   0.009  0.00  0.00    +0.630 C 
ATOM      3  N   LIG    1        1.143   1.898   0.001  0.00  0.00    -0.620 N 
ATOM      4  C   LIG    1        2.433   1.194  -0.021  0.00  0.00    +0.270 C 
ATOM      5  C   LIG    1        3.246   1.698  -1.220  0.00  0.00    +0.290 C 
ATOM      6  N   LIG    1        3.241   3.168  -1.206  0.00  0.00    -0.620 N 
ATOM      7  C   LIG    1        1.952   3.872  -1.184  0.00  0.00    +0.260 C 
ATOM      8  C   LIG    1        4.399   3.857  -1.215  0.00  0.00    +0.520 C 
ATOM      9  O   LIG    1        5.458   3.265  -1.234  0.00  0.00    -0.510 OA
ATOM     10  C   LIG    1        1.139   3.368   0.009  0.00  0.00    +0.280 C 
ENDROOT
BRANCH   8  11
ATOM     11  C   LIG    1        4.379   5.364  -1.201  0.00  0.00    +0.110 C 
ATOM     12  C   LIG    1        4.106   5.885  -2.614  0.00  0.00    +0.240 C 
ATOM     13  O   LIG    1        4.162   7.314  -2.609  0.00  0.00    -0.380 OA
ATOM     14  C   LIG    1        5.417   7.839  -2.168  0.00  0.00    +0.220 C 
ATOM     15  C   LIG    1        5.703   7.338  -0.750  0.00  0.00    +0.160 C 
ATOM     16  N   LIG    1        5.681   5.868  -0.740  0.00  0.00    -0.670 NA
ATOM     17  H   LIG    1        5.905   5.509   0.175  0.00  0.00    +0.350 HD
ENDBRANCH   8  11
TORSDOF 1
ENDMDL
MODEL      636
REMARK  Name = ZINC000216592776
REMARK                            x       y       z     vdW  Elec       q    Type
REMARK                         _______ _______ _______ _____ _____    ______ ____
ROOT
ATOM      1  O   LIG    1        0.002  -0.004   0.002  0.00  0.00    -0.550 OA
ATOM      2  C   LIG    1       -0.014   1.209   0.009  0.00  0.00    +0.630 C 
ATOM      3  N   LIG    1        1.143   1.898   0.001  0.00  0.00    -0.620 N 
ATOM      4  C   LIG    1        2.433   1.194  -0.021  0.00  0.00    +0.270 C 
ATOM      5  C   LIG    1        3.246   1.698  -1.220  0.00  0.00    +0.290 C 
ATOM      6  N   LIG    1        3.241   3.168  -1.206  0.00  0.00    -0.610 N 
ATOM      7  C   LIG    1        1.952   3.872  -1.184  0.00  0.00    +0.260 C 
ATOM      8  C   LIG    1        4.399   3.857  -1.215  0.00  0.00    +0.530 C 
ATOM      9  O   LIG    1        5.458   3.265  -1.234  0.00  0.00    -0.520 OA
ATOM     10  C   LIG    1        1.139   3.368   0.009  0.00  0.00    +0.280 C 
ENDROOT
BRANCH   8  11
ATOM     11  C   LIG    1        4.379   5.364  -1.201  0.00  0.00    +0.150 C 
ATOM     12  C   LIG    1        4.142   5.859   0.229  0.00  0.00    +0.190 C 
ATOM     13  O   LIG    1        4.198   7.288   0.249  0.00  0.00    -0.370 OA
ATOM     14  C   LIG    1        5.441   7.821  -0.214  0.00  0.00    +0.190 C 
ATOM     15  C   LIG    1        5.692   7.347  -1.648  0.00  0.00    +0.210 C 
ATOM     16  N   LIG    1        5.669   5.877  -1.684  0.00  0.00    -0.670 NA
ATOM     17  H   LIG    1        6.434   5.490  -1.151  0.00  0.00    +0.360 HD
ENDBRANCH   8  11
TORSDOF 1
ENDMDL
MODEL      637
REMARK  Name = ZINC000040168062
REMARK                            x       y       z     vdW  Elec       q    Type
REMARK                         _______ _______ _______ _____ _____    ______ ____
ROOT
ATOM      1  O   LIG    1        0.002  -0.004   0.002  0.00  0.00    -0.910 OA
ATOM      2  S   LIG    1       -0.017   1.417   0.010  0.00  0.00    +2.410 S 
ATOM      3  C   LIG    1       -0.457   2.010   1.689  0.00  0.00    -0.270 C 
ATOM      4  C   LIG    1        0.775   2.790   2.148  0.00  0.00    +0.130 C 
ATOM      5  N   LIG    1        0.993   2.790   3.591  0.00  0.00    -0.430 NA
ATOM      6  H   LIG    1        0.201   3.182   4.077  0.00  0.00    +0.370 HD
ATOM      7  N   LIG    1        2.139   3.486   3.878  0.00  0.00    -0.520 N 
ATOM      8  H   LIG    1        2.227   3.888   4.757  0.00  0.00    +0.450 HD
ATOM      9  C   LIG    1        3.143   3.639   3.001  0.00  0.00    +0.570 C 
ATOM     10  N   LIG    1        3.148   3.032   1.789  0.00  0.00    -0.660 N 
ATOM     11  H   LIG    1        3.869   3.171   1.155  0.00  0.00    +0.440 HD
ATOM     12  S   LIG    1        4.467   4.636   3.430  0.00  0.00    -0.610 S 
ATOM     13  C   LIG    1        2.020   2.144   1.502  0.00  0.00    +0.250 C 
ATOM     14  O   LIG    1       -0.784   2.120  -0.958  0.00  0.00    -0.910 OA
ATOM     15  C   LIG    1        1.709   2.050  -0.003  0.00  0.00    -0.290 C 
ENDROOT
TORSDOF 0
ENDMDL
MODEL      638
REMARK  Name = ZINC000040168032
REMARK                            x       y       z     vdW  Elec       q    Type
REMARK                         _______ _______ _______ _____ _____    ______ ____
ROOT
ATOM      1  N   LIG    1       -2.332  -0.036   0.024  0.00  0.00    -0.680 N 
ATOM      2  H   LIG    1       -2.345   0.934   0.029  0.00  0.00    +0.410 HD
ENDROOT
BRANCH   1   3
ATOM      3  C   LIG    1       -3.591  -0.785   0.032  0.00  0.00    +0.310 C 
ATOM      4  C   LIG    1       -3.975  -1.126  -1.373  0.00  0.00    +0.100 C 
ATOM      5  C   LIG    1       -4.894  -0.420  -1.968  0.00  0.00    -0.450 C 
ATOM      6  S   LIG    1       -5.447   0.820  -0.820  0.00  0.00    +2.440 S 
ATOM      7  O   LIG    1       -6.864   0.721  -0.804  0.00  0.00    -0.920 OA
ATOM      8  O   LIG    1       -4.780   2.016  -1.199  0.00  0.00    -0.930 OA
ATOM      9  C   LIG    1       -4.700   0.077   0.684  0.00  0.00    -0.260 C 
ENDBRANCH   1   3
BRANCH   1  10
ATOM     10  C   LIG    1       -1.156  -0.694   0.009  0.00  0.00    +0.570 C 
ATOM     11  S   LIG    1       -1.133  -2.406   0.000  0.00  0.00    -0.620 S 
BRANCH  10  12
ATOM     12  N   LIG    1        0.002  -0.004   0.002  0.00  0.00    -0.520 N 
ATOM     13  H   LIG    1        0.849  -0.478  -0.009  0.00  0.00    +0.440 HD
BRANCH  12  14
ATOM     14  N   LIG    1       -0.016   1.362   0.009  0.00  0.00    -0.620 NA
ATOM     15  H   LIG    1       -0.555   1.720  -0.765  0.00  0.00    +0.350 HD
ATOM     16  H   LIG    1        0.920   1.736   0.003  0.00  0.00    +0.380 HD
ENDBRANCH  12  14
ENDBRANCH  10  12
ENDBRANCH   1  10
TORSDOF 4
ENDMDL
MODEL      639
REMARK  Name = ZINC000040168066
REMARK                            x       y       z     vdW  Elec       q    Type
REMARK                         _______ _______ _______ _____ _____    ______ ____
ROOT
ATOM      1  O   LIG    1        0.002  -0.004   0.002  0.00  0.00    -0.920 OA
ATOM      2  S   LIG    1       -0.017   1.417   0.010  0.00  0.00    +2.400 S 
ATOM      3  C   LIG    1       -0.460   2.009   1.687  0.00  0.00    -0.340 C 
ATOM      4  C   LIG    1        0.922   2.143   2.370  0.00  0.00    +0.200 C 
ATOM      5  N   LIG    1        0.808   2.989   3.558  0.00  0.00    -0.440 NA
ATOM      6  H   LIG    1        0.189   2.574   4.239  0.00  0.00    +0.380 HD
ATOM      7  N   LIG    1        0.419   4.257   3.255  0.00  0.00    -0.510 N 
ATOM      8  H   LIG    1       -0.132   4.746   3.886  0.00  0.00    +0.440 HD
ATOM      9  C   LIG    1        0.777   4.849   2.106  0.00  0.00    +0.570 C 
ATOM     10  N   LIG    1        1.474   4.198   1.160  0.00  0.00    -0.680 N 
ATOM     11  H   LIG    1        1.722   4.660   0.344  0.00  0.00    +0.440 HD
ATOM     12  S   LIG    1        0.334   6.481   1.837  0.00  0.00    -0.620 S 
ATOM     13  C   LIG    1        1.867   2.786   1.342  0.00  0.00    +0.270 C 
ATOM     14  O   LIG    1       -0.784   2.119  -0.959  0.00  0.00    -0.920 OA
ATOM     15  C   LIG    1        1.700   2.046  -0.003  0.00  0.00    -0.290 C 
ENDROOT
TORSDOF 0
ENDMDL
MODEL      640
REMARK  Name = ZINC000040168034
REMARK                            x       y       z     vdW  Elec       q    Type
REMARK                         _______ _______ _______ _____ _____    ______ ____
ROOT
ATOM      1  N   LIG    1       -2.332  -0.036   0.024  0.00  0.00    -0.670 N 
ATOM      2  H   LIG    1       -2.345   0.934   0.029  0.00  0.00    +0.410 HD
ENDROOT
BRANCH   1   3
ATOM      3  C   LIG    1       -3.591  -0.785   0.032  0.00  0.00    +0.320 C 
ATOM      4  C   LIG    1       -3.948  -1.141   1.440  0.00  0.00    +0.090 C 
ATOM      5  C   LIG    1       -5.190  -1.042   1.824  0.00  0.00    -0.460 C 
ATOM      6  S   LIG    1       -6.136  -0.458   0.437  0.00  0.00    +2.460 S 
ATOM      7  O   LIG    1       -6.882   0.649   0.923  0.00  0.00    -0.920 OA
ATOM      8  O   LIG    1       -6.765  -1.610  -0.107  0.00  0.00    -0.910 OA
ATOM      9  C   LIG    1       -4.712   0.084  -0.590  0.00  0.00    -0.290 C 
ENDBRANCH   1   3
BRANCH   1  10
ATOM     10  C   LIG    1       -1.156  -0.694   0.009  0.00  0.00    +0.570 C 
ATOM     11  S   LIG    1       -1.133  -2.406   0.000  0.00  0.00    -0.610 S 
BRANCH  10  12
ATOM     12  N   LIG    1        0.002  -0.004   0.002  0.00  0.00    -0.520 N 
ATOM     13  H   LIG    1        0.849  -0.478  -0.009  0.00  0.00    +0.440 HD
BRANCH  12  14
ATOM     14  N   LIG    1       -0.016   1.362   0.009  0.00  0.00    -0.620 NA
ATOM     15  H   LIG    1       -0.555   1.720  -0.765  0.00  0.00    +0.350 HD
ATOM     16  H   LIG    1        0.920   1.736   0.003  0.00  0.00    +0.380 HD
ENDBRANCH  12  14
ENDBRANCH  10  12
ENDBRANCH   1  10
TORSDOF 4
ENDMDL
MODEL      641
REMARK  Name = ZINC000040168064
REMARK                            x       y       z     vdW  Elec       q    Type
REMARK                         _______ _______ _______ _____ _____    ______ ____
ROOT
ATOM      1  O   LIG    1        0.002  -0.004   0.002  0.00  0.00    -0.910 OA
ATOM      2  S   LIG    1       -0.017   1.417   0.010  0.00  0.00    +2.400 S 
ATOM      3  C   LIG    1       -0.460   2.009   1.687  0.00  0.00    -0.330 C 
ATOM      4  C   LIG    1        0.922   2.143   2.370  0.00  0.00    +0.230 C 
ATOM      5  N   LIG    1        0.808   2.987   3.555  0.00  0.00    -0.660 N 
ATOM      6  H   LIG    1        0.535   2.595   4.399  0.00  0.00    +0.440 HD
ATOM      7  C   LIG    1        1.077   4.303   3.491  0.00  0.00    +0.540 C 
ATOM      8  N   LIG    1        1.439   4.887   2.338  0.00  0.00    -0.510 N 
ATOM      9  H   LIG    1        1.686   5.825   2.344  0.00  0.00    +0.460 HD
ATOM     10  N   LIG    1        1.471   4.204   1.163  0.00  0.00    -0.460 NA
ATOM     11  H   LIG    1        0.588   4.273   0.681  0.00  0.00    +0.350 HD
ATOM     12  S   LIG    1        0.954   5.254   4.909  0.00  0.00    -0.600 S 
ATOM     13  C   LIG    1        1.867   2.786   1.342  0.00  0.00    +0.210 C 
ATOM     14  O   LIG    1       -0.784   2.119  -0.959  0.00  0.00    -0.920 OA
ATOM     15  C   LIG    1        1.700   2.046  -0.003  0.00  0.00    -0.270 C 
ENDROOT
TORSDOF 0
ENDMDL
MODEL      642
REMARK  Name = ZINC000040168130
REMARK                            x       y       z     vdW  Elec       q    Type
REMARK                         _______ _______ _______ _____ _____    ______ ____
ROOT
ATOM      1  O   LIG    1        0.002  -0.004   0.002  0.00  0.00    -0.920 OA
ATOM      2  S   LIG    1       -0.017   1.417   0.010  0.00  0.00    +2.410 S 
ATOM      3  C   LIG    1       -0.460   2.008   1.684  0.00  0.00    -0.260 C 
ATOM      4  C   LIG    1        0.789   2.766   2.185  0.00  0.00    +0.180 C 
ATOM      5  O   LIG    1        0.663   4.138   1.798  0.00  0.00    -0.140 OA
ATOM      6  N   LIG    1        1.829   4.910   2.009  0.00  0.00    -0.520 N 
ATOM      7  H   LIG    1        1.749   5.856   2.210  0.00  0.00    +0.470 HD
ATOM      8  C   LIG    1        3.046   4.345   1.933  0.00  0.00    +0.560 C 
ATOM      9  N   LIG    1        3.186   3.029   1.697  0.00  0.00    -0.660 N 
ATOM     10  H   LIG    1        4.077   2.647   1.653  0.00  0.00    +0.440 HD
ATOM     11  S   LIG    1        4.441   5.316   2.141  0.00  0.00    -0.580 S 
ATOM     12  C   LIG    1        2.030   2.154   1.516  0.00  0.00    +0.250 C 
ATOM     13  O   LIG    1       -0.784   2.119  -0.959  0.00  0.00    -0.910 OA
ATOM     14  C   LIG    1        1.704   2.048  -0.003  0.00  0.00    -0.300 C 
ENDROOT
TORSDOF 0
ENDMDL
MODEL      643
REMARK  Name = ZINC000003870076
REMARK                            x       y       z     vdW  Elec       q    Type
REMARK                         _______ _______ _______ _____ _____    ______ ____
ROOT
ATOM      1  C   LIG    1       -1.136  -2.159   0.001  0.00  0.00    +0.250 C 
ATOM      2  C   LIG    1       -2.491  -2.686  -0.479  0.00  0.00    +0.180 C 
ATOM      3  C   LIG    1       -3.576  -2.252   0.511  0.00  0.00    +0.120 C 
ATOM      4  C   LIG    1       -3.216  -2.764   1.908  0.00  0.00    +0.150 C 
ATOM      5  O   LIG    1       -1.931  -2.262   2.281  0.00  0.00    -0.390 OA
ATOM      6  C   LIG    1       -0.868  -2.674   1.418  0.00  0.00    +0.350 C 
ENDROOT
BRANCH   1   9
ATOM      7  C   LIG    1       -0.880   1.497  -1.105  0.00  0.00    +0.100 C 
ATOM      8  C   LIG    1       -0.859  -0.010  -1.113  0.00  0.00    +0.510 C 
ATOM      9  N   LIG    1       -1.156  -0.694   0.009  0.00  0.00    -0.690 N 
ATOM     10  H   LIG    1       -1.383  -0.216   0.823  0.00  0.00    +0.410 HD
ATOM     11  O   LIG    1       -0.576  -0.607  -2.130  0.00  0.00    -0.550 OA
ENDBRANCH   1   9
BRANCH   3  12
ATOM     12  O   LIG    1       -3.661  -0.826   0.531  0.00  0.00    -0.540 OA
ATOM     13  H   LIG    1       -4.330  -0.480   1.138  0.00  0.00    +0.380 HD
ENDBRANCH   3  12
BRANCH   2  14
ATOM     14  O   LIG    1       -2.450  -4.113  -0.551  0.00  0.00    -0.550 OA
ATOM     15  H   LIG    1       -3.278  -4.515  -0.850  0.00  0.00    +0.390 HD
ENDBRANCH   2  14
BRANCH   6  16
ATOM     16  O   LIG    1        0.368  -2.140   1.895  0.00  0.00    -0.540 OA
ATOM     17  H   LIG    1        0.601  -2.425   2.790  0.00  0.00    +0.390 HD
ENDBRANCH   6  16
BRANCH   4  18
ATOM     18  C   LIG    1       -4.264  -2.284   2.914  0.00  0.00    +0.200 C 
BRANCH  18  19
ATOM     19  O   LIG    1       -3.993  -2.857   4.194  0.00  0.00    -0.560 OA
ATOM     20  H   LIG    1       -4.619  -2.595   4.883  0.00  0.00    +0.380 HD
ENDBRANCH  18  19
ENDBRANCH   4  18
TORSDOF 6
ENDMDL
MODEL      644
REMARK  Name = ZINC000118476329
REMARK                            x       y       z     vdW  Elec       q    Type
REMARK                         _______ _______ _______ _____ _____    ______ ____
ROOT
ATOM      1  C   LIG    1        2.047  -0.298   1.635  0.00  0.00    +0.320 C 
ENDROOT
BRANCH   1   8
ATOM      2  C   LIG    1       -0.019   1.526   0.010  0.00  0.00    +0.080 C 
ATOM      3  C   LIG    1        0.002  -0.004   0.002  0.00  0.00    +0.160 C 
ATOM      4  C   LIG    1       -1.405  -0.559   0.104  0.00  0.00    +0.520 C 
ATOM      5  N   LIG    1       -1.439  -1.264   1.231  0.00  0.00    -0.660 NA
ATOM      6  C   LIG    1       -0.288  -1.254   1.868  0.00  0.00    +0.670 C 
ATOM      7  O   LIG    1       -2.316  -0.393  -0.683  0.00  0.00    -0.480 OA
ATOM      8  N   LIG    1        0.662  -0.522   1.215  0.00  0.00    -0.620 N 
BRANCH   6   9
ATOM      9  N   LIG    1       -0.067  -1.901   3.046  0.00  0.00    -0.810 N 
ATOM     10  H   LIG    1        0.806  -1.857   3.468  0.00  0.00    +0.410 HD
ATOM     11  H   LIG    1       -0.781  -2.407   3.463  0.00  0.00    +0.430 HD
ENDBRANCH   6   9
ENDBRANCH   1   8
BRANCH   1  12
ATOM     12  C   LIG    1        2.940  -1.399   1.059  0.00  0.00    -0.020 C 
BRANCH  12  13
ATOM     13  C   LIG    1        4.386  -1.164   1.498  0.00  0.00    +0.090 C 
BRANCH  13  14
ATOM     14  CA  LIG    1        5.279  -2.265   0.922  0.00  0.00    +0.080 C 
BRANCH  14  15
ATOM     15  N   LIG    1        4.901  -3.558   1.506  0.00  0.00    -0.610 N 
ATOM     16  H1  LIG    1        5.489  -4.284   1.127  0.00  0.00    +0.430 HD
ATOM     17  H2  LIG    1        3.936  -3.757   1.286  0.00  0.00    +0.410 HD
ATOM     18  H3  LIG    1        5.016  -3.521   2.508  0.00  0.00    +0.430 HD
ENDBRANCH  14  15
BRANCH  14  19
ATOM     19  C   LIG    1        6.720  -1.967   1.251  0.00  0.00    +0.490 C 
ATOM     20  OXT LIG    1        7.288  -1.033   0.711  0.00  0.00    -0.630 OA
ATOM     21  O   LIG    1        7.316  -2.660   2.057  0.00  0.00    -0.670 OA
ENDBRANCH  14  19
ENDBRANCH  13  14
ENDBRANCH  12  13
ENDBRANCH   1  12
TORSDOF 7
ENDMDL
MODEL      645
REMARK  Name = ZINC000118476327
REMARK                            x       y       z     vdW  Elec       q    Type
REMARK                         _______ _______ _______ _____ _____    ______ ____
ROOT
ATOM      1  C   LIG    1        0.451  -0.325   2.577  0.00  0.00    +0.320 C 
ENDROOT
BRANCH   1   8
ATOM      2  C   LIG    1       -0.019   1.526   0.010  0.00  0.00    +0.070 C 
ATOM      3  C   LIG    1        0.002  -0.004   0.002  0.00  0.00    +0.160 C 
ATOM      4  C   LIG    1        0.785  -0.522  -1.188  0.00  0.00    +0.520 C 
ATOM      5  N   LIG    1        1.806  -1.210  -0.684  0.00  0.00    -0.660 NA
ATOM      6  C   LIG    1        1.806  -1.219   0.632  0.00  0.00    +0.670 C 
ATOM      7  O   LIG    1        0.532  -0.345  -2.364  0.00  0.00    -0.480 OA
ATOM      8  N   LIG    1        0.758  -0.521   1.158  0.00  0.00    -0.620 N 
BRANCH   6   9
ATOM      9  N   LIG    1        2.747  -1.854   1.386  0.00  0.00    -0.810 N 
ATOM     10  H   LIG    1        2.694  -1.824   2.354  0.00  0.00    +0.410 HD
ATOM     11  H   LIG    1        3.469  -2.336   0.954  0.00  0.00    +0.430 HD
ENDBRANCH   6   9
ENDBRANCH   1   8
BRANCH   1  12
ATOM     12  C   LIG    1        1.146   0.943   3.079  0.00  0.00    -0.010 C 
BRANCH  12  13
ATOM     13  C   LIG    1        0.826   1.148   4.561  0.00  0.00    +0.090 C 
BRANCH  13  14
ATOM     14  CA  LIG    1        1.521   2.415   5.062  0.00  0.00    +0.080 C 
BRANCH  14  15
ATOM     15  N   LIG    1        2.977   2.231   5.001  0.00  0.00    -0.610 N 
ATOM     16  H1  LIG    1        3.436   3.067   5.332  0.00  0.00    +0.430 HD
ATOM     17  H2  LIG    1        3.254   2.051   4.048  0.00  0.00    +0.410 HD
ATOM     18  H3  LIG    1        3.242   1.450   5.582  0.00  0.00    +0.430 HD
ENDBRANCH  14  15
BRANCH  14  19
ATOM     19  C   LIG    1        1.108   2.684   6.486  0.00  0.00    +0.490 C 
ATOM     20  OXT LIG    1       -0.030   3.046   6.733  0.00  0.00    -0.630 OA
ATOM     21  O   LIG    1        1.912   2.541   7.392  0.00  0.00    -0.670 OA
ENDBRANCH  14  19
ENDBRANCH  13  14
ENDBRANCH  12  13
ENDBRANCH   1  12
TORSDOF 7
ENDMDL
MODEL      646
REMARK  Name = ZINC000003115839
REMARK                            x       y       z     vdW  Elec       q    Type
REMARK                         _______ _______ _______ _____ _____    ______ ____
ROOT
ATOM      1  C   LIG    1       -1.609  -3.767  -1.454  0.00  0.00    +0.230 C 
ENDROOT
BRANCH   1   2
ATOM      2  C   LIG    1       -1.329  -3.344  -0.011  0.00  0.00    +0.410 C 
BRANCH   2   5
ATOM      3  C   LIG    1        0.002  -0.004   0.002  0.00  0.00    +0.450 A 
ATOM      4  N   LIG    1       -1.049  -0.797   0.003  0.00  0.00    -0.350 NA
ATOM      5  N   LIG    1       -0.543  -2.108  -0.007  0.00  0.00    -0.210 N 
ATOM      6  N   LIG    1        0.743  -2.017  -0.012  0.00  0.00    +0.030 NA
ATOM      7  N   LIG    1        1.088  -0.778  -0.013  0.00  0.00    -0.330 NA
BRANCH   3   8
ATOM      8  N   LIG    1       -0.017   1.392   0.010  0.00  0.00    -0.810 N 
ATOM      9  H   LIG    1       -0.863   1.866   0.016  0.00  0.00    +0.420 HD
ATOM     10  H   LIG    1        0.817   1.889   0.004  0.00  0.00    +0.420 HD
ENDBRANCH   3   8
ENDBRANCH   2   5
ENDBRANCH   1   2
BRANCH   1  11
ATOM     11  O   LIG    1       -2.375  -4.973  -1.458  0.00  0.00    -0.280 OA
BRANCH  11  12
ATOM     12  C   LIG    1       -2.710  -5.486  -2.668  0.00  0.00    +0.260 A 
ATOM     13  N   LIG    1       -2.392  -4.981  -3.825  0.00  0.00    -0.320 NA
ATOM     14  O   LIG    1       -2.934  -5.818  -4.831  0.00  0.00    +0.040 OA
ATOM     15  N   LIG    1       -3.613  -6.880  -4.184  0.00  0.00    -0.340 NA
ATOM     16  C   LIG    1       -3.488  -6.707  -2.897  0.00  0.00    +0.350 A 
BRANCH  16  17
ATOM     17  N   LIG    1       -4.012  -7.535  -1.909  0.00  0.00    -0.810 N 
ATOM     18  H   LIG    1       -3.867  -7.326  -0.974  0.00  0.00    +0.420 HD
ATOM     19  H   LIG    1       -4.523  -8.322  -2.157  0.00  0.00    +0.420 HD
ENDBRANCH  16  17
ENDBRANCH  11  12
ENDBRANCH   1  11
TORSDOF 6
ENDMDL
MODEL      647
REMARK  Name = ZINC000013602104
REMARK                            x       y       z     vdW  Elec       q    Type
REMARK                         _______ _______ _______ _____ _____    ______ ____
ROOT
ATOM      1  O   LIG    1        0.002  -0.004   0.002  0.00  0.00    -0.450 OA
ATOM      2  C   LIG    1       -0.014   1.214   0.009  0.00  0.00    +0.680 A 
ATOM      3  N   LIG    1       -1.189   1.855   0.029  0.00  0.00    -0.550 NA
ATOM      4  C   LIG    1       -1.241   3.171   0.037  0.00  0.00    +0.680 A 
ATOM      5  N   LIG    1       -2.434   3.839   0.057  0.00  0.00    -0.620 N 
ATOM      6  H   LIG    1       -3.270   3.347   0.066  0.00  0.00    +0.460 HD
ATOM      7  C   LIG    1       -2.439   5.188   0.065  0.00  0.00    +0.680 A 
ATOM      8  N   LIG    1       -1.296   5.884   0.052  0.00  0.00    -0.550 NA
ATOM      9  C   LIG    1       -0.131   5.271   0.033  0.00  0.00    +0.680 A 
ATOM     10  N   LIG    1        1.044   5.971   0.020  0.00  0.00    -0.620 N 
ATOM     11  H   LIG    1        1.036   6.941   0.025  0.00  0.00    +0.460 HD
ATOM     12  C   LIG    1        2.215   5.301  -0.001  0.00  0.00    +0.680 A 
ATOM     13  N   LIG    1        2.246   3.963  -0.008  0.00  0.00    -0.550 NA
ATOM     14  C   LIG    1        1.133   3.260   0.004  0.00  0.00    +0.680 A 
ATOM     15  O   LIG    1        3.261   5.924  -0.012  0.00  0.00    -0.450 OA
ATOM     16  O   LIG    1       -3.502   5.782   0.083  0.00  0.00    -0.450 OA
ATOM     17  N   LIG    1       -0.080   3.901   0.025  0.00  0.00    -0.540 N 
ATOM     18  N   LIG    1        1.151   1.892   0.001  0.00  0.00    -0.620 N 
ATOM     19  H   LIG    1        1.995   1.414  -0.010  0.00  0.00    +0.460 HD
ENDROOT
TORSDOF 0
ENDMDL
MODEL      648
REMARK  Name = ZINC000002560975
REMARK                            x       y       z     vdW  Elec       q    Type
REMARK                         _______ _______ _______ _____ _____    ______ ____
ROOT
ATOM      1  C   LIG    1       -2.250   5.289   3.892  0.00  0.00    +0.113 C 
ENDROOT
BRANCH   1   3
ATOM      2  C   LIG    1       -1.425   3.494   2.465  0.00  0.00    +0.218 C 
ATOM      3  N   LIG    1       -1.564   4.816   2.686  0.00  0.00    -0.315 N 
ATOM      4  H   LIG    1       -1.210   5.455   2.048  0.00  0.00    +0.149 HD
ATOM      5  O   LIG    1       -1.868   2.696   3.263  0.00  0.00    -0.276 OA
BRANCH   2   6
ATOM      6  C   LIG    1       -0.720   3.008   1.225  0.00  0.00    +0.146 C 
BRANCH   6   7
ATOM      7  C   LIG    1       -0.699   1.479   1.216  0.00  0.00    +0.137 C 
BRANCH   7   8
ATOM      8  N   LIG    1       -0.012   1.005   0.008  0.00  0.00    +0.219 N 
ATOM      9  H   LIG    1       -0.500   1.339  -0.810  0.00  0.00    +0.199 HD
ATOM     10  H   LIG    1        0.935   1.354   0.000  0.00  0.00    +0.199 HD
ATOM     11  H   LIG    1        0.002  -0.004   0.002  0.00  0.00    +0.199 HD
ENDBRANCH   7   8
ENDBRANCH   6   7
ENDBRANCH   2   6
ENDBRANCH   1   3
BRANCH   1  12
ATOM     12  C   LIG    1       -2.271   6.819   3.900  0.00  0.00    +0.114 C 
BRANCH  12  13
ATOM     13  C   LIG    1       -2.976   7.305   5.140  0.00  0.00    +0.215 C 
ATOM     14  N   LIG    1       -3.115   8.627   5.362  0.00  0.00    -0.315 N 
ATOM     15  H   LIG    1       -2.761   9.266   4.723  0.00  0.00    +0.149 HD
ATOM     16  O   LIG    1       -3.419   6.506   5.938  0.00  0.00    -0.276 OA
BRANCH  14  17
ATOM     17  C   LIG    1       -3.801   9.099   6.567  0.00  0.00    +0.115 C 
BRANCH  17  18
ATOM     18  C   LIG    1       -3.822  10.629   6.575  0.00  0.00    +0.144 C 
BRANCH  18  19
ATOM     19  C   LIG    1       -4.527  11.115   7.815  0.00  0.00    +0.357 C 
ATOM     20  O   LIG    1       -4.653  12.311   8.016  0.00  0.00    -0.246 OA
ATOM     21  O   LIG    1       -4.972  10.312   8.618  0.00  0.00    -0.246 OA
ENDBRANCH  18  19
ENDBRANCH  17  18
ENDBRANCH  14  17
ENDBRANCH  12  13
ENDBRANCH   1  12
TORSDOF 9
ENDMDL
MODEL      649
REMARK  Name = ZINC000257234233
REMARK                            x       y       z     vdW  Elec       q    Type
REMARK                         _______ _______ _______ _____ _____    ______ ____
ROOT
ATOM      1  C   LIG    1       -0.018   1.503   0.010  0.00  0.00    +0.109 C 
ATOM      2  C   LIG    1        0.002  -0.004   0.002  0.00  0.00    +0.213 C 
ATOM      3  N   LIG    1        0.000  -0.672  -1.169  0.00  0.00    -0.299 N 
ATOM      4  C   LIG    1       -0.016   0.051  -2.450  0.00  0.00    +0.123 C 
ATOM      5  C   LIG    1        1.115  -0.492  -3.329  0.00  0.00    +0.104 C 
ATOM      6  N   LIG    1        0.989  -1.952  -3.438  0.00  0.00    -0.292 NA
ATOM      7  C   LIG    1        1.144  -2.599  -2.128  0.00  0.00    +0.161 C 
ATOM      8  C   LIG    1        1.949  -2.493  -4.409  0.00  0.00    +0.105 C 
ATOM      9  C   LIG    1        0.020  -2.142  -1.200  0.00  0.00    +0.136 C 
ATOM     10  O   LIG    1        0.020  -0.616   1.049  0.00  0.00    -0.276 OA
ENDROOT
BRANCH   7  11
ATOM     11  C   LIG    1        1.083  -4.096  -2.296  0.00  0.00    +0.234 C 
ATOM     12  N   LIG    1        1.589  -4.902  -1.343  0.00  0.00    -0.301 N 
ATOM     13  C   LIG    1        2.200  -4.324  -0.143  0.00  0.00    +0.132 C 
ATOM     14  O   LIG    1        0.578  -4.574  -3.290  0.00  0.00    -0.274 OA
BRANCH  12  15
ATOM     15  C   LIG    1        1.530  -6.357  -1.506  0.00  0.00    +0.135 C 
BRANCH  15  16
ATOM     16  C   LIG    1        2.791  -6.841  -2.225  0.00  0.00    +0.174 C 
BRANCH  16  17
ATOM     17  O   LIG    1        3.933  -6.599  -1.400  0.00  0.00    -0.393 OA
ATOM     18  H   LIG    1        4.769  -6.882  -1.794  0.00  0.00    +0.209 HD
ENDBRANCH  16  17
ENDBRANCH  15  16
ENDBRANCH  12  15
ENDBRANCH   7  11
TORSDOF 4
ENDMDL
MODEL      650
REMARK  Name = ZINC000257218883
REMARK                            x       y       z     vdW  Elec       q    Type
REMARK                         _______ _______ _______ _____ _____    ______ ____
ROOT
ATOM      1  C   LIG    1       -2.550  -2.680   0.012  0.00  0.00    +0.530 C 
ATOM      2  N   LIG    1       -2.778  -4.008   0.007  0.00  0.00    -0.610 N 
ATOM      3  C   LIG    1       -1.746  -5.055  -0.002  0.00  0.00    +0.230 C 
ATOM      4  C   LIG    1       -2.473  -6.416   0.023  0.00  0.00    +0.170 C 
ATOM      5  C   LIG    1       -3.861  -6.058   0.616  0.00  0.00    +0.260 C 
ATOM      6  C   LIG    1       -4.104  -4.652   0.016  0.00  0.00    +0.270 C 
ATOM      7  O   LIG    1       -3.482  -1.905   0.025  0.00  0.00    -0.530 OA
ENDROOT
BRANCH   5   8
ATOM      8  N   LIG    1       -4.884  -7.007   0.170  0.00  0.00    -0.720 N 
ATOM      9  H   LIG    1       -4.764  -7.494  -0.661  0.00  0.00    +0.400 HD
ATOM     10  C   LIG    1       -5.991  -7.203   0.913  0.00  0.00    +0.510 C 
ATOM     11  O   LIG    1       -6.141  -6.594   1.951  0.00  0.00    -0.540 OA
ATOM     12  C   LIG    1       -7.043  -8.179   0.453  0.00  0.00    +0.110 C 
ENDBRANCH   5   8
BRANCH   4  13
ATOM     13  O   LIG    1       -1.784  -7.342   0.865  0.00  0.00    -0.550 OA
ATOM     14  H   LIG    1       -0.882  -7.540   0.578  0.00  0.00    +0.390 HD
ENDBRANCH   4  13
BRANCH   1  15
ATOM     15  C   LIG    1       -1.136  -2.159   0.001  0.00  0.00    +0.300 C 
BRANCH  15  18
ATOM     16  C   LIG    1       -0.018   1.503   0.010  0.00  0.00    +0.110 C 
ATOM     17  C   LIG    1        0.002  -0.004   0.002  0.00  0.00    +0.510 C 
ATOM     18  N   LIG    1       -1.156  -0.694   0.009  0.00  0.00    -0.720 N 
ATOM     19  H   LIG    1       -2.002  -0.220   0.020  0.00  0.00    +0.410 HD
ATOM     20  O   LIG    1        1.060  -0.596  -0.011  0.00  0.00    -0.550 OA
ENDBRANCH  15  18
ENDBRANCH   1  15
TORSDOF 4
ENDMDL
MODEL      651
REMARK  Name = ZINC000217403689
REMARK                            x       y       z     vdW  Elec       q    Type
REMARK                         _______ _______ _______ _____ _____    ______ ____
ROOT
ATOM      1  C   LIG    1        2.375   1.078  -0.228  0.00  0.00    +0.260 C 
ATOM      2  C   LIG    1        2.626   0.722   1.251  0.00  0.00    -0.310 C 
ATOM      3  S   LIG    1        4.442   0.948   1.424  0.00  0.00    +2.390 S 
ATOM      4  C   LIG    1        4.513   2.371   0.262  0.00  0.00    -0.300 C 
ATOM      5  O   LIG    1        5.122  -0.167   0.863  0.00  0.00    -0.920 OA
ATOM      6  O   LIG    1        4.750   1.385   2.740  0.00  0.00    -0.930 OA
ATOM      7  C   LIG    1        3.443   2.013  -0.785  0.00  0.00    +0.160 C 
ENDROOT
BRANCH   7   8
ATOM      8  N   LIG    1        2.797   3.248  -1.248  0.00  0.00    -0.530 NA
ATOM      9  C   LIG    1        1.970   2.996  -2.438  0.00  0.00    +0.150 C 
ATOM     10  C   LIG    1        1.271   4.293  -2.851  0.00  0.00    +0.220 C 
ATOM     11  O   LIG    1        2.253   5.307  -3.079  0.00  0.00    -0.380 OA
ATOM     12  C   LIG    1        3.076   5.578  -1.941  0.00  0.00    +0.220 C 
ATOM     13  C   LIG    1        3.794   4.294  -1.519  0.00  0.00    +0.160 C 
ENDBRANCH   7   8
BRANCH   1  16
ATOM     14  O   LIG    1        0.041  -0.225  -0.572  0.00  0.00    -0.550 OA
ATOM     15  C   LIG    1       -0.043   0.983  -0.515  0.00  0.00    +0.630 C 
ATOM     16  N   LIG    1        1.067   1.728  -0.345  0.00  0.00    -0.720 N 
ATOM     17  H   LIG    1        1.000   2.695  -0.300  0.00  0.00    +0.420 HD
ENDBRANCH   1  16
TORSDOF 2
ENDMDL
MODEL      652
REMARK  Name = ZINC000217420278
REMARK                            x       y       z     vdW  Elec       q    Type
REMARK                         _______ _______ _______ _____ _____    ______ ____
ROOT
ATOM      1  N   LIG    1        3.478   1.930  -0.021  0.00  0.00    -0.670 N 
ATOM      2  H   LIG    1        3.465   2.900  -0.015  0.00  0.00    +0.400 HD
ENDROOT
BRANCH   1   3
ATOM      3  C   LIG    1        4.756   1.215  -0.037  0.00  0.00    +0.290 C 
ATOM      4  C   LIG    1        5.194   0.885   1.401  0.00  0.00    +0.070 C 
ATOM      5  C   LIG    1        6.673   0.450   1.380  0.00  0.00    -0.280 C 
ATOM      6  S   LIG    1        7.400   1.305  -0.064  0.00  0.00    +2.400 S 
ATOM      7  O   LIG    1        7.815   0.341  -1.022  0.00  0.00    -0.920 OA
ATOM      8  O   LIG    1        8.315   2.295   0.386  0.00  0.00    -0.930 OA
ATOM      9  C   LIG    1        5.862   2.117  -0.642  0.00  0.00    -0.320 C 
ENDBRANCH   1   3
BRANCH   1  10
ATOM     10  C   LIG    1        2.320   1.240  -0.013  0.00  0.00    +0.510 C 
ATOM     11  S   LIG    1        2.343  -0.472  -0.023  0.00  0.00    -0.510 S 
BRANCH  10  14
ATOM     12  O   LIG    1        0.002  -0.004   0.002  0.00  0.00    -0.420 OA
ATOM     13  C   LIG    1       -0.014   1.208   0.009  0.00  0.00    +0.620 C 
ATOM     14  N   LIG    1        1.143   1.898   0.001  0.00  0.00    -0.650 N 
ATOM     15  H   LIG    1        1.130   2.868   0.007  0.00  0.00    +0.410 HD
ENDBRANCH  10  14
ENDBRANCH   1  10
TORSDOF 3
ENDMDL
MODEL      653
REMARK  Name = ZINC000217402660
REMARK                            x       y       z     vdW  Elec       q    Type
REMARK                         _______ _______ _______ _____ _____    ______ ____
ROOT
ATOM      1  C   LIG    1        2.420   1.186   0.096  0.00  0.00    +0.280 C 
ATOM      2  C   LIG    1        2.412   0.264   1.343  0.00  0.00    -0.300 C 
ATOM      3  S   LIG    1        3.787  -0.889   0.943  0.00  0.00    +2.390 S 
ATOM      4  C   LIG    1        3.448  -0.939  -0.858  0.00  0.00    -0.340 C 
ATOM      5  O   LIG    1        3.523  -2.162   1.517  0.00  0.00    -0.930 OA
ATOM      6  O   LIG    1        5.032  -0.247   1.176  0.00  0.00    -0.930 OA
ATOM      7  C   LIG    1        2.620   0.320  -1.149  0.00  0.00    +0.190 C 
ENDROOT
BRANCH   1  10
ATOM      8  O   LIG    1       -0.003   0.002   0.120  0.00  0.00    -0.510 OA
ATOM      9  C   LIG    1       -0.016   1.214   0.061  0.00  0.00    +0.620 C 
ATOM     10  N   LIG    1        1.143   1.898   0.001  0.00  0.00    -0.600 N 
BRANCH  10  11
ATOM     11  C   LIG    1        1.127   3.354  -0.159  0.00  0.00    +0.300 C 
BRANCH  11  12
ATOM     12  C   LIG    1        1.103   4.019   1.220  0.00  0.00    +0.160 C 
BRANCH  12  13
ATOM     13  O   LIG    1        2.320   3.728   1.910  0.00  0.00    -0.570 OA
ATOM     14  H   LIG    1        2.374   4.118   2.793  0.00  0.00    +0.380 HD
ENDBRANCH  12  13
ENDBRANCH  11  12
ENDBRANCH  10  11
ENDBRANCH   1  10
BRANCH   7  15
ATOM     15  O   LIG    1        1.340  -0.073  -1.650  0.00  0.00    -0.530 OA
ATOM     16  H   LIG    1        1.378  -0.571  -2.478  0.00  0.00    +0.370 HD
ENDBRANCH   7  15
TORSDOF 5
ENDMDL
MODEL      654
REMARK  Name = ZINC000217420355
REMARK                            x       y       z     vdW  Elec       q    Type
REMARK                         _______ _______ _______ _____ _____    ______ ____
ROOT
ATOM      1  N   LIG    1        3.478   1.930  -0.021  0.00  0.00    -0.670 N 
ATOM      2  H   LIG    1        3.465   2.900  -0.015  0.00  0.00    +0.400 HD
ENDROOT
BRANCH   1   3
ATOM      3  C   LIG    1        4.756   1.215  -0.037  0.00  0.00    +0.290 C 
ATOM      4  C   LIG    1        5.146   0.884  -1.488  0.00  0.00    +0.070 C 
ATOM      5  C   LIG    1        6.631   0.440  -1.458  0.00  0.00    -0.280 C 
ATOM      6  S   LIG    1        7.387   1.653  -0.311  0.00  0.00    +2.400 S 
ATOM      7  O   LIG    1        7.852   2.774  -1.050  0.00  0.00    -0.930 OA
ATOM      8  O   LIG    1        8.267   0.976   0.577  0.00  0.00    -0.930 OA
ATOM      9  C   LIG    1        5.855   2.104   0.577  0.00  0.00    -0.330 C 
ENDBRANCH   1   3
BRANCH   1  10
ATOM     10  C   LIG    1        2.320   1.240  -0.013  0.00  0.00    +0.510 C 
ATOM     11  S   LIG    1        2.343  -0.472  -0.023  0.00  0.00    -0.510 S 
BRANCH  10  14
ATOM     12  O   LIG    1        0.002  -0.004   0.002  0.00  0.00    -0.420 OA
ATOM     13  C   LIG    1       -0.014   1.208   0.009  0.00  0.00    +0.620 C 
ATOM     14  N   LIG    1        1.143   1.898   0.001  0.00  0.00    -0.650 N 
ATOM     15  H   LIG    1        1.130   2.868   0.007  0.00  0.00    +0.410 HD
ENDBRANCH  10  14
ENDBRANCH   1  10
TORSDOF 3
ENDMDL
MODEL      655
REMARK  Name = ZINC000217410621
REMARK                            x       y       z     vdW  Elec       q    Type
REMARK                         _______ _______ _______ _____ _____    ______ ____
ROOT
ATOM      1  N   LIG    1        1.125   3.299   0.009  0.00  0.00    -0.440 N 
ATOM      2  C   LIG    1        0.816   4.078  -1.036  0.00  0.00    +0.710 C 
ATOM      3  N   LIG    1        0.871   5.391  -0.770  0.00  0.00    -0.730 N 
ATOM      4  H   LIG    1        0.681   6.102  -1.402  0.00  0.00    +0.440 HD
ATOM      5  C   LIG    1        1.266   5.579   0.635  0.00  0.00    +0.270 C 
ATOM      6  C   LIG    1        0.158   6.354   1.374  0.00  0.00    -0.290 C 
ATOM      7  S   LIG    1       -0.939   5.015   1.993  0.00  0.00    +2.380 S 
ATOM      8  C   LIG    1        0.442   3.846   2.314  0.00  0.00    -0.290 C 
ATOM      9  O   LIG    1       -1.748   4.527   0.932  0.00  0.00    -0.910 OA
ATOM     10  O   LIG    1       -1.532   5.409   3.223  0.00  0.00    -0.920 OA
ATOM     11  O   LIG    1        0.513   3.635  -2.127  0.00  0.00    -0.550 OA
ATOM     12  C   LIG    1        1.434   4.151   1.168  0.00  0.00    +0.270 C 
ENDROOT
BRANCH   1  15
ATOM     13  O   LIG    1        0.002  -0.004   0.002  0.00  0.00    -0.520 OA
ATOM     14  C   LIG    1       -0.014   1.209   0.009  0.00  0.00    +0.650 C 
ATOM     15  N   LIG    1        1.143   1.898   0.001  0.00  0.00    -0.490 N 
ATOM     16  H   LIG    1        1.990   1.425  -0.009  0.00  0.00    +0.420 HD
ENDBRANCH   1  15
TORSDOF 1
ENDMDL
MODEL      656
REMARK  Name = ZINC000217402931
REMARK                            x       y       z     vdW  Elec       q    Type
REMARK                         _______ _______ _______ _____ _____    ______ ____
ROOT
ATOM      1  O   LIG    1        0.002  -0.004   0.002  0.00  0.00    -0.530 OA
ATOM      2  C   LIG    1       -0.014   1.209   0.009  0.00  0.00    +0.630 C 
ATOM      3  N   LIG    1        1.143   1.898   0.001  0.00  0.00    -0.610 N 
ENDROOT
BRANCH   3   4
ATOM      4  C   LIG    1        2.422   1.183  -0.015  0.00  0.00    +0.270 C 
ATOM      5  C   LIG    1        2.520   0.270   1.220  0.00  0.00    +0.070 C 
ATOM      6  C   LIG    1        3.716  -0.685   0.972  0.00  0.00    -0.310 C 
ATOM      7  S   LIG    1        3.498  -1.148  -0.788  0.00  0.00    +2.400 S 
ATOM      8  O   LIG    1        2.691  -2.315  -0.871  0.00  0.00    -0.920 OA
ATOM      9  O   LIG    1        4.757  -1.111  -1.444  0.00  0.00    -0.940 OA
ATOM     10  C   LIG    1        2.511   0.309  -1.281  0.00  0.00    -0.320 C 
ENDBRANCH   3   4
BRANCH   3  11
ATOM     11  C   LIG    1        1.124   3.363   0.009  0.00  0.00    +0.270 C 
BRANCH  11  12
ATOM     12  C   LIG    1        1.131   3.865   1.455  0.00  0.00    +0.200 C 
BRANCH  12  13
ATOM     13  O   LIG    1       -0.023   3.370   2.137  0.00  0.00    -0.540 OA
ATOM     14  H   LIG    1       -0.862   3.646   1.743  0.00  0.00    +0.370 HD
ENDBRANCH  12  13
BRANCH  12  15
ATOM     15  C   LIG    1        1.110   5.395   1.463  0.00  0.00    +0.150 C 
BRANCH  15  16
ATOM     16  O   LIG    1        1.234   5.866   2.807  0.00  0.00    -0.560 OA
ATOM     17  H   LIG    1        1.228   6.829   2.888  0.00  0.00    +0.380 HD
ENDBRANCH  15  16
ENDBRANCH  12  15
ENDBRANCH  11  12
ENDBRANCH   3  11
TORSDOF 6
ENDMDL
MODEL      657
REMARK  Name = ZINC000032012035
REMARK                            x       y       z     vdW  Elec       q    Type
REMARK                         _______ _______ _______ _____ _____    ______ ____
ROOT
ATOM      1  S   LIG    1        1.438  -2.816  -2.488  0.00  0.00    +2.620 S 
ATOM      2  O   LIG    1        2.834  -2.552  -2.449  0.00  0.00    -0.950 OA
ATOM      3  O   LIG    1        0.679  -2.574  -3.665  0.00  0.00    -0.950 OA
ENDROOT
BRANCH   1   4
ATOM      4  N   LIG    1        1.325  -4.452  -2.258  0.00  0.00    -1.000 NA
ATOM      5  C   LIG    1        2.369  -5.185  -1.527  0.00  0.00    +0.300 C 
ATOM      6  C   LIG    1        2.812  -6.379  -2.378  0.00  0.00    +0.180 C 
ATOM      7  N   LIG    1        1.635  -7.177  -2.747  0.00  0.00    -0.690 NA
ATOM      8  H   LIG    1        1.908  -8.033  -3.207  0.00  0.00    +0.350 HD
ATOM      9  C   LIG    1        0.707  -6.403  -3.581  0.00  0.00    +0.180 C 
ATOM     10  C   LIG    1        0.174  -5.209  -2.774  0.00  0.00    +0.300 C 
ENDBRANCH   1   4
BRANCH   1  11
ATOM     11  C   LIG    1        0.613  -2.097  -1.041  0.00  0.00    -0.360 C 
BRANCH  11  12
ATOM     12  C   LIG    1        0.652  -0.570  -1.138  0.00  0.00    +0.210 C 
BRANCH  12  14
ATOM     13  C   LIG    1       -0.017   1.425   0.010  0.00  0.00    +0.220 C 
ATOM     14  O   LIG    1        0.002  -0.004   0.002  0.00  0.00    -0.380 OA
ENDBRANCH  12  14
ENDBRANCH  11  12
ENDBRANCH   1  11
TORSDOF 4
ENDMDL
MODEL      658
REMARK  Name = ZINC000217421449
REMARK                            x       y       z     vdW  Elec       q    Type
REMARK                         _______ _______ _______ _____ _____    ______ ____
ROOT
ATOM      1  O   LIG    1        0.002  -0.004   0.002  0.00  0.00    -0.420 OA
ATOM      2  C   LIG    1       -0.014   1.208   0.009  0.00  0.00    +0.660 C 
ATOM      3  N   LIG    1        1.143   1.898   0.001  0.00  0.00    -0.540 N 
ATOM      4  C   LIG    1        2.370   1.358  -0.019  0.00  0.00    +0.520 C 
ATOM      5  N   LIG    1        3.360   2.261  -0.022  0.00  0.00    -0.660 N 
ATOM      6  H   LIG    1        4.308   2.057  -0.036  0.00  0.00    +0.450 HD
ATOM      7  C   LIG    1        2.778   3.612  -0.002  0.00  0.00    +0.250 C 
ATOM      8  C   LIG    1        3.267   4.357   1.255  0.00  0.00    -0.290 C 
ATOM      9  S   LIG    1        1.765   5.257   1.813  0.00  0.00    +2.400 S 
ATOM     10  C   LIG    1        0.610   3.921   1.306  0.00  0.00    -0.300 C 
ATOM     11  O   LIG    1        1.562   6.405   1.000  0.00  0.00    -0.910 OA
ATOM     12  O   LIG    1        1.772   5.376   3.229  0.00  0.00    -0.910 OA
ATOM     13  S   LIG    1        2.647  -0.331  -0.040  0.00  0.00    -0.520 S 
ATOM     14  C   LIG    1        1.264   3.364   0.008  0.00  0.00    +0.260 C 
ENDROOT
TORSDOF 0
ENDMDL
MODEL      659
REMARK  Name = ZINC000217402420
REMARK                            x       y       z     vdW  Elec       q    Type
REMARK                         _______ _______ _______ _____ _____    ______ ____
ROOT
ATOM      1  C   LIG    1        2.422   1.183  -0.015  0.00  0.00    +0.280 C 
ATOM      2  C   LIG    1        2.497   0.321  -1.291  0.00  0.00    -0.310 C 
ATOM      3  S   LIG    1        3.436  -1.157  -0.732  0.00  0.00    +2.390 S 
ATOM      4  C   LIG    1        2.700  -1.156   0.952  0.00  0.00    -0.320 C 
ATOM      5  O   LIG    1        4.820  -0.848  -0.655  0.00  0.00    -0.930 OA
ATOM      6  O   LIG    1        2.998  -2.304  -1.448  0.00  0.00    -0.930 OA
ATOM      7  C   LIG    1        2.535   0.345   1.253  0.00  0.00    +0.200 C 
ENDROOT
BRANCH   1  10
ATOM      8  O   LIG    1        0.002  -0.004   0.002  0.00  0.00    -0.540 OA
ATOM      9  C   LIG    1       -0.014   1.209   0.009  0.00  0.00    +0.630 C 
ATOM     10  N   LIG    1        1.143   1.898   0.001  0.00  0.00    -0.590 N 
BRANCH  10  11
ATOM     11  C   LIG    1        1.124   3.363   0.009  0.00  0.00    +0.300 C 
BRANCH  11  12
ATOM     12  C   LIG    1        1.131   3.865   1.455  0.00  0.00    +0.160 C 
BRANCH  12  13
ATOM     13  O   LIG    1        2.363   3.501   2.080  0.00  0.00    -0.570 OA
ATOM     14  H   LIG    1        2.437   3.787   3.000  0.00  0.00    +0.380 HD
ENDBRANCH  12  13
ENDBRANCH  11  12
ENDBRANCH  10  11
ENDBRANCH   1  10
BRANCH   7  15
ATOM     15  O   LIG    1        1.356   0.534   2.038  0.00  0.00    -0.530 OA
ATOM     16  H   LIG    1        1.378   0.086   2.894  0.00  0.00    +0.380 HD
ENDBRANCH   7  15
TORSDOF 5
ENDMDL
MODEL      660
REMARK  Name = ZINC000217410696
REMARK                            x       y       z     vdW  Elec       q    Type
REMARK                         _______ _______ _______ _____ _____    ______ ____
ROOT
ATOM      1  N   LIG    1        1.125   3.299   0.009  0.00  0.00    -0.440 N 
ATOM      2  C   LIG    1        0.816   4.129  -1.033  0.00  0.00    +0.720 C 
ATOM      3  N   LIG    1        1.190   5.425  -0.802  0.00  0.00    -0.710 N 
ATOM      4  H   LIG    1        0.922   6.214  -1.298  0.00  0.00    +0.440 HD
ATOM      5  C   LIG    1        2.063   5.362   0.332  0.00  0.00    +0.210 C 
ATOM      6  C   LIG    1        2.333   6.446   1.335  0.00  0.00    -0.270 C 
ATOM      7  S   LIG    1        2.847   5.504   2.835  0.00  0.00    +2.400 S 
ATOM      8  C   LIG    1        2.489   3.823   2.159  0.00  0.00    -0.290 C 
ATOM      9  O   LIG    1        1.953   5.789   3.902  0.00  0.00    -0.910 OA
ATOM     10  O   LIG    1        4.248   5.648   3.025  0.00  0.00    -0.910 OA
ATOM     11  O   LIG    1        0.269   3.756  -2.053  0.00  0.00    -0.530 OA
ATOM     12  C   LIG    1        1.421   4.173   1.122  0.00  0.00    +0.230 C 
ENDROOT
BRANCH   1  15
ATOM     13  O   LIG    1        0.002  -0.004   0.002  0.00  0.00    -0.530 OA
ATOM     14  C   LIG    1       -0.014   1.209   0.009  0.00  0.00    +0.650 C 
ATOM     15  N   LIG    1        1.143   1.898   0.001  0.00  0.00    -0.490 N 
ATOM     16  H   LIG    1        1.990   1.425  -0.009  0.00  0.00    +0.410 HD
ENDBRANCH   1  15
TORSDOF 1
ENDMDL
MODEL      661
REMARK  Name = ZINC000217421303
REMARK                            x       y       z     vdW  Elec       q    Type
REMARK                         _______ _______ _______ _____ _____    ______ ____
ROOT
ATOM      1  O   LIG    1        0.002  -0.004   0.002  0.00  0.00    -0.440 OA
ATOM      2  C   LIG    1       -0.014   1.208   0.009  0.00  0.00    +0.670 C 
ATOM      3  N   LIG    1        1.143   1.898   0.001  0.00  0.00    -0.540 N 
ATOM      4  C   LIG    1        2.411   1.387  -0.019  0.00  0.00    +0.520 C 
ATOM      5  N   LIG    1        3.360   2.322   0.293  0.00  0.00    -0.660 N 
ATOM      6  H   LIG    1        4.320   2.254   0.170  0.00  0.00    +0.450 HD
ATOM      7  C   LIG    1        2.628   3.424   0.843  0.00  0.00    +0.200 C 
ATOM      8  C   LIG    1        3.030   4.870   0.853  0.00  0.00    -0.270 C 
ATOM      9  S   LIG    1        1.413   5.749   0.954  0.00  0.00    +2.400 S 
ATOM     10  C   LIG    1        0.348   4.252   0.767  0.00  0.00    -0.270 C 
ATOM     11  O   LIG    1        1.258   6.587  -0.183  0.00  0.00    -0.900 OA
ATOM     12  O   LIG    1        1.247   6.287   2.259  0.00  0.00    -0.910 OA
ATOM     13  S   LIG    1        2.772  -0.243  -0.396  0.00  0.00    -0.470 S 
ATOM     14  C   LIG    1        1.307   3.334   0.007  0.00  0.00    +0.210 C 
ENDROOT
TORSDOF 0
ENDMDL
MODEL      662
REMARK  Name = ZINC000217421223
REMARK                            x       y       z     vdW  Elec       q    Type
REMARK                         _______ _______ _______ _____ _____    ______ ____
ROOT
ATOM      1  O   LIG    1        0.002  -0.004   0.002  0.00  0.00    -0.420 OA
ATOM      2  C   LIG    1       -0.014   1.208   0.009  0.00  0.00    +0.660 C 
ATOM      3  N   LIG    1        1.143   1.898   0.001  0.00  0.00    -0.550 N 
ATOM      4  C   LIG    1        2.370   1.358  -0.019  0.00  0.00    +0.520 C 
ATOM      5  N   LIG    1        3.360   2.261  -0.023  0.00  0.00    -0.670 N 
ATOM      6  H   LIG    1        4.308   2.057  -0.037  0.00  0.00    +0.450 HD
ATOM      7  C   LIG    1        2.778   3.612  -0.003  0.00  0.00    +0.260 C 
ATOM      8  C   LIG    1        3.235   4.381  -1.258  0.00  0.00    -0.290 C 
ATOM      9  S   LIG    1        1.933   3.974  -2.490  0.00  0.00    +2.380 S 
ATOM     10  C   LIG    1        0.577   3.946  -1.250  0.00  0.00    -0.280 C 
ATOM     11  O   LIG    1        2.147   2.666  -3.001  0.00  0.00    -0.900 OA
ATOM     12  O   LIG    1        1.752   5.069  -3.378  0.00  0.00    -0.910 OA
ATOM     13  S   LIG    1        2.647  -0.331  -0.039  0.00  0.00    -0.500 S 
ATOM     14  C   LIG    1        1.264   3.364   0.008  0.00  0.00    +0.260 C 
ENDROOT
TORSDOF 0
ENDMDL
MODEL      663
REMARK  Name = ZINC000217407025
REMARK                            x       y       z     vdW  Elec       q    Type
REMARK                         _______ _______ _______ _____ _____    ______ ____
ROOT
ATOM      1  C   LIG    1       -2.046  -0.793   1.282  0.00  0.00    +0.270 C 
ATOM      2  C   LIG    1       -3.405  -0.046   1.329  0.00  0.00    -0.290 C 
ATOM      3  S   LIG    1       -4.273  -0.967   2.663  0.00  0.00    +2.390 S 
ATOM      4  C   LIG    1       -3.570  -2.602   2.226  0.00  0.00    -0.330 C 
ATOM      5  O   LIG    1       -5.671  -0.963   2.413  0.00  0.00    -0.930 OA
ATOM      6  O   LIG    1       -3.774  -0.556   3.928  0.00  0.00    -0.930 OA
ATOM      7  C   LIG    1       -2.312  -2.295   1.401  0.00  0.00    +0.190 C 
ENDROOT
BRANCH   1   8
ATOM      8  N   LIG    1       -1.372  -0.511   0.012  0.00  0.00    -0.610 N 
ATOM      9  C   LIG    1       -2.031  -0.678  -1.152  0.00  0.00    +0.630 C 
ATOM     10  O   LIG    1       -3.156  -1.131  -1.153  0.00  0.00    -0.510 OA
BRANCH   8  12
ATOM     11  C   LIG    1        0.045   1.481   0.069  0.00  0.00    +0.010 C 
ATOM     12  C   LIG    1        0.017  -0.048   0.008  0.00  0.00    +0.270 C 
ENDBRANCH   8  12
ENDBRANCH   1   8
BRANCH   7  13
ATOM     13  O   LIG    1       -2.472  -2.842   0.090  0.00  0.00    -0.530 OA
ATOM     14  H   LIG    1       -2.579  -3.804   0.076  0.00  0.00    +0.370 HD
ENDBRANCH   7  13
TORSDOF 3
ENDMDL
MODEL      664
REMARK  Name = ZINC000217397112
REMARK                            x       y       z     vdW  Elec       q    Type
REMARK                         _______ _______ _______ _____ _____    ______ ____
ROOT
ATOM      1  O   LIG    1        0.002  -0.004   0.002  0.00  0.00    -0.540 OA
ATOM      2  C   LIG    1       -0.014   1.209   0.009  0.00  0.00    +0.640 C 
ATOM      3  N   LIG    1        1.143   1.898   0.001  0.00  0.00    -0.630 N 
ATOM      4  C   LIG    1        1.158   3.371   0.015  0.00  0.00    +0.300 C 
ATOM      5  C   LIG    1        1.872   3.829   1.288  0.00  0.00    +0.270 C 
ATOM      6  N   LIG    1        3.112   3.089   1.481  0.00  0.00    -0.590 N 
ATOM      7  C   LIG    1        3.374   1.898   0.940  0.00  0.00    +0.510 C 
ATOM      8  O   LIG    1        4.411   1.344   1.238  0.00  0.00    -0.530 OA
ATOM      9  C   LIG    1        2.443   1.211  -0.015  0.00  0.00    +0.340 C 
ENDROOT
BRANCH   6  10
ATOM     10  C   LIG    1        4.142   3.695   2.328  0.00  0.00    +0.260 C 
ATOM     11  C   LIG    1        4.462   2.757   3.505  0.00  0.00    +0.080 C 
ATOM     12  C   LIG    1        5.765   3.290   4.155  0.00  0.00    -0.300 C 
ATOM     13  S   LIG    1        6.798   3.701   2.699  0.00  0.00    +2.400 S 
ATOM     14  O   LIG    1        7.573   2.567   2.335  0.00  0.00    -0.920 OA
ATOM     15  O   LIG    1        7.434   4.955   2.911  0.00  0.00    -0.940 OA
ATOM     16  C   LIG    1        5.429   3.908   1.506  0.00  0.00    -0.330 C 
ENDBRANCH   6  10
TORSDOF 1
ENDMDL
MODEL      665
REMARK  Name = ZINC000306143162
REMARK                            x       y       z     vdW  Elec       q    Type
REMARK                         _______ _______ _______ _____ _____    ______ ____
ROOT
ATOM      1  C   LIG    1       -4.020  -4.529   0.016  0.00  0.00    +0.180 A 
ATOM      2  N   LIG    1       -4.761  -4.741   1.075  0.00  0.00    -0.270 NA
ATOM      3  N   LIG    1       -5.954  -5.073   0.713  0.00  0.00    -0.280 NA
ATOM      4  C   LIG    1       -6.024  -5.088  -0.581  0.00  0.00    +0.180 A 
ATOM      5  C   LIG    1       -7.200  -5.408  -1.469  0.00  0.00    +0.330 C 
ATOM      6  N   LIG    1       -6.892  -4.921  -2.826  0.00  0.00    -0.690 NA
ATOM      7  H   LIG    1       -7.610  -5.196  -3.480  0.00  0.00    +0.370 HD
ATOM      8  C   LIG    1       -5.570  -5.384  -3.271  0.00  0.00    +0.200 C 
ATOM      9  C   LIG    1       -4.474  -4.654  -2.482  0.00  0.00    +0.310 C 
ATOM     10  N   LIG    1       -4.800  -4.740  -1.058  0.00  0.00    -0.460 N 
ENDROOT
BRANCH   1  11
ATOM     11  C   LIG    1       -2.570  -4.121   0.004  0.00  0.00    +0.310 C 
BRANCH  11  12
ATOM     12  O   LIG    1       -2.476  -2.695   0.011  0.00  0.00    -0.360 OA
BRANCH  12  13
ATOM     13  C   LIG    1       -1.135  -2.201   0.001  0.00  0.00    +0.220 C 
BRANCH  13  16
ATOM     14  C   LIG    1       -0.018   1.461   0.010  0.00  0.00    +0.290 C 
ATOM     15  N   LIG    1        0.002  -0.004   0.002  0.00  0.00    -0.620 N 
ATOM     16  C   LIG    1       -1.156  -0.694   0.009  0.00  0.00    +0.510 C 
ATOM     17  O   LIG    1       -2.214  -0.102   0.023  0.00  0.00    -0.510 OA
ATOM     18  C   LIG    1        1.281  -0.719  -0.014  0.00  0.00    +0.280 C 
ENDBRANCH  13  16
ENDBRANCH  12  13
ENDBRANCH  11  12
ENDBRANCH   1  11
TORSDOF 4
ENDMDL
MODEL      666
REMARK  Name = ZINC000096084264
REMARK                            x       y       z     vdW  Elec       q    Type
REMARK                         _______ _______ _______ _____ _____    ______ ____
ROOT
ATOM      1  C   LIG    1        0.024  -4.452  -4.106  0.00  0.00    -0.020 A 
ATOM      2  C   LIG    1       -1.055  -4.665  -4.877  0.00  0.00    +0.000 A 
ATOM      3  C   LIG    1       -2.515  -4.583  -4.520  0.00  0.00    +0.300 C 
ATOM      4  N   LIG    1       -3.289  -4.534  -5.774  0.00  0.00    -0.690 NA
ATOM      5  H   LIG    1       -4.280  -4.582  -5.589  0.00  0.00    +0.360 HD
ATOM      6  C   LIG    1       -2.872  -5.601  -6.694  0.00  0.00    +0.200 C 
ATOM      7  C   LIG    1       -1.473  -5.296  -7.244  0.00  0.00    +0.340 C 
ATOM      8  N   LIG    1       -0.592  -4.985  -6.113  0.00  0.00    -0.280 N 
ATOM      9  N   LIG    1        0.688  -4.960  -6.077  0.00  0.00    -0.070 NA
ATOM     10  N   LIG    1        1.092  -4.640  -4.895  0.00  0.00    -0.250 NA
ENDROOT
BRANCH   1  11
ATOM     11  C   LIG    1        0.032  -4.071  -2.648  0.00  0.00    +0.290 C 
BRANCH  11  12
ATOM     12  O   LIG    1        0.014  -2.647  -2.527  0.00  0.00    -0.360 OA
BRANCH  12  13
ATOM     13  C   LIG    1        0.021  -2.178  -1.177  0.00  0.00    +0.210 C 
BRANCH  13  16
ATOM     14  C   LIG    1       -0.018   1.461   0.010  0.00  0.00    +0.300 C 
ATOM     15  N   LIG    1        0.002  -0.004   0.002  0.00  0.00    -0.620 N 
ATOM     16  C   LIG    1        0.000  -0.672  -1.169  0.00  0.00    +0.510 C 
ATOM     17  O   LIG    1       -0.018  -0.060  -2.216  0.00  0.00    -0.510 OA
ATOM     18  C   LIG    1        0.024  -0.743   1.267  0.00  0.00    +0.280 C 
ENDBRANCH  13  16
ENDBRANCH  12  13
ENDBRANCH  11  12
ENDBRANCH   1  11
TORSDOF 4
ENDMDL
MODEL      667
REMARK  Name = ZINC000038255301
REMARK                            x       y       z     vdW  Elec       q    Type
REMARK                         _______ _______ _______ _____ _____    ______ ____
ROOT
ATOM      1  C   LIG    1       -0.018   1.503   0.010  0.00  0.00    +0.130 C 
ATOM      2  C   LIG    1        0.002  -0.004   0.002  0.00  0.00    -0.240 A 
ATOM      3  C   LIG    1       -1.151  -0.706   0.004  0.00  0.00    +0.300 A 
ATOM      4  N   LIG    1       -1.103  -2.070  -0.004  0.00  0.00    -0.520 N 
ATOM      5  C   LIG    1        0.093  -2.716  -0.013  0.00  0.00    +0.660 A 
ATOM      6  N   LIG    1        1.228  -2.048  -0.015  0.00  0.00    -0.630 NA
ATOM      7  C   LIG    1        1.233  -0.708  -0.013  0.00  0.00    +0.530 A 
ATOM      8  O   LIG    1        2.291  -0.097  -0.016  0.00  0.00    -0.520 OA
ENDROOT
BRANCH   4   9
ATOM      9  C1* LIG    1       -2.348  -2.843  -0.003  0.00  0.00    +0.400 C 
ATOM     10  C2* LIG    1       -2.469  -3.669  -1.302  0.00  0.00    +0.000 C 
ATOM     11  C3* LIG    1       -3.117  -4.995  -0.845  0.00  0.00    +0.160 C 
ATOM     12  C4* LIG    1       -3.311  -4.813   0.677  0.00  0.00    +0.180 C 
ATOM     13  O4* LIG    1       -2.332  -3.821   1.060  0.00  0.00    -0.360 OA
BRANCH  11  14
ATOM     14  O3* LIG    1       -4.376  -5.187  -1.493  0.00  0.00    -0.550 OA
ATOM     15  H3* LIG    1       -4.317  -5.248  -2.456  0.00  0.00    +0.390 HD
ENDBRANCH  11  14
BRANCH  12  16
ATOM     16  C5* LIG    1       -3.051  -6.131   1.409  0.00  0.00    +0.210 C 
BRANCH  16  17
ATOM     17  O5* LIG    1       -3.348  -5.972   2.797  0.00  0.00    -0.560 OA
ATOM     18  H5* LIG    1       -3.206  -6.770   3.324  0.00  0.00    +0.390 HD
ENDBRANCH  16  17
ENDBRANCH  12  16
ENDBRANCH   4   9
BRANCH   5  19
ATOM     19  N   LIG    1        0.117  -4.085  -0.021  0.00  0.00    -0.820 N 
ATOM     20  H   LIG    1        0.966  -4.555  -0.027  0.00  0.00    +0.430 HD
ATOM     21  H   LIG    1       -0.714  -4.585  -0.019  0.00  0.00    +0.410 HD
ENDBRANCH   5  19
TORSDOF 5
ENDMDL
MODEL      668
REMARK  Name = ZINC000256013227
REMARK                            x       y       z     vdW  Elec       q    Type
REMARK                         _______ _______ _______ _____ _____    ______ ____
ROOT
ATOM      1  S   UNK    1        0.982   3.636   1.212  0.00  0.00    +1.160 S 
ATOM      2  O   UNK    1        1.644   3.235   2.404  0.00  0.00    -0.810 OA
ENDROOT
BRANCH   1   3
ATOM      3  C   UNK    1       -0.720   3.008   1.225  0.00  0.00    -0.170 C 
BRANCH   3   4
ATOM      4  C   UNK    1       -0.699   1.479   1.216  0.00  0.00    +0.110 C 
BRANCH   4   5
ATOM      5  N   UNK    1       -0.012   1.005   0.008  0.00  0.00    -0.610 N 
ATOM      6  H   UNK    1       -0.500   1.339  -0.810  0.00  0.00    +0.440 HD
ATOM      7  H   UNK    1        0.935   1.354   0.000  0.00  0.00    +0.400 HD
ATOM      8  H   UNK    1        0.002  -0.004   0.002  0.00  0.00    +0.440 HD
ENDBRANCH   4   5
BRANCH   4   9
ATOM      9  C   UNK    1       -2.113   0.957   1.227  0.00  0.00    +0.490 C 
ATOM     10  O   UNK    1       -2.569   0.412   0.236  0.00  0.00    -0.660 OA
ATOM     11  O   UNK    1       -2.800   1.079   2.226  0.00  0.00    -0.630 OA
ENDBRANCH   4   9
ENDBRANCH   3   4
ENDBRANCH   1   3
BRANCH   1  12
ATOM     12  C   UNK    1        0.753   5.436   1.224  0.00  0.00    -0.170 C 
BRANCH  12  13
ATOM     13  C   UNK    1        2.120   6.124   1.214  0.00  0.00    +0.110 C 
BRANCH  13  14
ATOM     14  N   UNK    1        2.808   5.828  -0.049  0.00  0.00    -0.620 N 
ATOM     15  H   UNK    1        2.255   6.168  -0.821  0.00  0.00    +0.440 HD
ATOM     16  H   UNK    1        2.933   4.831  -0.139  0.00  0.00    +0.400 HD
ATOM     17  H   UNK    1        3.709   6.282  -0.055  0.00  0.00    +0.440 HD
ENDBRANCH  13  14
BRANCH  13  18
ATOM     18  C   UNK    1        1.933   7.613   1.348  0.00  0.00    +0.490 C 
ATOM     19  O   UNK    1        1.806   8.303   0.351  0.00  0.00    -0.660 OA
ATOM     20  O   UNK    1        1.909   8.128   2.453  0.00  0.00    -0.630 OA
ENDBRANCH  13  18
ENDBRANCH  12  13
ENDBRANCH   1  12
TORSDOF 8
ENDMDL
MODEL      669
REMARK  Name = ZINC000253495935
REMARK                            x       y       z     vdW  Elec       q    Type
REMARK                         _______ _______ _______ _____ _____    ______ ____
ROOT
ATOM      1  C   LIG    1        0.098   1.421   0.157  0.00  0.00    +0.310 C 
ATOM      2  N   LIG    1        0.279  -0.023  -0.009  0.00  0.00    -0.640 N 
ATOM      3  C   LIG    1       -0.010  -0.608  -1.188  0.00  0.00    +0.710 C 
ATOM      4  N   LIG    1       -0.121  -1.949  -1.267  0.00  0.00    -0.620 N 
ATOM      5  C   LIG    1       -0.362  -2.786  -0.074  0.00  0.00    +0.280 C 
ATOM      6  C   LIG    1        0.649  -3.931  -0.024  0.00  0.00    +0.180 C 
ATOM      7  N   LIG    1        0.707  -4.643  -1.315  0.00  0.00    -0.660 NA
ATOM      8  H   LIG    1        1.339  -5.428  -1.267  0.00  0.00    +0.360 HD
ATOM      9  C   LIG    1        1.103  -3.716  -2.366  0.00  0.00    +0.140 C 
ATOM     10  C   LIG    1        1.356  -4.351  -3.733  0.00  0.00    -0.300 C 
ATOM     11  S   LIG    1        1.005  -3.003  -4.927  0.00  0.00    +2.380 S 
ATOM     12  C   LIG    1        0.445  -1.757  -3.697  0.00  0.00    -0.260 C 
ATOM     13  O   LIG    1       -0.088  -3.379  -5.754  0.00  0.00    -0.920 OA
ATOM     14  O   LIG    1        2.223  -2.568  -5.518  0.00  0.00    -0.930 OA
ATOM     15  C   LIG    1       -0.017  -2.662  -2.540  0.00  0.00    +0.280 C 
ATOM     16  O   LIG    1       -0.170   0.075  -2.182  0.00  0.00    -0.570 OA
ATOM     17  C   LIG    1        0.774  -0.833   1.108  0.00  0.00    +0.290 C 
ENDROOT
TORSDOF 0
ENDMDL
MODEL      670
REMARK  Name = ZINC000253495934
REMARK                            x       y       z     vdW  Elec       q    Type
REMARK                         _______ _______ _______ _____ _____    ______ ____
ROOT
ATOM      1  C   LIG    1        0.148   1.449   0.015  0.00  0.00    +0.310 C 
ATOM      2  N   LIG    1        0.277  -0.010  -0.012  0.00  0.00    -0.630 N 
ATOM      3  C   LIG    1        0.011  -0.690  -1.145  0.00  0.00    +0.710 C 
ATOM      4  N   LIG    1       -0.091  -2.033  -1.117  0.00  0.00    -0.620 N 
ATOM      5  C   LIG    1       -0.300  -2.738   0.157  0.00  0.00    +0.220 C 
ATOM      6  C   LIG    1       -1.487  -3.693  -0.021  0.00  0.00    +0.230 C 
ATOM      7  N   LIG    1       -1.219  -4.580  -1.159  0.00  0.00    -0.680 NA
ATOM      8  H   LIG    1       -0.385  -5.126  -1.003  0.00  0.00    +0.340 HD
ATOM      9  C   LIG    1       -1.133  -3.838  -2.424  0.00  0.00    +0.210 C 
ATOM     10  C   LIG    1       -0.810  -4.844  -3.551  0.00  0.00    -0.280 C 
ATOM     11  S   LIG    1        1.017  -4.877  -3.648  0.00  0.00    +2.390 S 
ATOM     12  C   LIG    1        1.333  -3.607  -2.365  0.00  0.00    -0.330 C 
ATOM     13  O   LIG    1        1.430  -4.384  -4.915  0.00  0.00    -0.920 OA
ATOM     14  O   LIG    1        1.490  -6.137  -3.191  0.00  0.00    -0.930 OA
ATOM     15  C   LIG    1        0.001  -2.810  -2.353  0.00  0.00    +0.260 C 
ATOM     16  O   LIG    1       -0.138  -0.090  -2.192  0.00  0.00    -0.580 OA
ATOM     17  C   LIG    1        0.695  -0.730   1.193  0.00  0.00    +0.280 C 
ENDROOT
TORSDOF 0
ENDMDL
MODEL      671
REMARK  Name = ZINC000253495932
REMARK                            x       y       z     vdW  Elec       q    Type
REMARK                         _______ _______ _______ _____ _____    ______ ____
ROOT
ATOM      1  C   LIG    1        0.151   1.455  -0.015  0.00  0.00    +0.310 C 
ATOM      2  N   LIG    1        0.235  -0.007  -0.002  0.00  0.00    -0.630 N 
ATOM      3  C   LIG    1       -0.002  -0.706  -1.129  0.00  0.00    +0.720 C 
ATOM      4  N   LIG    1       -0.121  -2.048  -1.078  0.00  0.00    -0.620 N 
ATOM      5  C   LIG    1       -0.341  -2.767   0.194  0.00  0.00    +0.230 C 
ATOM      6  C   LIG    1       -1.518  -3.732   0.053  0.00  0.00    +0.210 C 
ATOM      7  N   LIG    1       -1.375  -4.572  -1.151  0.00  0.00    -0.650 NA
ATOM      8  H   LIG    1       -0.552  -5.151  -1.092  0.00  0.00    +0.350 HD
ATOM      9  C   LIG    1       -1.333  -3.721  -2.335  0.00  0.00    +0.180 C 
ATOM     10  C   LIG    1       -1.259  -4.492  -3.664  0.00  0.00    -0.290 C 
ATOM     11  S   LIG    1       -0.713  -3.178  -4.829  0.00  0.00    +2.380 S 
ATOM     12  C   LIG    1        0.068  -2.086  -3.578  0.00  0.00    -0.270 C 
ATOM     13  O   LIG    1       -1.853  -2.531  -5.378  0.00  0.00    -0.930 OA
ATOM     14  O   LIG    1        0.289  -3.699  -5.691  0.00  0.00    -0.930 OA
ATOM     15  C   LIG    1       -0.047  -2.879  -2.278  0.00  0.00    +0.220 C 
ATOM     16  O   LIG    1       -0.109  -0.127  -2.193  0.00  0.00    -0.570 OA
ATOM     17  C   LIG    1        0.578  -0.710   1.237  0.00  0.00    +0.270 C 
ENDROOT
TORSDOF 0
ENDMDL
MODEL      672
REMARK  Name = ZINC000217756058
REMARK                            x       y       z     vdW  Elec       q    Type
REMARK                         _______ _______ _______ _____ _____    ______ ____
ROOT
ATOM      1  C   LIG    1       -1.962  -0.191  -1.417  0.00  0.00    +0.190 A 
ATOM      2  N   LIG    1       -2.651   0.887  -1.701  0.00  0.00    -0.300 NA
ATOM      3  N   LIG    1       -2.991   0.827  -2.942  0.00  0.00    -0.070 NA
ATOM      4  N   LIG    1       -2.536  -0.261  -3.457  0.00  0.00    -0.090 NA
ATOM      5  N   LIG    1       -1.891  -0.914  -2.550  0.00  0.00    -0.290 N 
ENDROOT
BRANCH   1   6
ATOM      6  C   LIG    1       -1.360  -0.549  -0.083  0.00  0.00    +0.330 C 
BRANCH   6   8
ATOM      7  C   LIG    1       -0.018   1.465   0.010  0.00  0.00    +0.200 C 
ATOM      8  N   LIG    1        0.002  -0.004   0.002  0.00  0.00    -0.550 NA
ATOM      9  C   LIG    1        0.706  -0.527   1.180  0.00  0.00    +0.220 C 
ENDBRANCH   6   8
ENDBRANCH   1   6
BRANCH   5  10
ATOM     10  C   LIG    1       -1.218  -2.204  -2.719  0.00  0.00    +0.390 C 
BRANCH  10  11
ATOM     11  C   LIG    1        0.232  -1.969  -3.150  0.00  0.00    -0.350 C 
BRANCH  11  12
ATOM     12  S   LIG    1        1.066  -3.567  -3.359  0.00  0.00    +2.430 S 
ATOM     13  O   LIG    1        0.458  -4.256  -4.443  0.00  0.00    -0.930 OA
ATOM     14  O   LIG    1        1.149  -4.203  -2.091  0.00  0.00    -0.930 OA
ATOM     15  C   LIG    1        2.733  -3.056  -3.860  0.00  0.00    -0.250 C 
ENDBRANCH  11  12
ENDBRANCH  10  11
ENDBRANCH   5  10
TORSDOF 5
ENDMDL
MODEL      673
REMARK  Name = ZINC000095621421
REMARK                            x       y       z     vdW  Elec       q    Type
REMARK                         _______ _______ _______ _____ _____    ______ ____
ROOT
ATOM      1  CE  LYS A  1       -3.446  -0.472   1.409  0.00  0.00    +0.250 C 
ENDROOT
BRANCH   1   2
ATOM      2  NZ  LYS A  1       -2.072   0.036   1.304  0.00  0.00    -0.500 N 
ATOM      3  HZ1 LYS A  1       -2.091   1.042   1.226  0.00  0.00    +0.430 HD
ATOM      4  HZ2 LYS A  1       -1.551  -0.228   2.126  0.00  0.00    +0.420 HD
BRANCH   2   5
ATOM      5  C   LYS A  1       -1.429  -0.534   0.112  0.00  0.00    +0.280 C 
BRANCH   5   6
ATOM      6  CA  LYS A  1        0.002  -0.004   0.002  0.00  0.00    +0.080 C 
BRANCH   6   7
ATOM      7  N   LYS A  1       -0.018   1.465   0.010  0.00  0.00    -0.850 NA
ATOM      8  H1  LYS A  1       -0.556   1.823  -0.764  0.00  0.00    +0.340 HD
ATOM      9  H2  LYS A  1        0.919   1.839   0.003  0.00  0.00    +0.360 HD
ENDBRANCH   6   7
BRANCH   6  10
ATOM     10  C   LYS A  1        0.621  -0.491  -1.283  0.00  0.00    +0.470 C 
ATOM     11  OXT LYS A  1        0.733  -1.687  -1.491  0.00  0.00    -0.680 OA
ATOM     12  O   LYS A  1        1.009   0.311  -2.115  0.00  0.00    -0.670 OA
ENDBRANCH   6  10
ENDBRANCH   5   6
ENDBRANCH   2   5
ENDBRANCH   1   2
BRANCH   1  13
ATOM     13  CD  LYS A  1       -4.116   0.122   2.650  0.00  0.00    +0.030 C 
BRANCH  13  14
ATOM     14  CG  LYS A  1       -5.547  -0.408   2.760  0.00  0.00    +0.020 C 
BRANCH  14  15
ATOM     15  CB  LYS A  1       -6.216   0.186   4.001  0.00  0.00    +0.070 C 
BRANCH  15  16
ATOM     16  CA  LYS A  1       -7.647  -0.344   4.111  0.00  0.00    +0.080 C 
BRANCH  16  17
ATOM     17  N   LYS A  1       -8.439   0.141   2.973  0.00  0.00    -0.610 N 
ATOM     18  H1  LYS A  1       -8.452   1.150   2.978  0.00  0.00    +0.430 HD
ATOM     19  H2  LYS A  1       -9.382  -0.208   3.045  0.00  0.00    +0.440 HD
ATOM     20  H3  LYS A  1       -8.024  -0.185   2.112  0.00  0.00    +0.410 HD
ENDBRANCH  16  17
BRANCH  16  21
ATOM     21  C   LYS A  1       -8.266   0.143   5.396  0.00  0.00    +0.490 C 
ATOM     22  OXT LYS A  1       -7.875  -0.295   6.465  0.00  0.00    -0.630 OA
ATOM     23  O   LYS A  1       -9.157   0.974   5.367  0.00  0.00    -0.670 OA
ENDBRANCH  16  21
ENDBRANCH  15  16
ENDBRANCH  14  15
ENDBRANCH  13  14
ENDBRANCH   1  13
TORSDOF 11
ENDMDL
MODEL      674
REMARK  Name = ZINC000095621422
REMARK                            x       y       z     vdW  Elec       q    Type
REMARK                         _______ _______ _______ _____ _____    ______ ____
ROOT
ATOM      1  CE  LYS A  1        2.561  -0.368  -2.719  0.00  0.00    +0.250 C 
ENDROOT
BRANCH   1   2
ATOM      2  NZ  LYS A  1        1.959   0.106  -1.467  0.00  0.00    -0.510 N 
ATOM      3  HZ1 LYS A  1        2.546  -0.157  -0.690  0.00  0.00    +0.420 HD
ATOM      4  HZ2 LYS A  1        1.870   1.111  -1.496  0.00  0.00    +0.420 HD
BRANCH   2   5
ATOM      5  C   LYS A  1        0.630  -0.498  -1.303  0.00  0.00    +0.240 C 
BRANCH   5   6
ATOM      6  CA  LYS A  1        0.002  -0.004   0.002  0.00  0.00    +0.100 C 
BRANCH   6   7
ATOM      7  N   LYS A  1       -0.018   1.465   0.010  0.00  0.00    -0.820 NA
ATOM      8  H1  LYS A  1       -0.556   1.823  -0.764  0.00  0.00    +0.360 HD
ATOM      9  H2  LYS A  1        0.919   1.839   0.003  0.00  0.00    +0.310 HD
ENDBRANCH   6   7
BRANCH   6  10
ATOM     10  C   LYS A  1       -1.407  -0.526   0.111  0.00  0.00    +0.500 C 
ATOM     11  OXT LYS A  1       -1.604  -1.714   0.305  0.00  0.00    -0.680 OA
ATOM     12  O   LYS A  1       -2.351   0.239   0.004  0.00  0.00    -0.650 OA
ENDBRANCH   6  10
ENDBRANCH   5   6
ENDBRANCH   2   5
ENDBRANCH   1   2
BRANCH   1  13
ATOM     13  CD  LYS A  1        3.945   0.262  -2.890  0.00  0.00    +0.030 C 
BRANCH  13  14
ATOM     14  CG  LYS A  1        4.573  -0.233  -4.195  0.00  0.00    +0.030 C 
BRANCH  14  15
ATOM     15  CB  LYS A  1        5.957   0.397  -4.366  0.00  0.00    +0.070 C 
BRANCH  15  16
ATOM     16  CA  LYS A  1        6.585  -0.097  -5.670  0.00  0.00    +0.090 C 
BRANCH  16  17
ATOM     17  N   LYS A  1        6.824  -1.544  -5.581  0.00  0.00    -0.610 N 
ATOM     18  H1  LYS A  1        7.451  -1.734  -4.813  0.00  0.00    +0.430 HD
ATOM     19  H2  LYS A  1        7.239  -1.870  -6.442  0.00  0.00    +0.440 HD
ATOM     20  H3  LYS A  1        5.949  -2.021  -5.427  0.00  0.00    +0.410 HD
ENDBRANCH  16  17
BRANCH  16  21
ATOM     21  C   LYS A  1        7.893   0.615  -5.900  0.00  0.00    +0.490 C 
ATOM     22  OXT LYS A  1        7.899   1.801  -6.185  0.00  0.00    -0.630 OA
ATOM     23  O   LYS A  1        8.944   0.006  -5.801  0.00  0.00    -0.670 OA
ENDBRANCH  16  21
ENDBRANCH  15  16
ENDBRANCH  14  15
ENDBRANCH  13  14
ENDBRANCH   1  13
TORSDOF 11
ENDMDL
MODEL      675
REMARK  Name = ZINC000095617095
REMARK                            x       y       z     vdW  Elec       q    Type
REMARK                         _______ _______ _______ _____ _____    ______ ____
ROOT
ATOM      1  C   LIG    1       -2.580  -2.823   0.011  0.00  0.00    +0.220 C 
ENDROOT
BRANCH   1   2
ATOM      2  C   LIG    1       -1.246  -2.121   0.003  0.00  0.00    +0.350 C 
ATOM      3  O   LIG    1       -0.225  -2.765  -0.011  0.00  0.00    -0.370 OA
BRANCH   2   4
ATOM      4  C   LIG    1       -1.189  -0.631   0.010  0.00  0.00    +0.430 C 
ATOM      5  O   LIG    1       -2.215   0.015   0.023  0.00  0.00    -0.470 OA
BRANCH   4   7
ATOM      6  C   LIG    1       -0.018   1.448   0.010  0.00  0.00    +0.280 C 
ATOM      7  O   LIG    1        0.002  -0.004   0.002  0.00  0.00    -0.330 OA
ENDBRANCH   4   7
ENDBRANCH   2   4
ENDBRANCH   1   2
BRANCH   1   8
ATOM      8  O   LIG    1       -2.398  -4.195  -0.346  0.00  0.00    -0.520 OA
ATOM      9  H   LIG    1       -1.814  -4.683   0.250  0.00  0.00    +0.380 HD
ENDBRANCH   1   8
BRANCH   1  10
ATOM     10  C   LIG    1       -3.192  -2.738   1.411  0.00  0.00    +0.180 C 
BRANCH  10  11
ATOM     11  O   LIG    1       -2.267  -3.259   2.368  0.00  0.00    -0.550 OA
ATOM     12  H   LIG    1       -2.025  -4.183   2.218  0.00  0.00    +0.380 HD
ENDBRANCH  10  11
BRANCH  10  13
ATOM     13  C   LIG    1       -4.484  -3.556   1.454  0.00  0.00    +0.210 C 
BRANCH  13  14
ATOM     14  O   LIG    1       -5.409  -3.035   0.497  0.00  0.00    -0.540 OA
ATOM     15  H   LIG    1       -5.651  -2.111   0.647  0.00  0.00    +0.380 HD
ENDBRANCH  13  14
BRANCH  13  16
ATOM     16  C   LIG    1       -5.096  -3.471   2.853  0.00  0.00    +0.160 C 
BRANCH  16  17
ATOM     17  O   LIG    1       -6.238  -4.327   2.927  0.00  0.00    -0.560 OA
ATOM     18  H   LIG    1       -6.678  -4.323   3.788  0.00  0.00    +0.380 HD
ENDBRANCH  16  17
ENDBRANCH  13  16
ENDBRANCH  10  13
ENDBRANCH   1  10
TORSDOF 10
ENDMDL
MODEL      676
REMARK  Name = ZINC000002140710
REMARK                            x       y       z     vdW  Elec       q    Type
REMARK                         _______ _______ _______ _____ _____    ______ ____
ROOT
ATOM      1  C   LIG    1       -0.018   1.461   0.010  0.00  0.00    +0.340 C 
ATOM      2  N   LIG    1        0.002  -0.004   0.002  0.00  0.00    -0.570 N 
ATOM      3  C   LIG    1        0.005  -0.644  -1.177  0.00  0.00    +0.720 C 
ATOM      4  N   LIG    1       -0.185  -1.977  -1.270  0.00  0.00    -0.530 N 
ATOM      5  C   LIG    1       -0.461  -2.680  -0.098  0.00  0.00    +0.300 C 
ATOM      6  N   LIG    1       -1.205  -3.728  -0.110  0.00  0.00    -0.240 NA
ATOM      7  N   LIG    1       -1.539  -4.372   1.088  0.00  0.00    -0.560 N 
ATOM      8  H   LIG    1       -1.997  -5.226   1.068  0.00  0.00    +0.450 HD
ATOM      9  C   LIG    1       -1.221  -3.796   2.286  0.00  0.00    +0.610 C 
ATOM     10  N   LIG    1       -0.451  -2.765   2.351  0.00  0.00    -0.590 NA
ATOM     11  C   LIG    1        0.149  -2.161   1.177  0.00  0.00    +0.310 C 
ATOM     12  C   LIG    1       -0.104  -2.664  -2.562  0.00  0.00    +0.350 C 
ATOM     13  O   LIG    1        0.185  -0.003  -2.194  0.00  0.00    -0.520 OA
ATOM     14  C   LIG    1        0.022  -0.660   1.180  0.00  0.00    +0.510 C 
ATOM     15  O   LIG    1       -0.066  -0.052   2.225  0.00  0.00    -0.450 OA
ENDROOT
BRANCH  11  16
ATOM     16  O   LIG    1        1.543  -2.478   1.170  0.00  0.00    -0.530 OA
ATOM     17  H   LIG    1        2.023  -2.157   1.945  0.00  0.00    +0.400 HD
ENDBRANCH  11  16
TORSDOF 1
ENDMDL
MODEL      677
REMARK  Name = ZINC000002140707
REMARK                            x       y       z     vdW  Elec       q    Type
REMARK                         _______ _______ _______ _____ _____    ______ ____
ROOT
ATOM      1  C   LIG    1       -0.018   1.461   0.010  0.00  0.00    +0.340 C 
ATOM      2  N   LIG    1        0.002  -0.004   0.002  0.00  0.00    -0.570 N 
ATOM      3  C   LIG    1        0.005  -0.644  -1.177  0.00  0.00    +0.720 C 
ATOM      4  N   LIG    1        0.233  -1.971  -1.272  0.00  0.00    -0.530 N 
ATOM      5  C   LIG    1        0.539  -2.666  -0.103  0.00  0.00    +0.300 C 
ATOM      6  N   LIG    1        1.313  -3.692  -0.122  0.00  0.00    -0.240 NA
ATOM      7  N   LIG    1        1.676  -4.326   1.072  0.00  0.00    -0.560 N 
ATOM      8  H   LIG    1        2.158  -5.168   1.048  0.00  0.00    +0.450 HD
ATOM      9  C   LIG    1        1.352  -3.760   2.273  0.00  0.00    +0.610 C 
ATOM     10  N   LIG    1        0.554  -2.751   2.346  0.00  0.00    -0.590 NA
ATOM     11  C   LIG    1       -0.073  -2.164   1.178  0.00  0.00    +0.310 C 
ATOM     12  C   LIG    1        0.160  -2.660  -2.563  0.00  0.00    +0.350 C 
ATOM     13  O   LIG    1       -0.203  -0.009  -2.192  0.00  0.00    -0.520 OA
ATOM     14  C   LIG    1        0.022  -0.660   1.180  0.00  0.00    +0.510 C 
ATOM     15  O   LIG    1        0.110  -0.050   2.224  0.00  0.00    -0.450 OA
ENDROOT
BRANCH  11  16
ATOM     16  O   LIG    1       -1.457  -2.521   1.183  0.00  0.00    -0.530 OA
ATOM     17  H   LIG    1       -1.940  -2.214   1.962  0.00  0.00    +0.400 HD
ENDBRANCH  11  16
TORSDOF 1
ENDMDL
MODEL      678
REMARK  Name = ZINC000039264388
REMARK                            x       y       z     vdW  Elec       q    Type
REMARK                         _______ _______ _______ _____ _____    ______ ____
ROOT
ATOM      1  O   LIG    1        0.002  -0.004   0.002  0.00  0.00    -0.500 OA
ATOM      2  C   LIG    1       -0.014   1.209   0.009  0.00  0.00    +0.480 C 
ATOM      3  C   LIG    1       -1.322   1.957   0.032  0.00  0.00    +0.250 C 
ATOM      4  O   LIG    1       -2.051   1.608   1.210  0.00  0.00    -0.340 OA
ATOM      5  C   LIG    1       -2.568   0.276   1.199  0.00  0.00    +0.230 C 
ATOM      6  C   LIG    1       -2.345  -0.360   2.547  0.00  0.00    +0.520 C 
ATOM      7  N   LIG    1       -1.748  -1.593   2.598  0.00  0.00    -0.720 N 
ATOM      8  H   LIG    1       -1.465  -2.074   1.804  0.00  0.00    +0.420 HD
ATOM      9  C   LIG    1       -1.572  -2.129   3.971  0.00  0.00    +0.280 C 
ATOM     10  C   LIG    1       -0.139  -2.646   4.109  0.00  0.00    +0.150 C 
ATOM     11  O   LIG    1        0.731  -1.867   3.285  0.00  0.00    -0.370 OA
ATOM     12  C   LIG    1        2.036  -2.425   3.126  0.00  0.00    +0.170 C 
ATOM     13  C   LIG    1        3.014  -1.325   2.709  0.00  0.00    +0.190 C 
ATOM     14  O   LIG    1        2.602  -0.770   1.458  0.00  0.00    -0.370 OA
ATOM     15  C   LIG    1        2.712   0.653   1.388  0.00  0.00    +0.150 C 
ATOM     16  C   LIG    1        2.394   1.120  -0.033  0.00  0.00    +0.300 C 
ATOM     17  O   LIG    1       -2.685   0.207   3.564  0.00  0.00    -0.530 OA
ATOM     18  N   LIG    1        1.150   1.918   0.001  0.00  0.00    -0.740 N 
ATOM     19  H   LIG    1        1.162   2.888   0.012  0.00  0.00    +0.410 HD
ENDROOT
TORSDOF 0
ENDMDL
MODEL      679
REMARK  Name = ZINC000016952017
REMARK                            x       y       z     vdW  Elec       q    Type
REMARK                         _______ _______ _______ _____ _____    ______ ____
ROOT
ATOM      1  C   LIG    1       -0.032   5.396   0.033  0.00  0.00    +0.450 C 
ATOM      2  O   LIG    1       -1.379   5.908   0.124  0.00  0.00    -0.350 OA
ATOM      3  C   LIG    1       -1.240   7.258   0.616  0.00  0.00    +0.130 C 
ATOM      4  C   LIG    1       -0.136   7.175   1.693  0.00  0.00    +0.140 C 
ATOM      5  C   LIG    1        0.680   5.921   1.299  0.00  0.00    +0.190 C 
ENDROOT
BRANCH   1  10
ATOM      6  O   LIG    1        0.002  -0.004   0.002  0.00  0.00    -0.510 OA
ATOM      7  C   LIG    1       -0.014   1.214   0.009  0.00  0.00    +0.550 A 
ATOM      8  C   LIG    1       -1.246   1.911   0.030  0.00  0.00    -0.130 A 
ATOM      9  C   LIG    1       -1.236   3.261   0.038  0.00  0.00    +0.370 A 
ATOM     10  N   LIG    1       -0.043   3.930   0.025  0.00  0.00    -0.520 N 
ATOM     11  C   LIG    1        1.121   3.256   0.005  0.00  0.00    +0.710 A 
ATOM     12  O   LIG    1        2.170   3.870  -0.006  0.00  0.00    -0.540 OA
ATOM     13  N   LIG    1        1.140   1.910   0.001  0.00  0.00    -0.660 N 
ATOM     14  H   LIG    1        1.988   1.439  -0.013  0.00  0.00    +0.430 HD
ENDBRANCH   1  10
BRANCH   4  15
ATOM     15  O   LIG    1        0.689   8.341   1.656  0.00  0.00    -0.550 OA
ATOM     16  H   LIG    1        0.214   9.164   1.837  0.00  0.00    +0.390 HD
ENDBRANCH   4  15
BRANCH   3  17
ATOM     17  C   LIG    1       -2.555   7.739   1.234  0.00  0.00    +0.260 C 
ATOM     18  F   LIG    1       -3.527   7.848   0.234  0.00  0.00    -0.200 F 
ENDBRANCH   3  17
BRANCH   5  19
ATOM     19  O   LIG    1        0.633   4.945   2.342  0.00  0.00    -0.540 OA
ATOM     20  H   LIG    1        1.012   5.246   3.179  0.00  0.00    +0.390 HD
ENDBRANCH   5  19
TORSDOF 4
ENDMDL
MODEL      680
REMARK  Name = ZINC000017013354
REMARK                            x       y       z     vdW  Elec       q    Type
REMARK                         _______ _______ _______ _____ _____    ______ ____
ROOT
ATOM      1  C   LIG    1       -0.019   1.526   0.010  0.00  0.00    +0.090 C 
ATOM      2  C   LIG    1        0.002  -0.004   0.002  0.00  0.00    +0.300 C 
ATOM      3  O   LIG    1        0.666  -0.462  -1.177  0.00  0.00    -0.380 OA
ATOM      4  C   LIG    1        0.796  -1.887  -1.266  0.00  0.00    +0.260 C 
ATOM      5  C   LIG    1        1.544  -2.380  -0.027  0.00  0.00    +0.130 C 
ATOM      6  O   LIG    1        1.615  -3.804  -0.000  0.00  0.00    -0.390 OA
ATOM      7  C   LIG    1        2.346  -4.314   1.120  0.00  0.00    +0.310 C 
ATOM      8  C   LIG    1        1.676  -3.881   2.424  0.00  0.00    +0.140 C 
ATOM      9  C   LIG    1        1.557  -2.352   2.461  0.00  0.00    +0.210 C 
ATOM     10  C   LIG    1        0.789  -1.899   1.219  0.00  0.00    +0.150 C 
ATOM     11  O   LIG    1        0.690  -0.476   1.166  0.00  0.00    -0.370 OA
ENDROOT
BRANCH   9  12
ATOM     12  O   LIG    1        0.852  -1.953   3.638  0.00  0.00    -0.540 OA
ATOM     13  H   LIG    1        1.279  -2.224   4.462  0.00  0.00    +0.390 HD
ENDBRANCH   9  12
BRANCH   8  14
ATOM     14  O   LIG    1        2.462  -4.322   3.533  0.00  0.00    -0.550 OA
ATOM     15  H   LIG    1        2.578  -5.281   3.576  0.00  0.00    +0.400 HD
ENDBRANCH   8  14
BRANCH   7  16
ATOM     16  O   LIG    1        2.376  -5.742   1.056  0.00  0.00    -0.540 OA
ATOM     17  H   LIG    1        2.795  -6.091   0.258  0.00  0.00    +0.400 HD
ENDBRANCH   7  16
TORSDOF 3
ENDMDL
MODEL      681
REMARK  Name = ZINC000039619408
REMARK                            x       y       z     vdW  Elec       q    Type
REMARK                         _______ _______ _______ _____ _____    ______ ____
ROOT
ATOM      1  C   LIG    1        0.658  -2.072  -1.122  0.00  0.00    -0.170 A 
ATOM      2  C   LIG    1        1.240  -2.819  -2.127  0.00  0.00    -0.430 A 
ATOM      3  N   LIG    1        1.074  -4.114  -1.813  0.00  0.00    -0.280 N 
ATOM      4  N   LIG    1        0.381  -4.191  -0.599  0.00  0.00    -0.260 NA
ATOM      5  C   LIG    1        1.539  -5.254  -2.606  0.00  0.00    +0.390 C 
ATOM      6  C   LIG    1        0.134  -2.982  -0.176  0.00  0.00    +0.300 A 
ENDROOT
BRANCH   2   7
ATOM      7  S   LIG    1        2.053  -2.190  -3.558  0.00  0.00    +2.710 S 
ATOM      8  O   LIG    1        2.940  -3.209  -3.997  0.00  0.00    -0.950 OA
ATOM      9  O   LIG    1        2.480  -0.875  -3.232  0.00  0.00    -0.890 OA
BRANCH   7  10
ATOM     10  N   LIG    1        0.905  -2.028  -4.742  0.00  0.00    -1.240 NA
ATOM     11  H   LIG    1        1.155  -1.692  -5.617  0.00  0.00    +0.430 HD
ATOM     12  H   LIG    1       -0.016  -2.269  -4.560  0.00  0.00    +0.420 HD
ENDBRANCH   7  10
ENDBRANCH   2   7
BRANCH   1  13
ATOM     13  C   LIG    1        0.601  -0.602  -1.047  0.00  0.00    +0.510 C 
ATOM     14  O   LIG    1        1.093   0.071  -1.931  0.00  0.00    -0.450 OA
BRANCH  13  16
ATOM     15  C   LIG    1       -0.018   1.448   0.010  0.00  0.00    +0.280 C 
ATOM     16  O   LIG    1        0.002  -0.004   0.002  0.00  0.00    -0.350 OA
ENDBRANCH  13  16
ENDBRANCH   1  13
TORSDOF 4
ENDMDL
MODEL      682
REMARK  Name = ZINC000045460978
REMARK                            x       y       z     vdW  Elec       q    Type
REMARK                         _______ _______ _______ _____ _____    ______ ____
ROOT
ATOM      1  C   LIG    1        0.657  -2.104  -1.120  0.00  0.00    +0.210 C 
ENDROOT
BRANCH   1   2
ATOM      2  N   LIG    1        1.727  -2.505  -2.043  0.00  0.00    -0.810 NA
ATOM      3  H   LIG    1        2.630  -2.217  -1.697  0.00  0.00    +0.350 HD
ATOM      4  H   LIG    1        1.562  -2.140  -2.969  0.00  0.00    +0.360 HD
ENDBRANCH   1   2
BRANCH   1   5
ATOM      5  C   LIG    1        0.598  -0.600  -1.043  0.00  0.00    +0.430 C 
ATOM      6  O   LIG    1        1.088   0.070  -1.921  0.00  0.00    -0.500 OA
BRANCH   5   8
ATOM      7  C   LIG    1       -0.018   1.448   0.010  0.00  0.00    +0.270 C 
ATOM      8  O   LIG    1        0.002  -0.004   0.002  0.00  0.00    -0.350 OA
ENDBRANCH   5   8
ENDBRANCH   1   5
BRANCH   1   9
ATOM      9  C   LIG    1       -0.682  -2.641  -1.627  0.00  0.00    +0.320 C 
BRANCH   9  10
ATOM     10  N   LIG    1       -0.587  -4.091  -1.815  0.00  0.00    -0.560 N 
ATOM     11  C   LIG    1       -0.196  -4.647  -2.969  0.00  0.00    +0.540 C 
ATOM     12  C   LIG    1       -0.208  -6.154  -2.824  0.00  0.00    +0.080 C 
ATOM     13  C   LIG    1       -0.678  -6.373  -1.371  0.00  0.00    +0.080 C 
ATOM     14  O   LIG    1        0.117  -4.041  -3.970  0.00  0.00    -0.470 OA
ATOM     15  C   LIG    1       -0.877  -4.968  -0.846  0.00  0.00    +0.530 C 
ATOM     16  O   LIG    1       -1.247  -4.682   0.272  0.00  0.00    -0.480 OA
ENDBRANCH   9  10
ENDBRANCH   1   9
TORSDOF 5
ENDMDL
MODEL      683
REMARK  Name = ZINC000096306693
REMARK                            x       y       z     vdW  Elec       q    Type
REMARK                         _______ _______ _______ _____ _____    ______ ____
ROOT
ATOM      1  C   LIG    1       -0.019   1.526   0.010  0.00  0.00    +0.090 C 
ATOM      2  C   LIG    1        0.002  -0.004   0.002  0.00  0.00    +0.160 C 
ATOM      3  C   LIG    1        0.718  -0.498  -1.263  0.00  0.00    +0.290 C 
ATOM      4  N   LIG    1        0.979  -1.932  -1.105  0.00  0.00    -0.440 N 
ATOM      5  C   LIG    1        0.936  -2.559   0.114  0.00  0.00    +0.510 A 
ATOM      6  N   LIG    1        0.654  -1.862   1.274  0.00  0.00    -0.540 N 
ATOM      7  H   LIG    1        0.429  -2.318   2.100  0.00  0.00    +0.460 HD
ATOM      8  N   LIG    1        1.201  -3.835  -0.041  0.00  0.00    -0.510 NA
ATOM      9  C   LIG    1        1.425  -4.092  -1.320  0.00  0.00    +0.350 A 
ATOM     10  N   LIG    1        1.741  -5.264  -1.992  0.00  0.00    -0.510 N 
ATOM     11  C   LIG    1        1.888  -6.536  -1.280  0.00  0.00    +0.350 C 
ATOM     12  C   LIG    1        1.910  -5.183  -3.332  0.00  0.00    +0.710 A 
ATOM     13  O   LIG    1        2.188  -6.198  -3.942  0.00  0.00    -0.540 OA
ATOM     14  N   LIG    1        1.785  -4.039  -4.020  0.00  0.00    -0.650 N 
ATOM     15  H   LIG    1        1.920  -4.056  -4.981  0.00  0.00    +0.440 HD
ATOM     16  C   LIG    1        1.476  -2.860  -3.427  0.00  0.00    +0.600 A 
ATOM     17  O   LIG    1        1.367  -1.829  -4.067  0.00  0.00    -0.510 OA
ATOM     18  C   LIG    1        1.290  -2.888  -2.030  0.00  0.00    -0.170 A 
ATOM     19  N   LIG    1        0.711  -0.490   1.196  0.00  0.00    -0.420 NA
ATOM     20  H   LIG    1        1.666  -0.166   1.208  0.00  0.00    +0.350 HD
ENDROOT
TORSDOF 0
ENDMDL
MODEL      684
REMARK  Name = ZINC000113221622
REMARK                            x       y       z     vdW  Elec       q    Type
REMARK                         _______ _______ _______ _____ _____    ______ ____
ROOT
ATOM      1  C   LIG    1        2.963   1.392   1.416  0.00  0.00    +0.160 C 
ENDROOT
BRANCH   1   2
ATOM      2  C   LIG    1        2.457   1.553  -0.019  0.00  0.00    +0.340 C 
BRANCH   2   9
ATOM      3  O   LIG    1        0.002  -0.004   0.002  0.00  0.00    -0.440 OA
ATOM      4  C   LIG    1       -0.014   1.210   0.009  0.00  0.00    +0.540 C 
ATOM      5  C   LIG    1       -1.226   2.059   0.031  0.00  0.00    +0.040 C 
ATOM      6  C   LIG    1       -0.806   3.335   0.032  0.00  0.00    +0.030 C 
ATOM      7  C   LIG    1        0.673   3.298   0.010  0.00  0.00    +0.540 C 
ATOM      8  O   LIG    1        1.407   4.265   0.005  0.00  0.00    -0.460 OA
ATOM      9  N   LIG    1        1.066   2.011   0.003  0.00  0.00    -0.590 N 
ENDBRANCH   2   9
ENDBRANCH   1   2
BRANCH   1  10
ATOM     10  O   LIG    1        2.232   0.349   2.065  0.00  0.00    -0.370 OA
BRANCH  10  11
ATOM     11  C   LIG    1        2.628   0.116   3.418  0.00  0.00    +0.180 C 
BRANCH  11  12
ATOM     12  C   LIG    1        1.784  -1.014   4.009  0.00  0.00    +0.190 C 
BRANCH  12  13
ATOM     13  O   LIG    1        2.066  -2.232   3.317  0.00  0.00    -0.370 OA
BRANCH  13  14
ATOM     14  C   LIG    1        1.325  -3.357   3.794  0.00  0.00    +0.170 C 
BRANCH  14  15
ATOM     15  C   LIG    1        1.706  -4.599   2.985  0.00  0.00    +0.200 C 
BRANCH  15  16
ATOM     16  O   LIG    1        3.077  -4.921   3.223  0.00  0.00    -0.570 OA
ATOM     17  H   LIG    1        3.388  -5.699   2.741  0.00  0.00    +0.380 HD
ENDBRANCH  15  16
ENDBRANCH  14  15
ENDBRANCH  13  14
ENDBRANCH  12  13
ENDBRANCH  11  12
ENDBRANCH  10  11
ENDBRANCH   1  10
TORSDOF 9
ENDMDL
MODEL      685
REMARK  Name = ZINC000004222739
REMARK                            x       y       z     vdW  Elec       q    Type
REMARK                         _______ _______ _______ _____ _____    ______ ____
ROOT
ATOM      1  C   LIG    1        0.020  -2.136  -1.177  0.00  0.00    +0.230 C 
ATOM      2  C   LIG    1       -1.414  -2.693  -1.117  0.00  0.00    +0.210 C 
ATOM      3  O   LIG    1       -1.605  -3.514  -2.279  0.00  0.00    -0.330 OA
ATOM      4  C   LIG    1       -0.709  -3.039  -3.300  0.00  0.00    +0.160 C 
ATOM      5  C   LIG    1       -0.258  -4.238  -4.164  0.00  0.00    +0.150 C 
ATOM      6  C   LIG    1        1.023  -4.750  -3.480  0.00  0.00    +0.200 C 
ATOM      7  O   LIG    1        1.226  -3.956  -2.301  0.00  0.00    -0.350 OA
ATOM      8  C   LIG    1        0.589  -2.660  -2.514  0.00  0.00    +0.150 C 
ENDROOT
BRANCH   1  11
ATOM      9  C   LIG    1       -0.018   1.503   0.010  0.00  0.00    +0.110 C 
ATOM     10  C   LIG    1        0.002  -0.004   0.002  0.00  0.00    +0.510 C 
ATOM     11  N   LIG    1        0.000  -0.672  -1.169  0.00  0.00    -0.730 N 
ATOM     12  H   LIG    1       -0.015  -0.182  -2.006  0.00  0.00    +0.400 HD
ATOM     13  O   LIG    1        0.020  -0.616   1.049  0.00  0.00    -0.540 OA
ENDBRANCH   1  11
BRANCH   5  14
ATOM     14  O   LIG    1       -1.263  -5.254  -4.168  0.00  0.00    -0.320 OA
BRANCH  14  15
ATOM     15  C   LIG    1       -1.299  -6.030  -5.368  0.00  0.00    +0.190 C 
BRANCH  15  16
ATOM     16  C   LIG    1       -2.389  -7.065  -5.263  0.00  0.00    +0.520 C 
ATOM     17  O   LIG    1       -3.069  -7.132  -4.261  0.00  0.00    -0.510 OA
ATOM     18  N   LIG    1       -2.610  -7.917  -6.284  0.00  0.00    -0.850 N 
ATOM     19  H   LIG    1       -3.311  -8.584  -6.217  0.00  0.00    +0.410 HD
ATOM     20  H   LIG    1       -2.066  -7.864  -7.086  0.00  0.00    +0.400 HD
ENDBRANCH  15  16
ENDBRANCH  14  15
ENDBRANCH   5  14
TORSDOF 4
ENDMDL
MODEL      686
REMARK  Name = ZINC000031667046
REMARK                            x       y       z     vdW  Elec       q    Type
REMARK                         _______ _______ _______ _____ _____    ______ ____
ROOT
ATOM      1  O   LIG    1        0.002  -0.004   0.002  0.00  0.00    -0.500 OA
ATOM      2  C   LIG    1       -0.014   1.214   0.009  0.00  0.00    +0.550 A 
ATOM      3  C   LIG    1       -1.246   1.911   0.030  0.00  0.00    -0.120 A 
ATOM      4  C   LIG    1       -1.236   3.261   0.038  0.00  0.00    +0.350 A 
ATOM      5  N   LIG    1       -0.043   3.930   0.025  0.00  0.00    -0.640 N 
ATOM      6  H   LIG    1       -0.036   4.901   0.030  0.00  0.00    +0.440 HD
ATOM      7  C   LIG    1        1.121   3.256   0.004  0.00  0.00    +0.690 A 
ATOM      8  O   LIG    1        2.170   3.870  -0.008  0.00  0.00    -0.540 OA
ATOM      9  N   LIG    1        1.140   1.910   0.001  0.00  0.00    -0.560 N 
ENDROOT
BRANCH   9  10
ATOM     10  C   LIG    1        2.421   1.199  -0.021  0.00  0.00    +0.480 C 
BRANCH  10  11
ATOM     11  N   LIG    1        2.872   0.959   1.356  0.00  0.00    -0.540 NA
ATOM     12  C   LIG    1        2.421   2.033   2.253  0.00  0.00    +0.140 C 
ATOM     13  C   LIG    1        2.861   1.714   3.684  0.00  0.00    +0.230 C 
ATOM     14  O   LIG    1        4.280   1.543   3.715  0.00  0.00    -0.380 OA
ATOM     15  C   LIG    1        4.754   0.504   2.854  0.00  0.00    +0.220 C 
ATOM     16  C   LIG    1        4.333   0.811   1.414  0.00  0.00    +0.160 C 
ENDBRANCH  10  11
ENDBRANCH   9  10
TORSDOF 2
ENDMDL
MODEL      687
REMARK  Name = ZINC000002522618
REMARK                            x       y       z     vdW  Elec       q    Type
REMARK                         _______ _______ _______ _____ _____    ______ ____
ROOT
ATOM      1  C   ILE A  1        1.555  -2.507  -2.445  0.00  0.00    +0.510 C 
ATOM      2  N   ASN A  2        0.873  -2.639  -3.600  0.00  0.00    -0.650 N 
ATOM      3  H   ASN A  2       -0.071  -2.421  -3.633  0.00  0.00    +0.400 HD
ATOM      4  O   ILE A  1        2.736  -2.780  -2.403  0.00  0.00    -0.540 OA
ENDROOT
BRANCH   1   5
ATOM      5  CA  ILE A  1        0.849  -2.021  -1.205  0.00  0.00    +0.170 C 
BRANCH   5   6
ATOM      6  N   ILE A  1        1.625  -2.406  -0.018  0.00  0.00    -0.620 N 
ATOM      7  H1  ILE A  1        2.543  -1.991  -0.067  0.00  0.00    +0.440 HD
ATOM      8  H2  ILE A  1        1.711  -3.410   0.016  0.00  0.00    +0.440 HD
ATOM      9  H3  ILE A  1        1.152  -2.080   0.812  0.00  0.00    +0.430 HD
ENDBRANCH   5   6
BRANCH   5  10
ATOM     10  CB  ILE A  1        0.718  -0.497  -1.257  0.00  0.00    +0.000 C 
ATOM     11  CG2 ILE A  1       -0.089  -0.097  -2.493  0.00  0.00    +0.070 C 
BRANCH  10  13
ATOM     12  CD1 ILE A  1       -0.019   1.526   0.010  0.00  0.00    +0.030 C 
ATOM     13  CG1 ILE A  1        0.002  -0.004   0.002  0.00  0.00    +0.000 C 
ENDBRANCH  10  13
ENDBRANCH   5  10
ENDBRANCH   1   5
BRANCH   2  14
ATOM     14  CA  ASN A  2        1.559  -3.111  -4.805  0.00  0.00    +0.190 C 
BRANCH  14  15
ATOM     15  C   ASN A  2        2.220  -1.946  -5.496  0.00  0.00    +0.490 C 
ATOM     16  OXT ASN A  2        2.848  -2.125  -6.526  0.00  0.00    -0.680 OA
ATOM     17  O   ASN A  2        2.127  -0.826  -5.025  0.00  0.00    -0.680 OA
ENDBRANCH  14  15
BRANCH  14  18
ATOM     18  CB  ASN A  2        0.543  -3.755  -5.751  0.00  0.00    +0.080 C 
BRANCH  18  19
ATOM     19  CG  ASN A  2       -0.029  -4.992  -5.107  0.00  0.00    +0.520 C 
ATOM     20  OD1 ASN A  2        0.339  -5.325  -4.001  0.00  0.00    -0.550 OA
ATOM     21  ND2 ASN A  2       -0.951  -5.727  -5.761  0.00  0.00    -0.860 N 
ATOM     22 HD21 ASN A  2       -1.319  -6.523  -5.346  0.00  0.00    +0.400 HD
ATOM     23 HD22 ASN A  2       -1.246  -5.460  -6.645  0.00  0.00    +0.400 HD
ENDBRANCH  18  19
ENDBRANCH  14  18
ENDBRANCH   2  14
TORSDOF 8
ENDMDL
MODEL      688
REMARK  Name = ZINC000005785543
REMARK                            x       y       z     vdW  Elec       q    Type
REMARK                         _______ _______ _______ _____ _____    ______ ____
ROOT
ATOM      1  N   UNK A  3        1.551  -2.512   0.092  0.00  0.00    -0.680 N 
ATOM      2  H   UNK A  3        2.238  -1.944  -0.291  0.00  0.00    +0.400 HD
ATOM      3  C   GLY A  2        1.321  -3.735  -0.427  0.00  0.00    +0.500 C 
ATOM      4  O   GLY A  2        0.461  -4.444   0.051  0.00  0.00    -0.550 OA
ENDROOT
BRANCH   1   5
ATOM      5  C   UNK A  3        0.763  -2.041   1.233  0.00  0.00    +0.160 C 
BRANCH   5   6
ATOM      6  C   UNK A  3        1.382  -2.542   2.512  0.00  0.00    +0.490 C 
ATOM      7  O   UNK A  3        2.586  -2.729   2.575  0.00  0.00    -0.690 OA
ATOM      8  O   UNK A  3        0.680  -2.760   3.485  0.00  0.00    -0.690 OA
ENDBRANCH   5   6
BRANCH   5   9
ATOM      9  C   UNK A  3        0.742  -0.511   1.242  0.00  0.00    +0.040 C 
BRANCH   9  11
ATOM     10  C   UNK A  3       -0.019   1.526   0.010  0.00  0.00    +0.010 C 
ATOM     11  C   UNK A  3        0.002  -0.004   0.002  0.00  0.00    -0.010 C 
ENDBRANCH   9  11
ENDBRANCH   5   9
ENDBRANCH   1   5
BRANCH   3  12
ATOM     12  CA  GLY A  2        2.131  -4.220  -1.602  0.00  0.00    +0.320 C 
BRANCH  12  13
ATOM     13  N   GLY A  2        1.692  -5.566  -1.975  0.00  0.00    -0.680 N 
ATOM     14  H   GLY A  2        0.979  -5.999  -1.480  0.00  0.00    +0.420 HD
ATOM     15  C   GLY A  1        2.280  -6.205  -3.006  0.00  0.00    +0.490 C 
ATOM     16  O   GLY A  1        3.172  -5.665  -3.625  0.00  0.00    -0.540 OA
BRANCH  15  17
ATOM     17  CA  GLY A  1        1.829  -7.591  -3.390  0.00  0.00    +0.320 C 
BRANCH  17  18
ATOM     18  N   GLY A  1        2.619  -8.063  -4.535  0.00  0.00    -0.620 N 
ATOM     19  H1  GLY A  1        2.317  -8.991  -4.792  0.00  0.00    +0.440 HD
ATOM     20  H2  GLY A  1        3.596  -8.085  -4.283  0.00  0.00    +0.440 HD
ATOM     21  H3  GLY A  1        2.487  -7.438  -5.316  0.00  0.00    +0.440 HD
ENDBRANCH  17  18
ENDBRANCH  15  17
ENDBRANCH  12  13
ENDBRANCH   3  12
TORSDOF 8
ENDMDL
MODEL      689
REMARK  Name = ZINC000001848426
REMARK                            x       y       z     vdW  Elec       q    Type
REMARK                         _______ _______ _______ _____ _____    ______ ____
ROOT
ATOM      1  C   LIG    1        0.623  -0.615   1.036  0.00  0.00    +0.480 A 
ATOM      2  N   LIG    1        1.201   0.000   2.044  0.00  0.00    -0.530 NA
ATOM      3  C   LIG    1        1.716  -0.896   2.888  0.00  0.00    +0.350 A 
ATOM      4  C   LIG    1        1.442  -2.158   2.373  0.00  0.00    -0.160 A 
ATOM      5  C   LIG    1        1.879  -3.296   3.075  0.00  0.00    +0.600 A 
ATOM      6  N   LIG    1        2.555  -3.139   4.232  0.00  0.00    -0.550 N 
ATOM      7  C   LIG    1        2.815  -1.914   4.721  0.00  0.00    +0.710 A 
ATOM      8  O   LIG    1        3.427  -1.810   5.766  0.00  0.00    -0.530 OA
ATOM      9  C   LIG    1        3.012  -4.321   4.967  0.00  0.00    +0.360 C 
ATOM     10  O   LIG    1        1.650  -4.412   2.642  0.00  0.00    -0.510 OA
ATOM     11  N   LIG    1        2.414  -0.799   4.081  0.00  0.00    -0.610 N 
ATOM     12  H   LIG    1        2.615   0.073   4.455  0.00  0.00    +0.440 HD
ATOM     13  N   LIG    1        0.739  -1.953   1.195  0.00  0.00    -0.410 N 
ATOM     14  C   LIG    1        0.229  -2.987   0.291  0.00  0.00    +0.360 C 
ENDROOT
BRANCH   1  16
ATOM     15  C   LIG    1       -0.017   1.425   0.010  0.00  0.00    +0.300 C 
ATOM     16  O   LIG    1        0.002  -0.004   0.002  0.00  0.00    -0.290 OA
ENDBRANCH   1  16
TORSDOF 1
ENDMDL
MODEL      690
REMARK  Name = ZINC000001648243
REMARK                            x       y       z     vdW  Elec       q    Type
REMARK                         _______ _______ _______ _____ _____    ______ ____
ROOT
ATOM      1  C   LIG    1        0.623  -0.615   1.036  0.00  0.00    +0.480 A 
ATOM      2  N   LIG    1        1.201   0.000   2.044  0.00  0.00    -0.530 NA
ATOM      3  C   LIG    1        1.716  -0.896   2.888  0.00  0.00    +0.350 A 
ATOM      4  C   LIG    1        1.442  -2.158   2.373  0.00  0.00    -0.160 A 
ATOM      5  C   LIG    1        1.879  -3.296   3.075  0.00  0.00    +0.600 A 
ATOM      6  N   LIG    1        2.555  -3.139   4.232  0.00  0.00    -0.550 N 
ATOM      7  C   LIG    1        2.815  -1.914   4.721  0.00  0.00    +0.710 A 
ATOM      8  O   LIG    1        3.427  -1.810   5.766  0.00  0.00    -0.530 OA
ATOM      9  C   LIG    1        3.012  -4.321   4.967  0.00  0.00    +0.360 C 
ATOM     10  O   LIG    1        1.650  -4.412   2.642  0.00  0.00    -0.510 OA
ATOM     11  N   LIG    1        2.414  -0.799   4.081  0.00  0.00    -0.510 N 
ATOM     12  C   LIG    1        2.717   0.518   4.646  0.00  0.00    +0.350 C 
ATOM     13  N   LIG    1        0.739  -1.953   1.195  0.00  0.00    -0.410 N 
ATOM     14  C   LIG    1        0.229  -2.987   0.291  0.00  0.00    +0.360 C 
ENDROOT
BRANCH   1  16
ATOM     15  C   LIG    1       -0.017   1.425   0.010  0.00  0.00    +0.300 C 
ATOM     16  O   LIG    1        0.002  -0.004   0.002  0.00  0.00    -0.290 OA
ENDBRANCH   1  16
TORSDOF 1
ENDMDL
MODEL      691
REMARK  Name = ZINC000031624088
REMARK                            x       y       z     vdW  Elec       q    Type
REMARK                         _______ _______ _______ _____ _____    ______ ____
ROOT
ATOM      1  O   LIG    1        0.002  -0.004   0.002  0.00  0.00    -0.570 OA
ATOM      2  C   LIG    1       -0.014   1.211   0.009  0.00  0.00    +0.650 C 
ATOM      3  N   LIG    1       -1.191   1.869   0.018  0.00  0.00    -0.600 N 
ATOM      4  C   LIG    1       -1.233   3.339   0.020  0.00  0.00    +0.300 C 
ATOM      5  C   LIG    1       -2.166   3.801  -1.105  0.00  0.00    +0.170 C 
ATOM      6  N   LIG    1       -3.470   3.141  -0.957  0.00  0.00    -0.530 NA
ATOM      7  C   LIG    1       -3.350   1.684  -1.099  0.00  0.00    +0.170 C 
ATOM      8  C   LIG    1       -2.466   1.136   0.020  0.00  0.00    +0.310 C 
ENDROOT
BRANCH   6   9
ATOM      9  C   LIG    1       -4.446   3.684  -1.911  0.00  0.00    +0.190 C 
BRANCH   9  10
ATOM     10  C   LIG    1       -5.842   3.161  -1.567  0.00  0.00    +0.180 C 
BRANCH  10  11
ATOM     11  O   LIG    1       -6.239   3.667  -0.291  0.00  0.00    -0.560 OA
ATOM     12  H   LIG    1       -7.116   3.375  -0.008  0.00  0.00    +0.380 HD
ENDBRANCH  10  11
ENDBRANCH   9  10
ENDBRANCH   6   9
BRANCH   2  13
ATOM     13  O   LIG    1        1.142   1.900   0.001  0.00  0.00    -0.360 OA
BRANCH  13  14
ATOM     14  C   LIG    1        2.371   1.126  -0.015  0.00  0.00    +0.260 C 
BRANCH  14  15
ATOM     15  C   LIG    1        3.571   2.074  -0.021  0.00  0.00    +0.210 C 
BRANCH  15  16
ATOM     16  O   LIG    1        3.604   2.810   1.204  0.00  0.00    -0.570 OA
ATOM     17  H   LIG    1        4.341   3.432   1.269  0.00  0.00    +0.380 HD
ENDBRANCH  15  16
ENDBRANCH  14  15
ENDBRANCH  13  14
ENDBRANCH   2  13
TORSDOF 7
ENDMDL
MODEL      692
REMARK  Name = ZINC000247870025
REMARK                            x       y       z     vdW  Elec       q    Type
REMARK                         _______ _______ _______ _____ _____    ______ ____
ROOT
ATOM      1  C   LIG    1       -1.433  -0.534   0.013  0.00  0.00    -0.040 C 
ATOM      2  C   LIG    1       -2.108  -0.138   1.323  0.00  0.00    +0.220 C 
ATOM      3  O   LIG    1       -3.301  -0.903   1.503  0.00  0.00    -0.350 OA
ATOM      4  C   LIG    1       -4.405  -0.454   0.716  0.00  0.00    +0.190 C 
ATOM      5  C   LIG    1       -4.235  -0.919  -0.727  0.00  0.00    +0.100 C 
ATOM      6  C   LIG    1       -3.798  -2.381  -0.763  0.00  0.00    +0.160 C 
ATOM      7  C   LIG    1       -2.354  -2.477  -1.262  0.00  0.00    +0.160 C 
ATOM      8  C   LIG    1       -1.413  -2.053  -0.129  0.00  0.00    +0.230 C 
ENDROOT
BRANCH   7   9
ATOM      9  O   LIG    1       -2.070  -3.824  -1.646  0.00  0.00    -0.560 OA
ATOM     10  H   LIG    1       -2.638  -4.160  -2.352  0.00  0.00    +0.380 HD
ENDBRANCH   7   9
BRANCH   6  11
ATOM     11  O   LIG    1       -3.883  -2.935   0.552  0.00  0.00    -0.530 OA
ATOM     12  H   LIG    1       -4.772  -2.911   0.932  0.00  0.00    +0.380 HD
ENDBRANCH   6  11
BRANCH   5  13
ATOM     13  O   LIG    1       -5.478  -0.783  -1.418  0.00  0.00    -0.560 OA
ATOM     14  H   LIG    1       -5.815   0.123  -1.447  0.00  0.00    +0.380 HD
ENDBRANCH   5  13
BRANCH   8  15
ATOM     15  O   LIG    1       -0.083  -2.482  -0.431  0.00  0.00    -0.560 OA
ATOM     16  H   LIG    1        0.007  -3.439  -0.534  0.00  0.00    +0.390 HD
ENDBRANCH   8  15
BRANCH   1  17
ATOM     17  C   LIG    1        0.002  -0.004   0.002  0.00  0.00    +0.200 C 
BRANCH  17  18
ATOM     18  O   LIG    1       -0.017   1.425   0.010  0.00  0.00    -0.580 OA
ATOM     19  H   LIG    1        0.861   1.830   0.004  0.00  0.00    +0.380 HD
ENDBRANCH  17  18
ENDBRANCH   1  17
TORSDOF 6
ENDMDL
MODEL      693
REMARK  Name = ZINC000247870029
REMARK                            x       y       z     vdW  Elec       q    Type
REMARK                         _______ _______ _______ _____ _____    ______ ____
ROOT
ATOM      1  C   LIG    1       -1.433  -0.534   0.013  0.00  0.00    -0.020 C 
ATOM      2  C   LIG    1       -2.110  -0.148   1.328  0.00  0.00    +0.230 C 
ATOM      3  O   LIG    1       -3.524  -0.355   1.209  0.00  0.00    -0.370 OA
ATOM      4  C   LIG    1       -3.911  -1.728   1.267  0.00  0.00    +0.170 C 
ATOM      5  C   LIG    1       -4.488  -2.167  -0.083  0.00  0.00    +0.120 C 
ATOM      6  C   LIG    1       -3.608  -1.637  -1.217  0.00  0.00    +0.170 C 
ATOM      7  C   LIG    1       -2.319  -2.465  -1.285  0.00  0.00    +0.170 C 
ATOM      8  C   LIG    1       -1.417  -2.060  -0.119  0.00  0.00    +0.190 C 
ENDROOT
BRANCH   7   9
ATOM      9  O   LIG    1       -1.650  -2.211  -2.522  0.00  0.00    -0.550 OA
ATOM     10  H   LIG    1       -2.173  -2.434  -3.304  0.00  0.00    +0.390 HD
ENDBRANCH   7   9
BRANCH   6  11
ATOM     11  O   LIG    1       -4.311  -1.745  -2.457  0.00  0.00    -0.560 OA
ATOM     12  H   LIG    1       -5.141  -1.248  -2.483  0.00  0.00    +0.380 HD
ENDBRANCH   6  11
BRANCH   5  13
ATOM     13  O   LIG    1       -4.529  -3.594  -0.141  0.00  0.00    -0.550 OA
ATOM     14  H   LIG    1       -5.072  -4.001   0.547  0.00  0.00    +0.380 HD
ENDBRANCH   5  13
BRANCH   8  15
ATOM     15  O   LIG    1       -0.083  -2.508  -0.368  0.00  0.00    -0.550 OA
ATOM     16  H   LIG    1       -0.002  -3.467  -0.470  0.00  0.00    +0.380 HD
ENDBRANCH   8  15
BRANCH   1  17
ATOM     17  C   LIG    1        0.002  -0.004   0.002  0.00  0.00    +0.220 C 
BRANCH  17  18
ATOM     18  O   LIG    1       -0.017   1.425   0.010  0.00  0.00    -0.580 OA
ATOM     19  H   LIG    1        0.861   1.830   0.004  0.00  0.00    +0.380 HD
ENDBRANCH  17  18
ENDBRANCH   1  17
TORSDOF 6
ENDMDL
MODEL      694
REMARK  Name = ZINC000017174505
REMARK                            x       y       z     vdW  Elec       q    Type
REMARK                         _______ _______ _______ _____ _____    ______ ____
ROOT
ATOM      1  C   LIG    1        0.001  -4.173  -0.023  0.00  0.00    +0.420 C 
ATOM      2  O   LIG    1       -0.935  -4.653  -1.012  0.00  0.00    -0.330 OA
ATOM      3  C   LIG    1       -2.238  -4.503  -0.408  0.00  0.00    +0.170 C 
ATOM      4  C   LIG    1       -2.043  -4.931   1.063  0.00  0.00    +0.160 C 
ATOM      5  C   LIG    1       -0.534  -4.709   1.324  0.00  0.00    +0.160 C 
ATOM      6  F   LIG    1       -0.345  -3.768   2.341  0.00  0.00    -0.180 F 
ENDROOT
BRANCH   1  10
ATOM      7  C   LIG    1        0.127  -0.006   0.049  0.00  0.00    +0.500 A 
ATOM      8  N   LIG    1        0.973  -0.728   0.773  0.00  0.00    -0.610 NA
ATOM      9  C   LIG    1        0.928  -2.058   0.746  0.00  0.00    +0.670 A 
ATOM     10  N   LIG    1        0.026  -2.708  -0.014  0.00  0.00    -0.550 N 
ATOM     11  C   LIG    1       -0.863  -2.010  -0.774  0.00  0.00    +0.360 A 
ATOM     12  O   LIG    1        1.716  -2.699   1.421  0.00  0.00    -0.530 OA
ATOM     13  C   LIG    1       -0.834  -0.656  -0.753  0.00  0.00    -0.140 A 
BRANCH   7  14
ATOM     14  N   LIG    1        0.182   1.367   0.086  0.00  0.00    -0.810 N 
ATOM     15  H   LIG    1        0.841   1.812   0.641  0.00  0.00    +0.410 HD
ATOM     16  H   LIG    1       -0.441   1.892  -0.442  0.00  0.00    +0.420 HD
ENDBRANCH   7  14
ENDBRANCH   1  10
BRANCH   4  17
ATOM     17  O   LIG    1       -2.386  -6.308   1.233  0.00  0.00    -0.540 OA
ATOM     18  H   LIG    1       -2.282  -6.631   2.139  0.00  0.00    +0.390 HD
ENDBRANCH   4  17
BRANCH   3  19
ATOM     19  C   LIG    1       -3.254  -5.413  -1.101  0.00  0.00    +0.230 C 
BRANCH  19  20
ATOM     20  O   LIG    1       -3.451  -4.971  -2.446  0.00  0.00    -0.570 OA
ATOM     21  H   LIG    1       -4.084  -5.503  -2.946  0.00  0.00    +0.390 HD
ENDBRANCH  19  20
ENDBRANCH   3  19
TORSDOF 5
ENDMDL
MODEL      695
REMARK  Name = ZINC000004544867
REMARK                            x       y       z     vdW  Elec       q    Type
REMARK                         _______ _______ _______ _____ _____    ______ ____
ROOT
ATOM      1  CA  GLY A  2        0.712  -1.094  -3.598  0.00  0.00    +0.310 C 
ENDROOT
BRANCH   1   4
ATOM      2  N   ALA A  3        0.688  -0.476  -1.203  0.00  0.00    -0.680 N 
ATOM      3  H   ALA A  3        1.632  -0.695  -1.170  0.00  0.00    +0.410 HD
ATOM      4  C   GLY A  2        0.006  -0.608  -2.358  0.00  0.00    +0.500 C 
ATOM      5  O   GLY A  2       -1.175  -0.336  -2.400  0.00  0.00    -0.560 OA
BRANCH   2   7
ATOM      6  CB  ALA A  3       -0.019   1.526   0.010  0.00  0.00    +0.030 C 
ATOM      7  CA  ALA A  3        0.002  -0.004   0.002  0.00  0.00    +0.160 C 
BRANCH   7   8
ATOM      8  C   ALA A  3        0.731  -0.503   1.223  0.00  0.00    +0.490 C 
ATOM      9  OXT ALA A  3        1.824  -1.032   1.107  0.00  0.00    -0.690 OA
ATOM     10  O   ALA A  3        0.228  -0.379   2.326  0.00  0.00    -0.680 OA
ENDBRANCH   7   8
ENDBRANCH   2   7
ENDBRANCH   1   4
BRANCH   1  11
ATOM     11  N   GLY A  2       -0.240  -1.150  -4.711  0.00  0.00    -0.680 N 
ATOM     12  H   GLY A  2       -1.165  -0.893  -4.572  0.00  0.00    +0.420 HD
ATOM     13  C   GLY A  1        0.170  -1.560  -5.928  0.00  0.00    +0.490 C 
ATOM     14  O   GLY A  1        1.327  -1.881  -6.102  0.00  0.00    -0.540 OA
BRANCH  13  15
ATOM     15  CA  GLY A  1       -0.808  -1.617  -7.073  0.00  0.00    +0.310 C 
BRANCH  15  16
ATOM     16  N   GLY A  1       -0.121  -2.091  -8.281  0.00  0.00    -0.620 N 
ATOM     17  H1  GLY A  1        0.256  -3.012  -8.115  0.00  0.00    +0.440 HD
ATOM     18  H2  GLY A  1        0.629  -1.457  -8.512  0.00  0.00    +0.440 HD
ATOM     19  H3  GLY A  1       -0.776  -2.130  -9.048  0.00  0.00    +0.440 HD
ENDBRANCH  15  16
ENDBRANCH  13  15
ENDBRANCH   1  11
TORSDOF 6
ENDMDL
MODEL      696
REMARK  Name = ZINC000514288583
REMARK                            x       y       z     vdW  Elec       q    Type
REMARK                         _______ _______ _______ _____ _____    ______ ____
ROOT
ATOM      1  C   LIG    1       -1.136  -2.159   0.001  0.00  0.00    +0.190 C 
ATOM      2  C   LIG    1       -1.072  -2.707   1.444  0.00  0.00    +0.200 C 
ATOM      3  O   LIG    1       -2.447  -2.963   1.803  0.00  0.00    -0.340 OA
ATOM      4  C   LIG    1       -3.049  -3.534   0.620  0.00  0.00    +0.170 C 
ATOM      5  C   LIG    1       -2.465  -2.715  -0.557  0.00  0.00    +0.150 C 
ENDROOT
BRANCH   1   8
ATOM      6  C   LIG    1       -0.018   1.503   0.010  0.00  0.00    +0.100 C 
ATOM      7  C   LIG    1        0.002  -0.004   0.002  0.00  0.00    +0.510 C 
ATOM      8  N   LIG    1       -1.156  -0.694   0.009  0.00  0.00    -0.720 N 
ATOM      9  H   LIG    1       -2.002  -0.220   0.020  0.00  0.00    +0.400 HD
ATOM     10  O   LIG    1        1.060  -0.596  -0.011  0.00  0.00    -0.540 OA
ENDBRANCH   1   8
BRANCH   5  11
ATOM     11  O   LIG    1       -2.227  -3.559  -1.685  0.00  0.00    -0.550 OA
ATOM     12  H   LIG    1       -1.861  -3.098  -2.451  0.00  0.00    +0.390 HD
ENDBRANCH   5  11
BRANCH   4  13
ATOM     13  C   LIG    1       -4.571  -3.386   0.672  0.00  0.00    +0.200 C 
BRANCH  13  14
ATOM     14  N   LIG    1       -5.094  -4.111   1.838  0.00  0.00    -0.530 NA
ATOM     15  C   LIG    1       -4.500  -5.452   1.933  0.00  0.00    +0.140 C 
ATOM     16  C   LIG    1       -5.026  -6.149   3.191  0.00  0.00    +0.220 C 
ATOM     17  O   LIG    1       -6.455  -6.191   3.144  0.00  0.00    -0.390 OA
ATOM     18  C   LIG    1       -7.066  -4.902   3.052  0.00  0.00    +0.220 C 
ATOM     19  C   LIG    1       -6.561  -4.193   1.793  0.00  0.00    +0.150 C 
ENDBRANCH  13  14
ENDBRANCH   4  13
TORSDOF 4
ENDMDL
MODEL      697
REMARK  Name = ZINC000000299457
REMARK                            x       y       z     vdW  Elec       q    Type
REMARK                         _______ _______ _______ _____ _____    ______ ____
ROOT
ATOM      1  C   LIG    1       -0.018   1.461   0.010  0.00  0.00    +0.360 C 
ATOM      2  N   LIG    1        0.002  -0.004   0.002  0.00  0.00    -0.410 N 
ATOM      3  C   LIG    1        0.009  -0.800  -1.085  0.00  0.00    +0.500 A 
ATOM      4  N   LIG    1        0.028  -2.054  -0.714  0.00  0.00    -0.480 NA
ATOM      5  C   LIG    1        0.034  -2.132   0.619  0.00  0.00    +0.330 A 
ATOM      6  N   LIG    1        0.053  -3.184   1.520  0.00  0.00    -0.500 N 
ATOM      7  C   LIG    1        0.052  -2.939   2.844  0.00  0.00    +0.710 A 
ATOM      8  O   LIG    1        0.064  -3.876   3.620  0.00  0.00    -0.540 OA
ATOM      9  N   LIG    1        0.042  -1.686   3.330  0.00  0.00    -0.650 N 
ATOM     10  H   LIG    1        0.045  -1.546   4.290  0.00  0.00    +0.440 HD
ATOM     11  C   LIG    1        0.028  -0.620   2.503  0.00  0.00    +0.600 A 
ATOM     12  O   LIG    1        0.019   0.510   2.955  0.00  0.00    -0.520 OA
ATOM     13  C   LIG    1        0.024  -0.831   1.107  0.00  0.00    -0.160 A 
ENDROOT
BRANCH   6  14
ATOM     14  C   LIG    1        0.063  -4.565   1.032  0.00  0.00    +0.340 C 
BRANCH  14  15
ATOM     15  C   LIG    1       -1.375  -5.058   0.863  0.00  0.00    +0.180 C 
BRANCH  15  16
ATOM     16  O   LIG    1       -2.021  -4.299  -0.162  0.00  0.00    -0.560 OA
ATOM     17  H   LIG    1       -2.939  -4.558  -0.323  0.00  0.00    +0.380 HD
ENDBRANCH  15  16
ENDBRANCH  14  15
ENDBRANCH   6  14
TORSDOF 3
ENDMDL
MODEL      698
REMARK  Name = ZINC000001578382
REMARK                            x       y       z     vdW  Elec       q    Type
REMARK                         _______ _______ _______ _____ _____    ______ ____
ROOT
ATOM      1  C   LIG    1        0.002  -0.004   0.002  0.00  0.00    +0.540 A 
ATOM      2  C   LIG    1       -1.196  -0.739   0.004  0.00  0.00    -0.110 A 
ATOM      3  N   LIG    1       -2.512  -0.415   0.012  0.00  0.00    -0.460 NA
ATOM      4  C   LIG    1       -3.225  -1.503   0.009  0.00  0.00    +0.500 A 
ATOM      5  N   LIG    1       -2.409  -2.595  -0.001  0.00  0.00    -0.460 N 
ATOM      6  C   LIG    1       -1.115  -2.141  -0.004  0.00  0.00    +0.330 A 
ATOM      7  N   LIG    1        0.082  -2.720  -0.013  0.00  0.00    -0.580 NA
ATOM      8  C   LIG    1        1.181  -1.990  -0.013  0.00  0.00    +0.570 A 
ATOM      9  F   LIG    1        2.378  -2.616  -0.022  0.00  0.00    -0.070 F 
ATOM     10  N   LIG    1        1.153  -0.668  -0.013  0.00  0.00    -0.610 NA
ENDROOT
BRANCH   1  11
ATOM     11  N   LIG    1       -0.017   1.379   0.010  0.00  0.00    -0.810 N 
ATOM     12  H   LIG    1       -0.863   1.853   0.016  0.00  0.00    +0.420 HD
ATOM     13  H   LIG    1        0.817   1.876   0.004  0.00  0.00    +0.410 HD
ENDBRANCH   1  11
BRANCH   5  14
ATOM     14  C   LIG    1       -2.837  -3.997  -0.006  0.00  0.00    +0.300 C 
BRANCH  14  15
ATOM     15  C   LIG    1       -2.858  -4.529   1.428  0.00  0.00    +0.200 C 
BRANCH  15  16
ATOM     16  O   LIG    1       -3.854  -3.833   2.180  0.00  0.00    -0.540 OA
ATOM     17  H   LIG    1       -4.750  -3.926   1.827  0.00  0.00    +0.370 HD
ENDBRANCH  15  16
BRANCH  15  18
ATOM     18  C   LIG    1       -3.183  -6.024   1.412  0.00  0.00    +0.160 C 
BRANCH  18  19
ATOM     19  O   LIG    1       -3.088  -6.546   2.739  0.00  0.00    -0.560 OA
ATOM     20  H   LIG    1       -3.282  -7.491   2.805  0.00  0.00    +0.380 HD
ENDBRANCH  18  19
ENDBRANCH  15  18
ENDBRANCH  14  15
ENDBRANCH   5  14
TORSDOF 6
ENDMDL
MODEL      699
REMARK  Name = ZINC000001584124
REMARK                            x       y       z     vdW  Elec       q    Type
REMARK                         _______ _______ _______ _____ _____    ______ ____
ROOT
ATOM      1  C   LIG    1        0.746  -1.888  -1.280  0.00  0.00    +0.420 C 
ATOM      2  N   LIG    1        1.651  -2.396  -0.257  0.00  0.00    -0.720 N 
ATOM      3  H   LIG    1        1.323  -2.479   0.652  0.00  0.00    +0.410 HD
ATOM      4  C   LIG    1        2.913  -2.751  -0.518  0.00  0.00    +0.540 C 
ATOM      5  C   LIG    1        3.513  -2.663  -1.889  0.00  0.00    +0.410 C 
ATOM      6  N   LIG    1        2.481  -2.605  -2.915  0.00  0.00    -0.720 N 
ATOM      7  H   LIG    1        2.721  -2.831  -3.827  0.00  0.00    +0.410 HD
ATOM      8  O   LIG    1        3.600  -3.163   0.392  0.00  0.00    -0.500 OA
ATOM      9  C   LIG    1        1.219  -2.254  -2.654  0.00  0.00    +0.540 C 
ATOM     10  O   LIG    1        0.421  -2.230  -3.568  0.00  0.00    -0.500 OA
ENDROOT
BRANCH   1  11
ATOM     11  O   LIG    1        0.671  -0.465  -1.174  0.00  0.00    -0.370 OA
BRANCH  11  13
ATOM     12  C   LIG    1       -0.019   1.526   0.010  0.00  0.00    +0.070 C 
ATOM     13  C   LIG    1        0.002  -0.004   0.002  0.00  0.00    +0.170 C 
ENDBRANCH  11  13
ENDBRANCH   1  11
BRANCH   5  14
ATOM     14  O   LIG    1        4.319  -1.486  -1.971  0.00  0.00    -0.370 OA
BRANCH  14  15
ATOM     15  C   LIG    1        5.120  -1.412  -3.152  0.00  0.00    +0.170 C 
ATOM     16  C   LIG    1        5.937  -0.119  -3.134  0.00  0.00    +0.070 C 
ENDBRANCH  14  15
ENDBRANCH   5  14
TORSDOF 4
ENDMDL
MODEL      700
REMARK  Name = ZINC000001580040
REMARK                            x       y       z     vdW  Elec       q    Type
REMARK                         _______ _______ _______ _____ _____    ______ ____
ROOT
ATOM      1  C   THR A  1       -1.413  -2.041   0.005  0.00  0.00    +0.500 C 
ATOM      2  N   GLY A  2       -1.190  -2.718   1.148  0.00  0.00    -0.670 N 
ATOM      3  H   GLY A  2       -1.043  -2.235   1.977  0.00  0.00    +0.420 HD
ATOM      4  O   THR A  1       -1.597  -2.644  -1.031  0.00  0.00    -0.530 OA
ENDROOT
BRANCH   1   5
ATOM      5  CA  THR A  1       -1.433  -0.534   0.013  0.00  0.00    +0.140 C 
BRANCH   5   6
ATOM      6  N   THR A  1       -2.144  -0.047  -1.177  0.00  0.00    -0.610 N 
ATOM      7  H1  THR A  1       -2.158   0.962  -1.172  0.00  0.00    +0.440 HD
ATOM      8  H2  THR A  1       -3.090  -0.396  -1.170  0.00  0.00    +0.440 HD
ATOM      9  H3  THR A  1       -1.671  -0.372  -2.007  0.00  0.00    +0.440 HD
ENDBRANCH   5   6
BRANCH   5  11
ATOM     10  CG2 THR A  1       -0.019   1.526   0.010  0.00  0.00    +0.040 C 
ATOM     11  CB  THR A  1        0.002  -0.004   0.002  0.00  0.00    +0.230 C 
BRANCH  11  12
ATOM     12  OG1 THR A  1        0.693  -0.477   1.160  0.00  0.00    -0.520 OA
ATOM     13  HG1 THR A  1        0.294  -0.202   1.996  0.00  0.00    +0.390 HD
ENDBRANCH  11  12
ENDBRANCH   5  11
ENDBRANCH   1   5
BRANCH   2  14
ATOM     14  CA  GLY A  2       -1.170  -4.183   1.140  0.00  0.00    +0.310 C 
BRANCH  14  15
ATOM     15  C   GLY A  2       -0.903  -4.689   2.534  0.00  0.00    +0.490 C 
ATOM     16  N   GLY A  3       -0.840  -6.015   2.769  0.00  0.00    -0.680 N 
ATOM     17  H   GLY A  3       -0.967  -6.643   2.041  0.00  0.00    +0.410 HD
ATOM     18  O   GLY A  2       -0.745  -3.904   3.445  0.00  0.00    -0.560 OA
BRANCH  16  19
ATOM     19  CA  GLY A  3       -0.581  -6.507   4.124  0.00  0.00    +0.190 C 
BRANCH  19  20
ATOM     20  C   GLY A  3       -0.560  -8.014   4.116  0.00  0.00    +0.490 C 
ATOM     21  OXT GLY A  3       -0.359  -8.626   5.151  0.00  0.00    -0.680 OA
ATOM     22  O   GLY A  3       -0.746  -8.620   3.075  0.00  0.00    -0.690 OA
ENDBRANCH  19  20
ENDBRANCH  16  19
ENDBRANCH  14  15
ENDBRANCH   2  14
TORSDOF 8
ENDMDL
MODEL      701
REMARK  Name = ZINC000038538424
REMARK                            x       y       z     vdW  Elec       q    Type
REMARK                         _______ _______ _______ _____ _____    ______ ____
ROOT
ATOM      1  C   LIG    1        2.439  -0.437  -1.202  0.00  0.00    -0.710 A 
ATOM      2  C   LIG    1        3.326  -1.408  -0.847  0.00  0.00    +0.290 A 
ATOM      3  C   LIG    1        4.751  -1.082  -0.810  0.00  0.00    -0.200 A 
ATOM      4  C   LIG    1        5.893  -1.782  -0.508  0.00  0.00    +0.140 C 
ATOM      5  C   LIG    1        7.025  -0.809  -0.681  0.00  0.00    +0.500 C 
ATOM      6  N   LIG    1        6.517   0.362  -1.059  0.00  0.00    -0.580 NA
ATOM      7  O   LIG    1        8.203  -1.049  -0.506  0.00  0.00    -0.370 OA
ATOM      8  C   LIG    1        5.177   0.291  -1.161  0.00  0.00    +0.310 A 
ATOM      9  C   LIG    1        4.197   1.215  -1.511  0.00  0.00    +0.000 A 
ATOM     10  C   LIG    1        2.865   0.847  -1.533  0.00  0.00    +0.190 A 
ENDROOT
BRANCH   1  11
ATOM     11  S   LIG    1        0.718  -0.816  -1.251  0.00  0.00    +2.700 S 
ATOM     12  O   LIG    1        0.214  -0.235  -2.446  0.00  0.00    -0.940 OA
ATOM     13  O   LIG    1        0.603  -2.200  -0.951  0.00  0.00    -0.950 OA
BRANCH  11  15
ATOM     14  C   LIG    1       -0.018   1.461   0.010  0.00  0.00    +0.300 C 
ATOM     15  N   LIG    1        0.002  -0.004   0.002  0.00  0.00    -1.120 NA
ATOM     16  H   LIG    1       -0.404  -0.499   0.731  0.00  0.00    +0.420 HD
ENDBRANCH  11  15
ENDBRANCH   1  11
TORSDOF 2
ENDMDL
MODEL      702
REMARK  Name = ZINC000012358819
REMARK                            x       y       z     vdW  Elec       q    Type
REMARK                         _______ _______ _______ _____ _____    ______ ____
ROOT
ATOM      1  C   LIG    1       -0.019   1.526   0.010  0.00  0.00    +0.060 C 
ATOM      2  C   LIG    1        0.002  -0.004   0.002  0.00  0.00    +0.150 C 
ATOM      3  O   LIG    1        0.664  -0.463  -1.179  0.00  0.00    -0.390 OA
ATOM      4  C   LIG    1        0.600  -1.884  -1.317  0.00  0.00    +0.320 C 
ATOM      5  C   LIG    1        1.389  -2.544  -0.188  0.00  0.00    +0.100 C 
ATOM      6  C   LIG    1        0.976  -2.018   1.180  0.00  0.00    +0.160 C 
ATOM      7  C   LIG    1        2.069  -2.386   2.200  0.00  0.00    +0.030 C 
ATOM      8  C   LIG    1        2.889  -2.350  -0.421  0.00  0.00    +0.030 C 
ATOM      9  C   LIG    1        0.744  -0.514   1.235  0.00  0.00    +0.130 C 
ATOM     10  C   LIG    1        2.067   0.240   1.393  0.00  0.00    +0.040 C 
ENDROOT
BRANCH   6  11
ATOM     11  O   LIG    1       -0.236  -2.683   1.581  0.00  0.00    -0.540 OA
ATOM     12  H   LIG    1       -0.153  -3.644   1.648  0.00  0.00    +0.380 HD
ENDBRANCH   6  11
BRANCH   5  13
ATOM     13  O   LIG    1        1.119  -3.959  -0.226  0.00  0.00    -0.560 OA
ATOM     14  H   LIG    1        1.371  -4.386  -1.056  0.00  0.00    +0.390 HD
ENDBRANCH   5  13
BRANCH   4  15
ATOM     15  O   LIG    1        1.158  -2.264  -2.577  0.00  0.00    -0.540 OA
ATOM     16  H   LIG    1        0.702  -1.881  -3.340  0.00  0.00    +0.390 HD
ENDBRANCH   4  15
BRANCH   9  17
ATOM     17  O   LIG    1       -0.066  -0.225   2.392  0.00  0.00    -0.540 OA
ATOM     18  H   LIG    1       -0.265   0.714   2.508  0.00  0.00    +0.370 HD
ENDBRANCH   9  17
TORSDOF 4
ENDMDL
MODEL      703
REMARK  Name = ZINC000008076550
REMARK                            x       y       z     vdW  Elec       q    Type
REMARK                         _______ _______ _______ _____ _____    ______ ____
ROOT
ATOM      1  C   THR A  1       -1.414  -2.036   0.129  0.00  0.00    +0.520 C 
ATOM      2  N   PRO A  2       -1.178  -2.793  -0.962  0.00  0.00    -0.560 N 
ATOM      3  CD  PRO A  2       -0.920  -2.284  -2.321  0.00  0.00    +0.240 C 
ATOM      4  CG  PRO A  2       -1.328  -3.444  -3.263  0.00  0.00    +0.040 C 
ATOM      5  CB  PRO A  2       -0.863  -4.683  -2.452  0.00  0.00    +0.050 C 
ATOM      6  CA  PRO A  2       -1.131  -4.262  -0.991  0.00  0.00    +0.140 C 
ATOM      7  O   THR A  1       -1.609  -2.564   1.202  0.00  0.00    -0.510 OA
ENDROOT
BRANCH   6   8
ATOM      8  C   PRO A  2       -0.025  -4.767  -0.101  0.00  0.00    +0.500 C 
ATOM      9  OXT PRO A  2       -0.127  -5.855   0.440  0.00  0.00    -0.680 OA
ATOM     10  O   PRO A  2        0.971  -4.088   0.079  0.00  0.00    -0.680 OA
ENDBRANCH   6   8
BRANCH   1  11
ATOM     11  CA  THR A  1       -1.433  -0.534   0.013  0.00  0.00    +0.190 C 
BRANCH  11  12
ATOM     12  N   THR A  1       -2.157   0.036   1.157  0.00  0.00    -0.620 N 
ATOM     13  H1  THR A  1       -2.170   1.042   1.080  0.00  0.00    +0.430 HD
ATOM     14  H2  THR A  1       -1.694  -0.229   2.014  0.00  0.00    +0.450 HD
ATOM     15  H3  THR A  1       -3.103  -0.313   1.165  0.00  0.00    +0.440 HD
ENDBRANCH  11  12
BRANCH  11  17
ATOM     16  CG2 THR A  1       -0.019   1.526   0.010  0.00  0.00    +0.030 C 
ATOM     17  CB  THR A  1        0.002  -0.004   0.002  0.00  0.00    +0.200 C 
BRANCH  17  18
ATOM     18  OG1 THR A  1        0.693  -0.477   1.160  0.00  0.00    -0.550 OA
ATOM     19  HG1 THR A  1        1.611  -0.180   1.219  0.00  0.00    +0.400 HD
ENDBRANCH  17  18
ENDBRANCH  11  17
ENDBRANCH   1  11
TORSDOF 5
ENDMDL
MODEL      704
REMARK  Name = ZINC000005725726
REMARK                            x       y       z     vdW  Elec       q    Type
REMARK                         _______ _______ _______ _____ _____    ______ ____
ROOT
ATOM      1  C   LIG    1       -1.442  -0.537   0.013  0.00  0.00    +0.000 C 
ATOM      2  C   LIG    1       -2.100  -0.137   1.324  0.00  0.00    +0.220 C 
ATOM      3  O   LIG    1       -3.507  -0.389   1.353  0.00  0.00    -0.380 OA
ATOM      4  C   LIG    1       -4.199   0.019   0.157  0.00  0.00    +0.180 C 
ATOM      5  C   LIG    1       -4.805  -1.231  -0.500  0.00  0.00    +0.130 C 
ATOM      6  C   LIG    1       -3.732  -2.148  -1.068  0.00  0.00    +0.160 C 
ATOM      7  C   LIG    1       -2.801  -2.644   0.030  0.00  0.00    +0.170 C 
ATOM      8  C   LIG    1       -1.399  -2.058  -0.136  0.00  0.00    +0.210 C 
ENDROOT
BRANCH   7   9
ATOM      9  O   LIG    1       -2.719  -4.074  -0.040  0.00  0.00    -0.570 OA
ATOM     10  H   LIG    1       -3.568  -4.523   0.074  0.00  0.00    +0.380 HD
ENDBRANCH   7   9
BRANCH   6  11
ATOM     11  O   LIG    1       -3.007  -1.497  -2.107  0.00  0.00    -0.550 OA
ATOM     12  H   LIG    1       -3.554  -1.220  -2.855  0.00  0.00    +0.390 HD
ENDBRANCH   6  11
BRANCH   5  13
ATOM     13  O   LIG    1       -5.690  -0.821  -1.548  0.00  0.00    -0.560 OA
ATOM     14  H   LIG    1       -6.423  -0.265  -1.249  0.00  0.00    +0.390 HD
ENDBRANCH   5  13
BRANCH   8  15
ATOM     15  O   LIG    1       -0.529  -2.612   0.857  0.00  0.00    -0.570 OA
ATOM     16  H   LIG    1       -0.443  -3.574   0.813  0.00  0.00    +0.390 HD
ENDBRANCH   8  15
BRANCH   1  17
ATOM     17  C   LIG    1        0.002  -0.004   0.002  0.00  0.00    +0.200 C 
BRANCH  17  18
ATOM     18  O   LIG    1       -0.017   1.425   0.010  0.00  0.00    -0.580 OA
ATOM     19  H   LIG    1        0.861   1.830   0.004  0.00  0.00    +0.380 HD
ENDBRANCH  17  18
ENDBRANCH   1  17
TORSDOF 6
ENDMDL
MODEL      705
REMARK  Name = ZINC000245189568
REMARK                            x       y       z     vdW  Elec       q    Type
REMARK                         _______ _______ _______ _____ _____    ______ ____
ROOT
ATOM      1  C   LIG    1        0.673  -0.582   1.123  0.00  0.00    +0.180 C 
ATOM      2  C   LIG    1        2.156  -0.773   0.790  0.00  0.00    +0.130 C 
ATOM      3  C   LIG    1        2.851  -1.465   1.966  0.00  0.00    +0.140 C 
ATOM      4  O   LIG    1        2.207  -2.712   2.231  0.00  0.00    -0.370 OA
ATOM      5  C   LIG    1        0.830  -2.592   2.594  0.00  0.00    +0.360 C 
ATOM      6  C   LIG    1        0.053  -1.945   1.445  0.00  0.00    +0.270 C 
ENDROOT
BRANCH   6   7
ATOM      7  N   LIG    1       -1.348  -1.769   1.839  0.00  0.00    -0.710 N 
ATOM      8  H   LIG    1       -1.645  -0.923   2.208  0.00  0.00    +0.400 HD
ATOM      9  C   LIG    1       -2.223  -2.783   1.687  0.00  0.00    +0.510 C 
ATOM     10  O   LIG    1       -1.851  -3.841   1.225  0.00  0.00    -0.540 OA
ATOM     11  C   LIG    1       -3.663  -2.602   2.092  0.00  0.00    +0.110 C 
ENDBRANCH   6   7
BRANCH   1  13
ATOM     12  C   LIG    1       -0.017   1.425   0.010  0.00  0.00    +0.200 C 
ATOM     13  O   LIG    1        0.002  -0.004   0.002  0.00  0.00    -0.360 OA
ENDBRANCH   1  13
BRANCH   5  14
ATOM     14  O   LIG    1        0.714  -1.779   3.763  0.00  0.00    -0.580 OA
ATOM     15  H   LIG    1        1.183  -2.128   4.534  0.00  0.00    +0.390 HD
ENDBRANCH   5  14
BRANCH   2  16
ATOM     16  O   LIG    1        2.283  -1.580  -0.382  0.00  0.00    -0.540 OA
ATOM     17  H   LIG    1        3.197  -1.742  -0.652  0.00  0.00    +0.380 HD
ENDBRANCH   2  16
BRANCH   3  18
ATOM     18  C   LIG    1        4.320  -1.712   1.617  0.00  0.00    +0.200 C 
BRANCH  18  19
ATOM     19  O   LIG    1        4.995  -2.251   2.755  0.00  0.00    -0.560 OA
ATOM     20  H   LIG    1        5.933  -2.433   2.606  0.00  0.00    +0.380 HD
ENDBRANCH  18  19
ENDBRANCH   3  18
TORSDOF 6
ENDMDL
MODEL      706
REMARK  Name = ZINC000040486895
REMARK                            x       y       z     vdW  Elec       q    Type
REMARK                         _______ _______ _______ _____ _____    ______ ____
ROOT
ATOM      1  CA  PRO A  1       -0.807   1.855  -0.042  0.00  0.00    +0.140 C 
ATOM      2  CB  PRO A  1       -0.911   1.617  -1.563  0.00  0.00    +0.080 C 
ATOM      3  CG  PRO A  1       -1.368   2.999  -2.100  0.00  0.00    +0.170 C 
ATOM      4  CD  PRO A  1       -0.616   3.965  -1.152  0.00  0.00    +0.220 C 
ATOM      5  N   PRO A  1       -0.645   3.301   0.167  0.00  0.00    -0.560 N 
ATOM      6  C   PRO A  1       -0.539   3.918   1.361  0.00  0.00    +0.520 C 
ATOM      7  O   PRO A  1       -0.668   3.283   2.386  0.00  0.00    -0.520 OA
ENDROOT
BRANCH   6   8
ATOM      8  CA  PRO A  1       -0.259   5.398   1.421  0.00  0.00    +0.170 C 
ATOM      9  CB  PRO A  1       -1.586   6.196   1.461  0.00  0.00    +0.100 C 
ATOM     10  CG  PRO A  1       -1.136   7.519   2.135  0.00  0.00    +0.070 C 
ATOM     11  CD  PRO A  1       -0.074   7.048   3.151  0.00  0.00    +0.250 C 
ATOM     12  N   PRO A  1        0.428   5.741   2.684  0.00  0.00    -0.500 N 
ATOM     13  H1  PRO A  1        1.423   5.797   2.526  0.00  0.00    +0.440 HD
ATOM     14  H2  PRO A  1        0.233   5.035   3.378  0.00  0.00    +0.440 HD
ENDBRANCH   6   8
BRANCH   1  16
ATOM     15  O   PRO A  1        0.369  -0.096   0.597  0.00  0.00    -0.680 OA
ATOM     16  C   PRO A  1        0.387   1.120   0.511  0.00  0.00    +0.500 C 
ATOM     17  OXT PRO A  1        1.374   1.741   0.868  0.00  0.00    -0.690 OA
ENDBRANCH   1  16
BRANCH   3  18
ATOM     18  OD  PRO A  1       -0.955   3.184  -3.455  0.00  0.00    -0.550 OA
ATOM     19  HD  PRO A  1       -1.218   4.034  -3.834  0.00  0.00    +0.380 HD
ENDBRANCH   3  18
TORSDOF 3
ENDMDL
MODEL      707
REMARK  Name = ZINC000040486894
REMARK                            x       y       z     vdW  Elec       q    Type
REMARK                         _______ _______ _______ _____ _____    ______ ____
ROOT
ATOM      1  CA  PRO A  1       -0.807   1.855  -0.042  0.00  0.00    +0.150 C 
ATOM      2  CB  PRO A  1       -0.911   1.617  -1.563  0.00  0.00    +0.080 C 
ATOM      3  CG  PRO A  1       -1.368   2.999  -2.100  0.00  0.00    +0.180 C 
ATOM      4  CD  PRO A  1       -0.616   3.965  -1.152  0.00  0.00    +0.230 C 
ATOM      5  N   PRO A  1       -0.645   3.301   0.167  0.00  0.00    -0.560 N 
ATOM      6  C   PRO A  1       -0.539   3.918   1.361  0.00  0.00    +0.520 C 
ATOM      7  O   PRO A  1       -0.668   3.283   2.386  0.00  0.00    -0.520 OA
ENDROOT
BRANCH   6   8
ATOM      8  CA  PRO A  1       -0.259   5.398   1.421  0.00  0.00    +0.170 C 
ATOM      9  CB  PRO A  1       -1.586   6.196   1.461  0.00  0.00    +0.090 C 
ATOM     10  CG  PRO A  1       -1.136   7.519   2.135  0.00  0.00    +0.070 C 
ATOM     11  CD  PRO A  1       -0.074   7.048   3.151  0.00  0.00    +0.250 C 
ATOM     12  N   PRO A  1        0.428   5.741   2.684  0.00  0.00    -0.500 N 
ATOM     13  H1  PRO A  1        1.423   5.797   2.526  0.00  0.00    +0.430 HD
ATOM     14  H2  PRO A  1        0.233   5.035   3.378  0.00  0.00    +0.440 HD
ENDBRANCH   6   8
BRANCH   1  16
ATOM     15  O   PRO A  1        0.369  -0.096   0.597  0.00  0.00    -0.680 OA
ATOM     16  C   PRO A  1        0.387   1.120   0.511  0.00  0.00    +0.500 C 
ATOM     17  OXT PRO A  1        1.374   1.741   0.868  0.00  0.00    -0.690 OA
ENDBRANCH   1  16
BRANCH   3  18
ATOM     18  OD  PRO A  1       -2.783   3.155  -1.974  0.00  0.00    -0.550 OA
ATOM     19  HD  PRO A  1       -3.115   4.004  -2.296  0.00  0.00    +0.380 HD
ENDBRANCH   3  18
TORSDOF 3
ENDMDL
MODEL      708
REMARK  Name = ZINC000257292287
REMARK                            x       y       z     vdW  Elec       q    Type
REMARK                         _______ _______ _______ _____ _____    ______ ____
ROOT
ATOM      1  N   LIG    1        0.668  -0.507  -1.203  0.00  0.00    -0.710 N 
ATOM      2  H   LIG    1        1.459  -1.064  -1.125  0.00  0.00    +0.400 HD
ATOM      3  C   LIG    1        0.204  -0.163  -2.421  0.00  0.00    +0.590 C 
ATOM      4  O   LIG    1       -0.787   0.534  -2.518  0.00  0.00    -0.550 OA
ENDROOT
BRANCH   3   5
ATOM      5  C   LIG    1        0.898  -0.632  -3.634  0.00  0.00    -0.320 A 
ATOM      6  C   LIG    1        2.103  -1.333  -3.548  0.00  0.00    +0.390 A 
ATOM      7  N   LIG    1        2.692  -1.736  -4.661  0.00  0.00    -0.570 NA
ATOM      8  C   LIG    1        2.161  -1.487  -5.843  0.00  0.00    +0.570 A 
ATOM      9  N   LIG    1        1.028  -0.831  -5.980  0.00  0.00    -0.580 NA
ATOM     10  C   LIG    1        0.361  -0.392  -4.916  0.00  0.00    +0.490 A 
BRANCH  10  11
ATOM     11  N   LIG    1       -0.825   0.295  -5.064  0.00  0.00    -0.810 N 
ATOM     12  H   LIG    1       -1.264   0.678  -4.288  0.00  0.00    +0.430 HD
ATOM     13  H   LIG    1       -1.221   0.395  -5.944  0.00  0.00    +0.410 HD
ENDBRANCH  10  11
ENDBRANCH   3   5
BRANCH   1  15
ATOM     14  C   LIG    1       -0.026   1.488   0.028  0.00  0.00    +0.060 C 
ATOM     15  C   LIG    1       -0.021  -0.041   0.003  0.00  0.00    +0.180 C 
BRANCH  15  16
ATOM     16  C   LIG    1       -1.462  -0.557  -0.002  0.00  0.00    +0.200 C 
BRANCH  16  17
ATOM     17  O   LIG    1       -1.457  -1.985  -0.026  0.00  0.00    -0.570 OA
ATOM     18  H   LIG    1       -2.339  -2.382  -0.030  0.00  0.00    +0.380 HD
ENDBRANCH  16  17
ENDBRANCH  15  16
BRANCH  15  19
ATOM     19  C   LIG    1        0.705  -0.570   1.242  0.00  0.00    +0.190 C 
BRANCH  19  20
ATOM     20  O   LIG    1        0.032  -0.115   2.418  0.00  0.00    -0.560 OA
ATOM     21  H   LIG    1        0.439  -0.412   3.243  0.00  0.00    +0.390 HD
ENDBRANCH  19  20
ENDBRANCH  15  19
ENDBRANCH   1  15
TORSDOF 7
ENDMDL
MODEL      709
REMARK  Name = ZINC000001593013
REMARK                            x       y       z     vdW  Elec       q    Type
REMARK                         _______ _______ _______ _____ _____    ______ ____
ROOT
ATOM      1  C   LIG    1       -0.018   1.461   0.010  0.00  0.00    +0.340 C 
ATOM      2  N   LIG    1        0.002  -0.004   0.002  0.00  0.00    -0.510 N 
ATOM      3  C   LIG    1        0.008  -0.782  -1.097  0.00  0.00    +0.680 A 
ATOM      4  N   LIG    1        0.028  -2.076  -0.718  0.00  0.00    -0.590 N 
ATOM      5  H   LIG    1        0.036  -2.846  -1.307  0.00  0.00    +0.450 HD
ATOM      6  C   LIG    1        0.034  -2.106   0.681  0.00  0.00    -0.100 A 
ATOM      7  C   LIG    1        0.052  -3.148   1.630  0.00  0.00    +0.590 A 
ATOM      8  O   LIG    1        0.061  -4.311   1.267  0.00  0.00    -0.500 OA
ATOM      9  N   LIG    1        0.051  -2.844   2.944  0.00  0.00    -0.550 N 
ATOM     10  C   LIG    1        0.065  -3.920   3.938  0.00  0.00    +0.360 C 
ATOM     11  C   LIG    1        0.041  -1.561   3.350  0.00  0.00    +0.710 A 
ATOM     12  O   LIG    1        0.044  -1.313   4.541  0.00  0.00    -0.520 OA
ATOM     13  N   LIG    1        0.027  -0.548   2.464  0.00  0.00    -0.520 N 
ATOM     14  C   LIG    1        0.015   0.837   2.940  0.00  0.00    +0.350 C 
ATOM     15  O   LIG    1       -0.002  -0.382  -2.247  0.00  0.00    -0.540 OA
ATOM     16  C   LIG    1        0.024  -0.808   1.113  0.00  0.00    +0.350 A 
ENDROOT
TORSDOF 0
ENDMDL
MODEL      710
REMARK  Name = ZINC000000216970
REMARK                            x       y       z     vdW  Elec       q    Type
REMARK                         _______ _______ _______ _____ _____    ______ ____
ROOT
ATOM      1  C   LIG    1       -0.931  -3.707   1.579  0.00  0.00    +0.020 A 
ATOM      2  C   LIG    1       -0.977  -3.609   2.928  0.00  0.00    +0.310 A 
ATOM      3  N   LIG    1       -1.437  -4.670   3.670  0.00  0.00    -0.630 N 
ATOM      4  H   LIG    1       -1.471  -4.601   4.637  0.00  0.00    +0.440 HD
ATOM      5  C   LIG    1       -1.841  -5.803   3.068  0.00  0.00    +0.700 A 
ATOM      6  N   LIG    1       -1.806  -5.927   1.728  0.00  0.00    -0.660 N 
ATOM      7  H   LIG    1       -2.102  -6.752   1.312  0.00  0.00    +0.430 HD
ATOM      8  O   LIG    1       -2.245  -6.729   3.744  0.00  0.00    -0.540 OA
ATOM      9  C   LIG    1       -1.368  -4.909   0.960  0.00  0.00    +0.540 A 
ATOM     10  O   LIG    1       -1.337  -5.023  -0.252  0.00  0.00    -0.500 OA
ENDROOT
BRANCH   1  15
ATOM     11  C   LIG    1        0.194   1.457   0.127  0.00  0.00    +0.180 C 
ATOM     12  N   LIG    1        0.110  -0.008   0.061  0.00  0.00    -0.540 NA
ATOM     13  C   LIG    1       -1.289  -0.456   0.079  0.00  0.00    +0.160 C 
ATOM     14  C   LIG    1       -1.341  -1.967  -0.172  0.00  0.00    +0.290 C 
ATOM     15  N   LIG    1       -0.463  -2.633   0.801  0.00  0.00    -0.640 N 
ATOM     16  C   LIG    1        0.919  -2.147   0.938  0.00  0.00    +0.280 C 
ATOM     17  C   LIG    1        0.882  -0.629   1.146  0.00  0.00    +0.160 C 
ENDBRANCH   1  15
TORSDOF 1
ENDMDL
MODEL      711
REMARK  Name = ZINC000169726819
REMARK                            x       y       z     vdW  Elec       q    Type
REMARK                         _______ _______ _______ _____ _____    ______ ____
ROOT
ATOM      1  C   LIG    1        1.792  -2.615  -0.229  0.00  0.00    +0.270 C 
ATOM      2  C   LIG    1        1.852  -4.142  -0.307  0.00  0.00    +0.070 C 
ENDROOT
BRANCH   1   3
ATOM      3  N   LIG    1        1.547  -2.207   1.156  0.00  0.00    -0.580 N 
ATOM      4  C   LIG    1        2.380  -1.427   1.873  0.00  0.00    +0.520 C 
ATOM      5  C   LIG    1        1.727  -1.270   3.232  0.00  0.00    +0.310 C 
ATOM      6  N   LIG    1        0.485  -2.053   3.111  0.00  0.00    -0.730 N 
ATOM      7  H   LIG    1       -0.190  -2.179   3.796  0.00  0.00    +0.440 HD
ATOM      8  O   LIG    1        3.433  -0.949   1.508  0.00  0.00    -0.470 OA
ATOM      9  C   LIG    1        0.467  -2.557   1.864  0.00  0.00    +0.710 C 
ATOM     10  O   LIG    1       -0.426  -3.257   1.431  0.00  0.00    -0.540 OA
ENDBRANCH   1   3
BRANCH   1  11
ATOM     11  C   LIG    1        0.657  -2.104  -1.120  0.00  0.00    +0.230 C 
BRANCH  11  12
ATOM     12  N   LIG    1        0.902  -2.514  -2.509  0.00  0.00    -0.800 NA
ATOM     13  H   LIG    1        1.775  -2.138  -2.848  0.00  0.00    +0.360 HD
ATOM     14  H   LIG    1        0.136  -2.243  -3.106  0.00  0.00    +0.360 HD
ENDBRANCH  11  12
BRANCH  11  15
ATOM     15  C   LIG    1        0.598  -0.600  -1.043  0.00  0.00    +0.420 C 
ATOM     16  O   LIG    1        1.088   0.070  -1.921  0.00  0.00    -0.500 OA
BRANCH  15  18
ATOM     17  C   LIG    1       -0.018   1.448   0.010  0.00  0.00    +0.250 C 
ATOM     18  O   LIG    1        0.002  -0.004   0.002  0.00  0.00    -0.360 OA
ENDBRANCH  15  18
ENDBRANCH  11  15
ENDBRANCH   1  11
TORSDOF 5
ENDMDL
MODEL      712
REMARK  Name = ZINC000169726859
REMARK                            x       y       z     vdW  Elec       q    Type
REMARK                         _______ _______ _______ _____ _____    ______ ____
ROOT
ATOM      1  C   LIG    1        0.679  -2.115   1.088  0.00  0.00    +0.180 C 
ATOM      2  C   LIG    1       -0.635  -2.693   1.673  0.00  0.00    +0.070 C 
ATOM      3  C   LIG    1       -0.191  -4.063   2.233  0.00  0.00    +0.270 C 
ATOM      4  C   LIG    1        1.329  -3.936   2.450  0.00  0.00    +0.200 C 
ATOM      5  N   LIG    1        1.712  -2.561   2.059  0.00  0.00    -0.640 NA
ATOM      6  H   LIG    1        2.632  -2.545   1.646  0.00  0.00    +0.350 HD
ENDROOT
BRANCH   3   7
ATOM      7  N   LIG    1       -0.482  -5.126   1.268  0.00  0.00    -0.580 N 
ATOM      8  C   LIG    1       -1.296  -6.172   1.511  0.00  0.00    +0.500 C 
ATOM      9  C   LIG    1       -1.292  -6.997   0.239  0.00  0.00    +0.310 C 
ATOM     10  O   LIG    1       -0.400  -6.258  -0.650  0.00  0.00    -0.300 OA
ATOM     11  O   LIG    1       -1.906  -6.405   2.533  0.00  0.00    -0.440 OA
ATOM     12  C   LIG    1        0.023  -5.180   0.029  0.00  0.00    +0.650 C 
ATOM     13  O   LIG    1        0.784  -4.350  -0.426  0.00  0.00    -0.470 OA
ENDBRANCH   3   7
BRANCH   1  14
ATOM     14  C   LIG    1        0.618  -0.611   1.029  0.00  0.00    +0.470 C 
ATOM     15  O   LIG    1        1.124   0.049   1.905  0.00  0.00    -0.480 OA
BRANCH  14  17
ATOM     16  C   LIG    1       -0.018   1.448   0.010  0.00  0.00    +0.260 C 
ATOM     17  O   LIG    1        0.002  -0.004   0.002  0.00  0.00    -0.360 OA
ENDBRANCH  14  17
ENDBRANCH   1  14
TORSDOF 3
ENDMDL
MODEL      713
REMARK  Name = ZINC000169726820
REMARK                            x       y       z     vdW  Elec       q    Type
REMARK                         _______ _______ _______ _____ _____    ______ ____
ROOT
ATOM      1  C   LIG    1        1.792  -2.615  -0.229  0.00  0.00    +0.280 C 
ATOM      2  C   LIG    1        1.475  -2.297   1.233  0.00  0.00    +0.070 C 
ENDROOT
BRANCH   1   3
ATOM      3  N   LIG    1        1.927  -4.065  -0.396  0.00  0.00    -0.560 N 
ATOM      4  C   LIG    1        3.047  -4.676  -0.829  0.00  0.00    +0.530 C 
ATOM      5  C   LIG    1        2.727  -6.158  -0.842  0.00  0.00    +0.310 C 
ATOM      6  N   LIG    1        1.333  -6.215  -0.369  0.00  0.00    -0.730 N 
ATOM      7  H   LIG    1        0.793  -7.012  -0.250  0.00  0.00    +0.440 HD
ATOM      8  O   LIG    1        4.093  -4.150  -1.144  0.00  0.00    -0.470 OA
ATOM      9  C   LIG    1        0.955  -4.946  -0.130  0.00  0.00    +0.710 C 
ATOM     10  O   LIG    1       -0.147  -4.633   0.275  0.00  0.00    -0.540 OA
ENDBRANCH   1   3
BRANCH   1  11
ATOM     11  C   LIG    1        0.657  -2.104  -1.120  0.00  0.00    +0.230 C 
BRANCH  11  12
ATOM     12  N   LIG    1        0.902  -2.514  -2.509  0.00  0.00    -0.810 NA
ATOM     13  H   LIG    1        1.775  -2.138  -2.848  0.00  0.00    +0.350 HD
ATOM     14  H   LIG    1        0.136  -2.243  -3.106  0.00  0.00    +0.360 HD
ENDBRANCH  11  12
BRANCH  11  15
ATOM     15  C   LIG    1        0.598  -0.600  -1.043  0.00  0.00    +0.430 C 
ATOM     16  O   LIG    1        1.088   0.070  -1.921  0.00  0.00    -0.500 OA
BRANCH  15  18
ATOM     17  C   LIG    1       -0.018   1.448   0.010  0.00  0.00    +0.260 C 
ATOM     18  O   LIG    1        0.002  -0.004   0.002  0.00  0.00    -0.350 OA
ENDBRANCH  15  18
ENDBRANCH  11  15
ENDBRANCH   1  11
TORSDOF 5
ENDMDL
MODEL      714
REMARK  Name = ZINC000169726865
REMARK                            x       y       z     vdW  Elec       q    Type
REMARK                         _______ _______ _______ _____ _____    ______ ____
ROOT
ATOM      1  C   LIG    1       -1.244  -2.135   0.003  0.00  0.00    +0.210 C 
ATOM      2  C   LIG    1       -1.034  -2.662  -1.433  0.00  0.00    +0.060 C 
ATOM      3  C   LIG    1       -2.019  -3.858  -1.514  0.00  0.00    +0.240 C 
ATOM      4  C   LIG    1       -3.205  -3.346  -0.659  0.00  0.00    +0.230 C 
ATOM      5  N   LIG    1       -2.575  -2.588   0.447  0.00  0.00    -0.660 NA
ATOM      6  H   LIG    1       -2.508  -3.153   1.281  0.00  0.00    +0.360 HD
ENDROOT
BRANCH   3   7
ATOM      7  N   LIG    1       -2.434  -4.104  -2.897  0.00  0.00    -0.570 N 
ATOM      8  C   LIG    1       -2.228  -5.261  -3.556  0.00  0.00    +0.520 C 
ATOM      9  C   LIG    1       -2.819  -5.057  -4.937  0.00  0.00    +0.320 C 
ATOM     10  N   LIG    1       -3.338  -3.679  -4.891  0.00  0.00    -0.730 N 
ATOM     11  H   LIG    1       -3.787  -3.206  -5.609  0.00  0.00    +0.440 HD
ATOM     12  O   LIG    1       -1.684  -6.258  -3.132  0.00  0.00    -0.470 OA
ATOM     13  C   LIG    1       -3.071  -3.208  -3.660  0.00  0.00    +0.700 C 
ATOM     14  O   LIG    1       -3.369  -2.091  -3.285  0.00  0.00    -0.530 OA
ENDBRANCH   3   7
BRANCH   1  15
ATOM     15  C   LIG    1       -1.185  -0.630   0.010  0.00  0.00    +0.460 C 
ATOM     16  O   LIG    1       -2.208   0.015   0.023  0.00  0.00    -0.470 OA
BRANCH  15  18
ATOM     17  C   LIG    1       -0.018   1.448   0.010  0.00  0.00    +0.260 C 
ATOM     18  O   LIG    1        0.002  -0.004   0.002  0.00  0.00    -0.370 OA
ENDBRANCH  15  18
ENDBRANCH   1  15
TORSDOF 3
ENDMDL
MODEL      715
REMARK  Name = ZINC000169726857
REMARK                            x       y       z     vdW  Elec       q    Type
REMARK                         _______ _______ _______ _____ _____    ______ ____
ROOT
ATOM      1  C   LIG    1        0.679  -2.115   1.088  0.00  0.00    +0.210 C 
ATOM      2  C   LIG    1       -0.656  -2.674   1.626  0.00  0.00    +0.060 C 
ATOM      3  C   LIG    1       -0.204  -3.856   2.523  0.00  0.00    +0.250 C 
ATOM      4  C   LIG    1        1.116  -3.308   3.122  0.00  0.00    +0.240 C 
ATOM      5  N   LIG    1        1.740  -2.538   2.020  0.00  0.00    -0.650 NA
ATOM      6  H   LIG    1        2.443  -3.087   1.548  0.00  0.00    +0.360 HD
ENDROOT
BRANCH   3   7
ATOM      7  N   LIG    1       -1.187  -4.122   3.576  0.00  0.00    -0.580 N 
ATOM      8  C   LIG    1       -1.834  -5.295   3.734  0.00  0.00    +0.500 C 
ATOM      9  C   LIG    1       -2.737  -5.103   4.935  0.00  0.00    +0.310 C 
ATOM     10  O   LIG    1       -2.474  -3.729   5.352  0.00  0.00    -0.300 OA
ATOM     11  O   LIG    1       -1.716  -6.293   3.056  0.00  0.00    -0.450 OA
ATOM     12  C   LIG    1       -1.555  -3.235   4.508  0.00  0.00    +0.650 C 
ATOM     13  O   LIG    1       -1.112  -2.106   4.577  0.00  0.00    -0.460 OA
ENDBRANCH   3   7
BRANCH   1  14
ATOM     14  C   LIG    1        0.618  -0.611   1.029  0.00  0.00    +0.460 C 
ATOM     15  O   LIG    1        1.124   0.049   1.905  0.00  0.00    -0.470 OA
BRANCH  14  17
ATOM     16  C   LIG    1       -0.018   1.448   0.010  0.00  0.00    +0.260 C 
ATOM     17  O   LIG    1        0.002  -0.004   0.002  0.00  0.00    -0.370 OA
ENDBRANCH  14  17
ENDBRANCH   1  14
TORSDOF 3
ENDMDL
MODEL      716
REMARK  Name = ZINC000169726821
REMARK                            x       y       z     vdW  Elec       q    Type
REMARK                         _______ _______ _______ _____ _____    ______ ____
ROOT
ATOM      1  C   LIG    1       -0.682  -2.641  -1.627  0.00  0.00    +0.230 C 
ATOM      2  C   LIG    1       -1.776  -2.331  -0.603  0.00  0.00    +0.080 C 
ENDROOT
BRANCH   1   3
ATOM      3  N   LIG    1       -0.587  -4.091  -1.815  0.00  0.00    -0.580 N 
ATOM      4  C   LIG    1       -0.773  -4.715  -2.995  0.00  0.00    +0.520 C 
ATOM      5  C   LIG    1       -0.577  -6.191  -2.713  0.00  0.00    +0.320 C 
ATOM      6  N   LIG    1       -0.274  -6.232  -1.272  0.00  0.00    -0.730 N 
ATOM      7  H   LIG    1       -0.090  -7.022  -0.740  0.00  0.00    +0.440 HD
ATOM      8  O   LIG    1       -1.041  -4.202  -4.060  0.00  0.00    -0.460 OA
ATOM      9  C   LIG    1       -0.298  -4.958  -0.838  0.00  0.00    +0.700 C 
ATOM     10  O   LIG    1       -0.087  -4.633   0.314  0.00  0.00    -0.530 OA
ENDBRANCH   1   3
BRANCH   1  11
ATOM     11  C   LIG    1        0.657  -2.104  -1.120  0.00  0.00    +0.230 C 
BRANCH  11  12
ATOM     12  N   LIG    1        1.727  -2.505  -2.043  0.00  0.00    -0.820 NA
ATOM     13  H   LIG    1        1.562  -2.140  -2.969  0.00  0.00    +0.360 HD
ATOM     14  H   LIG    1        1.830  -3.509  -2.063  0.00  0.00    +0.350 HD
ENDBRANCH  11  12
BRANCH  11  15
ATOM     15  C   LIG    1        0.598  -0.600  -1.043  0.00  0.00    +0.470 C 
ATOM     16  O   LIG    1        1.088   0.070  -1.921  0.00  0.00    -0.490 OA
BRANCH  15  18
ATOM     17  C   LIG    1       -0.018   1.448   0.010  0.00  0.00    +0.270 C 
ATOM     18  O   LIG    1        0.002  -0.004   0.002  0.00  0.00    -0.350 OA
ENDBRANCH  15  18
ENDBRANCH  11  15
ENDBRANCH   1  11
TORSDOF 5
ENDMDL
MODEL      717
REMARK  Name = ZINC000169726866
REMARK                            x       y       z     vdW  Elec       q    Type
REMARK                         _______ _______ _______ _____ _____    ______ ____
ROOT
ATOM      1  C   LIG    1       -1.244  -2.135   0.003  0.00  0.00    +0.220 C 
ATOM      2  C   LIG    1       -1.041  -2.689   1.429  0.00  0.00    +0.040 C 
ATOM      3  C   LIG    1       -1.988  -3.903   1.526  0.00  0.00    +0.240 C 
ATOM      4  C   LIG    1       -2.683  -3.981   0.150  0.00  0.00    +0.220 C 
ATOM      5  N   LIG    1       -2.599  -2.599  -0.393  0.00  0.00    -0.640 NA
ATOM      6  H   LIG    1       -3.312  -2.009   0.008  0.00  0.00    +0.350 HD
ENDROOT
BRANCH   3   7
ATOM      7  N   LIG    1       -1.223  -5.126   1.782  0.00  0.00    -0.570 N 
ATOM      8  C   LIG    1       -1.391  -5.912   2.863  0.00  0.00    +0.520 C 
ATOM      9  C   LIG    1       -0.398  -7.046   2.704  0.00  0.00    +0.320 C 
ATOM     10  N   LIG    1        0.278  -6.739   1.432  0.00  0.00    -0.730 N 
ATOM     11  H   LIG    1        0.983  -7.255   1.010  0.00  0.00    +0.440 HD
ATOM     12  O   LIG    1       -2.174  -5.748   3.774  0.00  0.00    -0.470 OA
ATOM     13  C   LIG    1       -0.275  -5.604   0.967  0.00  0.00    +0.700 C 
ATOM     14  O   LIG    1        0.056  -5.067  -0.072  0.00  0.00    -0.530 OA
ENDBRANCH   3   7
BRANCH   1  15
ATOM     15  C   LIG    1       -1.185  -0.630   0.010  0.00  0.00    +0.470 C 
ATOM     16  O   LIG    1       -2.208   0.015   0.023  0.00  0.00    -0.500 OA
BRANCH  15  18
ATOM     17  C   LIG    1       -0.018   1.448   0.010  0.00  0.00    +0.260 C 
ATOM     18  O   LIG    1        0.002  -0.004   0.002  0.00  0.00    -0.350 OA
ENDBRANCH  15  18
ENDBRANCH   1  15
TORSDOF 3
ENDMDL
MODEL      718
REMARK  Name = ZINC000169726860
REMARK                            x       y       z     vdW  Elec       q    Type
REMARK                         _______ _______ _______ _____ _____    ______ ____
ROOT
ATOM      1  C   LIG    1        0.679  -2.115   1.088  0.00  0.00    +0.220 C 
ATOM      2  C   LIG    1        1.829  -2.645   0.196  0.00  0.00    +0.030 C 
ATOM      3  C   LIG    1        2.128  -4.018   0.853  0.00  0.00    +0.260 C 
ATOM      4  C   LIG    1        1.903  -3.742   2.354  0.00  0.00    +0.220 C 
ATOM      5  N   LIG    1        1.021  -2.563   2.455  0.00  0.00    -0.660 NA
ATOM      6  H   LIG    1        1.466  -1.822   2.976  0.00  0.00    +0.360 HD
ENDROOT
BRANCH   3   7
ATOM      7  N   LIG    1        3.513  -4.423   0.599  0.00  0.00    -0.580 N 
ATOM      8  C   LIG    1        3.869  -5.546  -0.057  0.00  0.00    +0.500 C 
ATOM      9  C   LIG    1        5.385  -5.543  -0.077  0.00  0.00    +0.310 C 
ATOM     10  O   LIG    1        5.739  -4.315   0.629  0.00  0.00    -0.300 OA
ATOM     11  O   LIG    1        3.131  -6.383  -0.532  0.00  0.00    -0.440 OA
ATOM     12  C   LIG    1        4.587  -3.723   0.983  0.00  0.00    +0.650 C 
ATOM     13  O   LIG    1        4.527  -2.673   1.591  0.00  0.00    -0.470 OA
ENDBRANCH   3   7
BRANCH   1  14
ATOM     14  C   LIG    1        0.618  -0.611   1.029  0.00  0.00    +0.460 C 
ATOM     15  O   LIG    1        1.124   0.049   1.905  0.00  0.00    -0.500 OA
BRANCH  14  17
ATOM     16  C   LIG    1       -0.018   1.448   0.010  0.00  0.00    +0.270 C 
ATOM     17  O   LIG    1        0.002  -0.004   0.002  0.00  0.00    -0.350 OA
ENDBRANCH  14  17
ENDBRANCH   1  14
TORSDOF 3
ENDMDL
MODEL      719
REMARK  Name = ZINC000169726858
REMARK                            x       y       z     vdW  Elec       q    Type
REMARK                         _______ _______ _______ _____ _____    ______ ____
ROOT
ATOM      1  C   LIG    1        0.679  -2.115   1.088  0.00  0.00    +0.220 C 
ATOM      2  C   LIG    1        1.827  -2.644   0.201  0.00  0.00    +0.040 C 
ATOM      3  C   LIG    1        2.414  -3.841   0.977  0.00  0.00    +0.240 C 
ATOM      4  C   LIG    1        1.572  -3.935   2.268  0.00  0.00    +0.230 C 
ATOM      5  N   LIG    1        1.025  -2.566   2.461  0.00  0.00    -0.640 NA
ATOM      6  H   LIG    1        1.714  -1.957   2.877  0.00  0.00    +0.360 HD
ENDROOT
BRANCH   3   7
ATOM      7  N   LIG    1        2.284  -5.070   0.191  0.00  0.00    -0.580 N 
ATOM      8  C   LIG    1        3.322  -5.834  -0.203  0.00  0.00    +0.500 C 
ATOM      9  C   LIG    1        2.710  -6.984  -0.979  0.00  0.00    +0.310 C 
ATOM     10  O   LIG    1        1.277  -6.713  -0.929  0.00  0.00    -0.300 OA
ATOM     11  O   LIG    1        4.498  -5.643   0.017  0.00  0.00    -0.450 OA
ATOM     12  C   LIG    1        1.118  -5.581  -0.223  0.00  0.00    +0.650 C 
ATOM     13  O   LIG    1        0.038  -5.074   0.007  0.00  0.00    -0.460 OA
ENDBRANCH   3   7
BRANCH   1  14
ATOM     14  C   LIG    1        0.618  -0.611   1.029  0.00  0.00    +0.470 C 
ATOM     15  O   LIG    1        1.124   0.049   1.905  0.00  0.00    -0.500 OA
BRANCH  14  17
ATOM     16  C   LIG    1       -0.018   1.448   0.010  0.00  0.00    +0.270 C 
ATOM     17  O   LIG    1        0.002  -0.004   0.002  0.00  0.00    -0.350 OA
ENDBRANCH  14  17
ENDBRANCH   1  14
TORSDOF 3
ENDMDL
MODEL      720
REMARK  Name = ZINC000169726868
REMARK                            x       y       z     vdW  Elec       q    Type
REMARK                         _______ _______ _______ _____ _____    ______ ____
ROOT
ATOM      1  C   LIG    1       -1.244  -2.135   0.003  0.00  0.00    +0.220 C 
ATOM      2  C   LIG    1       -1.038  -2.690   1.434  0.00  0.00    +0.040 C 
ATOM      3  C   LIG    1       -1.735  -4.073   1.337  0.00  0.00    +0.260 C 
ATOM      4  C   LIG    1       -2.927  -3.797   0.397  0.00  0.00    +0.210 C 
ATOM      5  N   LIG    1       -2.592  -2.596  -0.393  0.00  0.00    -0.660 NA
ATOM      6  H   LIG    1       -3.277  -1.869  -0.254  0.00  0.00    +0.360 HD
ENDROOT
BRANCH   3   7
ATOM      7  N   LIG    1       -2.200  -4.512   2.655  0.00  0.00    -0.570 N 
ATOM      8  C   LIG    1       -1.791  -5.641   3.266  0.00  0.00    +0.520 C 
ATOM      9  C   LIG    1       -2.528  -5.682   4.590  0.00  0.00    +0.320 C 
ATOM     10  N   LIG    1       -3.344  -4.455   4.570  0.00  0.00    -0.730 N 
ATOM     11  H   LIG    1       -3.950  -4.151   5.263  0.00  0.00    +0.440 HD
ATOM     12  O   LIG    1       -0.997  -6.455   2.844  0.00  0.00    -0.460 OA
ATOM     13  C   LIG    1       -3.081  -3.838   3.404  0.00  0.00    +0.700 C 
ATOM     14  O   LIG    1       -3.592  -2.788   3.065  0.00  0.00    -0.530 OA
ENDBRANCH   3   7
BRANCH   1  15
ATOM     15  C   LIG    1       -1.185  -0.630   0.010  0.00  0.00    +0.460 C 
ATOM     16  O   LIG    1       -2.208   0.015   0.023  0.00  0.00    -0.500 OA
BRANCH  15  18
ATOM     17  C   LIG    1       -0.018   1.448   0.010  0.00  0.00    +0.270 C 
ATOM     18  O   LIG    1        0.002  -0.004   0.002  0.00  0.00    -0.350 OA
ENDBRANCH  15  18
ENDBRANCH   1  15
TORSDOF 3
ENDMDL
MODEL      721
REMARK  Name = ZINC000169726867
REMARK                            x       y       z     vdW  Elec       q    Type
REMARK                         _______ _______ _______ _____ _____    ______ ____
ROOT
ATOM      1  C   LIG    1       -1.026  -1.998  -0.344  0.00  0.00    +0.180 C 
ATOM      2  C   LIG    1       -1.077  -2.728  -1.710  0.00  0.00    +0.070 C 
ATOM      3  C   LIG    1       -1.771  -4.065  -1.362  0.00  0.00    +0.270 C 
ATOM      4  C   LIG    1       -2.542  -3.790  -0.058  0.00  0.00    +0.200 C 
ATOM      5  N   LIG    1       -2.316  -2.369   0.292  0.00  0.00    -0.640 NA
ATOM      6  H   LIG    1       -2.280  -2.244   1.292  0.00  0.00    +0.350 HD
ENDROOT
BRANCH   3   7
ATOM      7  N   LIG    1       -0.773  -5.117  -1.152  0.00  0.00    -0.570 N 
ATOM      8  C   LIG    1        0.113  -5.128  -0.137  0.00  0.00    +0.520 C 
ATOM      9  C   LIG    1        0.932  -6.390  -0.322  0.00  0.00    +0.320 C 
ATOM     10  N   LIG    1        0.359  -7.000  -1.534  0.00  0.00    -0.730 N 
ATOM     11  H   LIG    1        0.640  -7.829  -1.954  0.00  0.00    +0.440 HD
ATOM     12  O   LIG    1        0.230  -4.301   0.742  0.00  0.00    -0.470 OA
ATOM     13  C   LIG    1       -0.632  -6.187  -1.942  0.00  0.00    +0.700 C 
ATOM     14  O   LIG    1       -1.318  -6.398  -2.923  0.00  0.00    -0.540 OA
ENDBRANCH   3   7
BRANCH   1  15
ATOM     15  C   LIG    1       -0.940  -0.506  -0.541  0.00  0.00    +0.470 C 
ATOM     16  O   LIG    1       -1.939   0.170  -0.476  0.00  0.00    -0.480 OA
BRANCH  15  18
ATOM     17  C   LIG    1        0.255   1.511  -0.969  0.00  0.00    +0.260 C 
ATOM     18  O   LIG    1        0.246   0.070  -0.790  0.00  0.00    -0.360 OA
ENDBRANCH  15  18
ENDBRANCH   1  15
TORSDOF 3
ENDMDL
MODEL      722
REMARK  Name = ZINC000032250419
REMARK                            x       y       z     vdW  Elec       q    Type
REMARK                         _______ _______ _______ _____ _____    ______ ____
ROOT
ATOM      1  C   LIG    1       -1.282  -0.769   0.010  0.00  0.00    +0.510 C 
ATOM      2  N   LIG    1       -1.264  -2.116   0.003  0.00  0.00    -0.700 N 
ATOM      3  H   LIG    1       -0.417  -2.590  -0.008  0.00  0.00    +0.410 HD
ATOM      4  O   LIG    1       -2.341  -0.176   0.024  0.00  0.00    -0.520 OA
ENDROOT
BRANCH   1   8
ATOM      5  N   LIG    1       -0.016   1.344   0.009  0.00  0.00    -0.820 N 
ATOM      6  H   LIG    1       -0.863   1.817   0.016  0.00  0.00    +0.420 HD
ATOM      7  H   LIG    1        0.817   1.840   0.004  0.00  0.00    +0.410 HD
ATOM      8  C   LIG    1        0.002  -0.004   0.002  0.00  0.00    +0.510 C 
ATOM      9  O   LIG    1        1.061  -0.596  -0.011  0.00  0.00    -0.520 OA
ENDBRANCH   1   8
BRANCH   2  10
ATOM     10  C   LIG    1       -2.522  -2.866   0.011  0.00  0.00    +0.280 C 
BRANCH  10  11
ATOM     11  C   LIG    1       -2.222  -4.366  -0.000  0.00  0.00    +0.180 C 
BRANCH  11  12
ATOM     12  N   LIG    1       -3.484  -5.118   0.008  0.00  0.00    -0.530 NA
ATOM     13  C   LIG    1       -4.412  -4.579   1.013  0.00  0.00    +0.150 C 
ATOM     14  C   LIG    1       -5.733  -5.351   0.947  0.00  0.00    +0.220 C 
ATOM     15  O   LIG    1       -5.475  -6.745   1.139  0.00  0.00    -0.380 OA
ATOM     16  C   LIG    1       -4.575  -7.302   0.177  0.00  0.00    +0.220 C 
ATOM     17  C   LIG    1       -3.243  -6.550   0.236  0.00  0.00    +0.160 C 
ENDBRANCH  11  12
ENDBRANCH  10  11
ENDBRANCH   2  10
TORSDOF 4
ENDMDL
MODEL      723
REMARK  Name = ZINC000599398063
REMARK                            x       y       z     vdW  Elec       q    Type
REMARK                         _______ _______ _______ _____ _____    ______ ____
ROOT
ATOM      1  C   LIG    1       -0.023  -2.272  -1.152  0.00  0.00    +0.030 C 
ATOM      2  C   LIG    1       -1.369  -2.707  -0.566  0.00  0.00    +0.340 C 
ATOM      3  O   LIG    1       -1.410  -4.132  -0.476  0.00  0.00    -0.390 OA
ATOM      4  C   LIG    1       -1.288  -4.800  -1.733  0.00  0.00    +0.160 C 
ATOM      5  C   LIG    1        0.062  -4.450  -2.366  0.00  0.00    +0.120 C 
ATOM      6  C   LIG    1        0.166  -2.930  -2.523  0.00  0.00    +0.200 C 
ENDROOT
BRANCH   5   7
ATOM      7  O   LIG    1        1.119  -4.917  -1.526  0.00  0.00    -0.540 OA
ATOM      8  H   LIG    1        1.112  -5.873  -1.380  0.00  0.00    +0.380 HD
ENDBRANCH   5   7
BRANCH   2   9
ATOM      9  O   LIG    1       -1.526  -2.142   0.738  0.00  0.00    -0.540 OA
ATOM     10  H   LIG    1       -2.358  -2.376   1.170  0.00  0.00    +0.390 HD
ENDBRANCH   2   9
BRANCH   6  11
ATOM     11  O   LIG    1       -0.850  -2.470  -3.417  0.00  0.00    -0.560 OA
ATOM     12  H   LIG    1       -0.796  -2.852  -4.303  0.00  0.00    +0.380 HD
ENDBRANCH   6  11
BRANCH   1  13
ATOM     13  C   LIG    1       -0.000  -0.750  -1.307  0.00  0.00    +0.060 C 
BRANCH  13  15
ATOM     14  C   LIG    1        1.627   1.134  -2.091  0.00  0.00    +0.070 C 
ATOM     15  C   LIG    1        1.374  -0.310  -1.743  0.00  0.00    +0.350 C 
ATOM     16  O   LIG    1        2.272  -1.115  -1.813  0.00  0.00    -0.460 OA
ENDBRANCH  13  15
ENDBRANCH   1  13
BRANCH   4  17
ATOM     17  C   LIG    1       -1.373  -6.313  -1.518  0.00  0.00    +0.200 C 
BRANCH  17  18
ATOM     18  O   LIG    1       -2.675  -6.652  -1.035  0.00  0.00    -0.560 OA
ATOM     19  H   LIG    1       -2.801  -7.598  -0.876  0.00  0.00    +0.380 HD
ENDBRANCH  17  18
ENDBRANCH   4  17
TORSDOF 7
ENDMDL
MODEL      724
REMARK  Name = ZINC000599398069
REMARK                            x       y       z     vdW  Elec       q    Type
REMARK                         _______ _______ _______ _____ _____    ______ ____
ROOT
ATOM      1  C   LIG    1        0.023  -2.256  -1.036  0.00  0.00    +0.020 C 
ATOM      2  C   LIG    1       -1.274  -2.670  -0.336  0.00  0.00    +0.380 C 
ATOM      3  O   LIG    1       -2.384  -2.403  -1.195  0.00  0.00    -0.380 OA
ATOM      4  C   LIG    1       -2.351  -3.120  -2.430  0.00  0.00    +0.140 C 
ATOM      5  C   LIG    1       -1.097  -2.724  -3.215  0.00  0.00    +0.130 C 
ATOM      6  C   LIG    1        0.143  -3.013  -2.362  0.00  0.00    +0.200 C 
ENDROOT
BRANCH   5   7
ATOM      7  O   LIG    1       -1.032  -3.482  -4.425  0.00  0.00    -0.560 OA
ATOM      8  H   LIG    1       -1.789  -3.350  -5.013  0.00  0.00    +0.380 HD
ENDBRANCH   5   7
BRANCH   2   9
ATOM      9  O   LIG    1       -1.229  -4.066  -0.035  0.00  0.00    -0.570 OA
ATOM     10  H   LIG    1       -2.020  -4.398   0.411  0.00  0.00    +0.390 HD
ENDBRANCH   2   9
BRANCH   6  11
ATOM     11  O   LIG    1        1.314  -2.581  -3.058  0.00  0.00    -0.560 OA
ATOM     12  H   LIG    1        1.447  -3.017  -3.911  0.00  0.00    +0.390 HD
ENDBRANCH   6  11
BRANCH   1  13
ATOM     13  C   LIG    1       -0.000  -0.750  -1.307  0.00  0.00    +0.050 C 
BRANCH  13  15
ATOM     14  C   LIG    1       -0.018   1.503   0.010  0.00  0.00    +0.070 C 
ATOM     15  C   LIG    1        0.002  -0.004   0.002  0.00  0.00    +0.360 C 
ATOM     16  O   LIG    1        0.020  -0.613   1.044  0.00  0.00    -0.460 OA
ENDBRANCH  13  15
ENDBRANCH   1  13
BRANCH   4  17
ATOM     17  C   LIG    1       -3.596  -2.779  -3.252  0.00  0.00    +0.200 C 
BRANCH  17  18
ATOM     18  O   LIG    1       -4.760  -3.252  -2.571  0.00  0.00    -0.560 OA
ATOM     19  H   LIG    1       -5.588  -3.070  -3.036  0.00  0.00    +0.380 HD
ENDBRANCH  17  18
ENDBRANCH   4  17
TORSDOF 7
ENDMDL
MODEL      725
REMARK  Name = ZINC000001608198
REMARK                            x       y       z     vdW  Elec       q    Type
REMARK                         _______ _______ _______ _____ _____    ______ ____
ROOT
ATOM      1  C   LIG    1        0.531  -2.107   1.198  0.00  0.00    -0.320 C 
ATOM      2  C   LIG    1        1.400  -2.701   2.089  0.00  0.00    +0.530 C 
ENDROOT
BRANCH   2   3
ATOM      3  N   LIG    1        1.971  -1.961   3.078  0.00  0.00    -0.650 N 
ATOM      4  H   LIG    1        1.812  -1.005   3.122  0.00  0.00    +0.430 HD
ATOM      5  C   LIG    1        2.758  -2.556   3.996  0.00  0.00    +0.700 C 
ATOM      6  O   LIG    1        2.958  -3.754   3.940  0.00  0.00    -0.560 OA
ATOM      7  N   LIG    1        3.324  -1.823   4.975  0.00  0.00    -0.840 N 
ATOM      8  H   LIG    1        3.891  -2.252   5.636  0.00  0.00    +0.430 HD
ATOM      9  H   LIG    1        3.165  -0.868   5.020  0.00  0.00    +0.410 HD
ENDBRANCH   2   3
BRANCH   1  10
ATOM     10  C   LIG    1        0.097  -0.721   1.410  0.00  0.00    +0.530 C 
ATOM     11  O   LIG    1        0.417  -0.132   2.424  0.00  0.00    -0.540 OA
BRANCH  10  13
ATOM     12  C   LIG    1       -1.050   1.269   0.756  0.00  0.00    +0.250 C 
ATOM     13  O   LIG    1       -0.657  -0.102   0.480  0.00  0.00    -0.330 OA
ENDBRANCH  10  13
ENDBRANCH   1  10
BRANCH   1  14
ATOM     14  C   LIG    1        0.040  -2.861   0.039  0.00  0.00    +0.530 C 
ATOM     15  O   LIG    1        0.399  -4.010  -0.137  0.00  0.00    -0.520 OA
BRANCH  14  16
ATOM     16  O   LIG    1       -0.810  -2.281  -0.832  0.00  0.00    -0.340 OA
ATOM     17  C   LIG    1       -1.254  -3.086  -1.956  0.00  0.00    +0.260 C 
ENDBRANCH  14  16
ENDBRANCH   1  14
TORSDOF 5
ENDMDL
MODEL      726
REMARK  Name = ZINC000001679739
REMARK                            x       y       z     vdW  Elec       q    Type
REMARK                         _______ _______ _______ _____ _____    ______ ____
ROOT
ATOM      1  C   LIG    1        2.795  -0.825  -2.739  0.00  0.00    +0.020 C 
ENDROOT
BRANCH   1   2
ATOM      2  C   LIG    1        2.207  -0.042  -1.563  0.00  0.00    +0.250 C 
BRANCH   2   3
ATOM      3  N   LIG    1        0.796  -0.399  -1.397  0.00  0.00    -1.120 NA
ATOM      4  H   LIG    1        0.327  -0.866  -2.105  0.00  0.00    +0.420 HD
BRANCH   3   6
ATOM      5  C   LIG    1       -0.022   1.810   0.012  0.00  0.00    -0.280 C 
ATOM      6  S   LIG    1        0.002  -0.004   0.002  0.00  0.00    +2.620 S 
ATOM      7  O   LIG    1       -1.309  -0.519  -0.182  0.00  0.00    -0.960 OA
ATOM      8  O   LIG    1        0.845  -0.497   1.035  0.00  0.00    -0.960 OA
ENDBRANCH   3   6
ENDBRANCH   2   3
ENDBRANCH   1   2
BRANCH   1   9
ATOM      9  C   LIG    1        4.269  -0.452  -2.913  0.00  0.00    +0.020 C 
BRANCH   9  10
ATOM     10  C   LIG    1        4.857  -1.235  -4.090  0.00  0.00    +0.250 C 
BRANCH  10  11
ATOM     11  N   LIG    1        6.268  -0.878  -4.256  0.00  0.00    -1.120 NA
ATOM     12  H   LIG    1        6.625  -0.090  -3.818  0.00  0.00    +0.420 HD
BRANCH  11  13
ATOM     13  S   LIG    1        7.256  -1.821  -5.193  0.00  0.00    +2.620 S 
ATOM     14  O   LIG    1        7.050  -3.139  -4.702  0.00  0.00    -0.960 OA
ATOM     15  O   LIG    1        8.528  -1.196  -5.102  0.00  0.00    -0.960 OA
ATOM     16  C   LIG    1        6.583  -1.655  -6.870  0.00  0.00    -0.280 C 
ENDBRANCH  11  13
ENDBRANCH  10  11
ENDBRANCH   9  10
ENDBRANCH   1   9
TORSDOF 7
ENDMDL
MODEL      727
REMARK  Name = ZINC000006524240
REMARK                            x       y       z     vdW  Elec       q    Type
REMARK                         _______ _______ _______ _____ _____    ______ ____
ROOT
ATOM      1  C   LIG    1        0.002  -0.004   0.002  0.00  0.00    +0.470 A 
ATOM      2  N   LIG    1       -1.135  -0.686   0.004  0.00  0.00    -0.590 NA
ATOM      3  C   LIG    1       -1.131  -2.018  -0.004  0.00  0.00    +0.650 A 
ATOM      4  N   LIG    1        0.023  -2.711  -0.014  0.00  0.00    -0.520 N 
ATOM      5  C   LIG    1        1.221  -2.055  -0.016  0.00  0.00    +0.330 A 
ATOM      6  O   LIG    1       -2.192  -2.621  -0.002  0.00  0.00    -0.520 OA
ATOM      7  C   LIG    1        1.233  -0.698  -0.013  0.00  0.00    -0.050 A 
ENDROOT
BRANCH   4   8
ATOM      8  C1* LIG    1       -0.006  -4.175  -0.024  0.00  0.00    +0.410 C 
ATOM      9  C2* LIG    1       -0.658  -4.708   1.272  0.00  0.00    +0.010 C 
ATOM     10  C3* LIG    1       -1.467  -5.939   0.806  0.00  0.00    +0.170 C 
ATOM     11  C4* LIG    1       -1.209  -6.005  -0.716  0.00  0.00    +0.180 C 
ATOM     12  O4* LIG    1       -0.854  -4.654  -1.090  0.00  0.00    -0.340 OA
BRANCH  10  13
ATOM     13  O3* LIG    1       -0.991  -7.124   1.448  0.00  0.00    -0.560 OA
ATOM     14  H3* LIG    1       -1.075  -7.109   2.412  0.00  0.00    +0.390 HD
ENDBRANCH  10  13
BRANCH  11  15
ATOM     15  C5* LIG    1       -2.474  -6.450  -1.452  0.00  0.00    +0.210 C 
BRANCH  15  16
ATOM     16  O5* LIG    1       -2.182  -6.616  -2.841  0.00  0.00    -0.570 OA
ATOM     17  H5* LIG    1       -2.940  -6.898  -3.371  0.00  0.00    +0.380 HD
ENDBRANCH  15  16
ENDBRANCH  11  15
ENDBRANCH   4   8
BRANCH   1  18
ATOM     18  N   LIG    1       -0.017   1.372   0.010  0.00  0.00    -0.820 N 
ATOM     19  H   LIG    1       -0.863   1.846   0.016  0.00  0.00    +0.420 HD
ATOM     20  H   LIG    1        0.817   1.869   0.004  0.00  0.00    +0.410 HD
ENDBRANCH   1  18
BRANCH   7  21
ATOM     21  O   LIG    1        2.412  -0.016  -0.015  0.00  0.00    -0.470 OA
ATOM     22  H   LIG    1        2.310   0.945  -0.013  0.00  0.00    +0.390 HD
ENDBRANCH   7  21
TORSDOF 6
ENDMDL
MODEL      728
REMARK  Name = ZINC000225766324
REMARK                            x       y       z     vdW  Elec       q    Type
REMARK                         _______ _______ _______ _____ _____    ______ ____
ROOT
ATOM      1  C   LIG    1        1.280   1.980   0.001  0.00  0.00    +0.370 C 
ENDROOT
BRANCH   1   3
ATOM      2  O   LIG    1        0.002  -0.004   0.002  0.00  0.00    -0.510 OA
ATOM      3  C   LIG    1       -0.014   1.209   0.009  0.00  0.00    +0.500 C 
ATOM      4  N   LIG    1       -1.191   1.867   0.018  0.00  0.00    -0.610 N 
ATOM      5  C   LIG    1       -1.236   3.337   0.020  0.00  0.00    +0.250 C 
ATOM      6  C   LIG    1       -2.182   3.793  -1.096  0.00  0.00    +0.220 C 
ATOM      7  O   LIG    1       -3.435   3.120  -0.956  0.00  0.00    -0.370 OA
ATOM      8  C   LIG    1       -3.354   1.699  -1.091  0.00  0.00    +0.220 C 
ATOM      9  C   LIG    1       -2.468   1.135   0.020  0.00  0.00    +0.260 C 
ENDBRANCH   1   3
BRANCH   1  10
ATOM     10  N   LIG    1        2.407   1.043  -0.015  0.00  0.00    -0.280 N 
ATOM     11  N   LIG    1        2.993   0.551   1.020  0.00  0.00    -0.070 NA
ATOM     12  N   LIG    1        3.942  -0.238   0.658  0.00  0.00    -0.260 NA
ATOM     13  C   LIG    1        3.991  -0.274  -0.678  0.00  0.00    +0.180 A 
ATOM     14  C   LIG    1        3.006   0.542  -1.120  0.00  0.00    -0.020 A 
BRANCH  14  15
ATOM     15  C   LIG    1        2.652   0.839  -2.555  0.00  0.00    +0.290 C 
BRANCH  15  16
ATOM     16  O   LIG    1        3.530   0.117  -3.421  0.00  0.00    -0.560 OA
ATOM     17  H   LIG    1        3.360   0.261  -4.362  0.00  0.00    +0.390 HD
ENDBRANCH  15  16
ENDBRANCH  14  15
ENDBRANCH   1  10
TORSDOF 4
ENDMDL
MODEL      729
REMARK  Name = ZINC000019364680
REMARK                            x       y       z     vdW  Elec       q    Type
REMARK                         _______ _______ _______ _____ _____    ______ ____
ROOT
ATOM      1  CE  LYS A  1        2.561  -0.368  -2.719  0.00  0.00    +0.250 C 
ENDROOT
BRANCH   1   2
ATOM      2  NZ  LYS A  1        1.959   0.106  -1.467  0.00  0.00    -0.510 N 
ATOM      3  HZ1 LYS A  1        2.546  -0.157  -0.690  0.00  0.00    +0.430 HD
ATOM      4  HZ2 LYS A  1        1.870   1.111  -1.496  0.00  0.00    +0.420 HD
BRANCH   2   5
ATOM      5  C   LYS A  1        0.630  -0.498  -1.303  0.00  0.00    +0.240 C 
BRANCH   5   6
ATOM      6  CA  LYS A  1        0.002  -0.004   0.002  0.00  0.00    +0.100 C 
BRANCH   6   7
ATOM      7  N   LYS A  1       -0.018   1.465   0.010  0.00  0.00    -0.820 NA
ATOM      8  H1  LYS A  1       -0.556   1.823  -0.764  0.00  0.00    +0.360 HD
ATOM      9  H2  LYS A  1        0.919   1.839   0.003  0.00  0.00    +0.310 HD
ENDBRANCH   6   7
BRANCH   6  10
ATOM     10  C   LYS A  1       -1.407  -0.526   0.111  0.00  0.00    +0.500 C 
ATOM     11  OXT LYS A  1       -1.604  -1.714   0.305  0.00  0.00    -0.680 OA
ATOM     12  O   LYS A  1       -2.351   0.239   0.004  0.00  0.00    -0.650 OA
ENDBRANCH   6  10
ENDBRANCH   5   6
ENDBRANCH   2   5
ENDBRANCH   1   2
BRANCH   1  13
ATOM     13  CD  LYS A  1        3.945   0.262  -2.890  0.00  0.00    +0.030 C 
BRANCH  13  14
ATOM     14  CG  LYS A  1        4.573  -0.233  -4.195  0.00  0.00    +0.030 C 
BRANCH  14  15
ATOM     15  CB  LYS A  1        5.957   0.397  -4.366  0.00  0.00    +0.070 C 
BRANCH  15  16
ATOM     16  CA  LYS A  1        6.585  -0.097  -5.670  0.00  0.00    +0.080 C 
BRANCH  16  17
ATOM     17  N   LYS A  1        5.794   0.388  -6.809  0.00  0.00    -0.620 N 
ATOM     18  H1  LYS A  1        5.780   1.397  -6.804  0.00  0.00    +0.430 HD
ATOM     19  H2  LYS A  1        4.850   0.038  -6.736  0.00  0.00    +0.410 HD
ATOM     20  H3  LYS A  1        6.208   0.062  -7.670  0.00  0.00    +0.430 HD
ENDBRANCH  16  17
BRANCH  16  21
ATOM     21  C   LYS A  1        7.994   0.425  -5.779  0.00  0.00    +0.480 C 
ATOM     22  OXT LYS A  1        8.207   1.496  -6.321  0.00  0.00    -0.670 OA
ATOM     23  O   LYS A  1        8.921  -0.224  -5.325  0.00  0.00    -0.630 OA
ENDBRANCH  16  21
ENDBRANCH  15  16
ENDBRANCH  14  15
ENDBRANCH  13  14
ENDBRANCH   1  13
TORSDOF 11
ENDMDL
MODEL      730
REMARK  Name = ZINC000390822387
REMARK                            x       y       z     vdW  Elec       q    Type
REMARK                         _______ _______ _______ _____ _____    ______ ____
ROOT
ATOM      1  C   LIG    1       -0.018  -2.231  -0.920  0.00  0.00    +0.020 C 
ATOM      2  C   LIG    1        1.252  -2.569  -0.135  0.00  0.00    +0.340 C 
ATOM      3  O   LIG    1        2.395  -2.354  -0.965  0.00  0.00    -0.390 OA
ATOM      4  C   LIG    1        2.424  -3.166  -2.141  0.00  0.00    +0.160 C 
ATOM      5  C   LIG    1        1.200  -2.851  -3.006  0.00  0.00    +0.110 C 
ATOM      6  C   LIG    1       -0.072  -3.091  -2.186  0.00  0.00    +0.200 C 
ENDROOT
BRANCH   5   7
ATOM      7  O   LIG    1        1.250  -1.486  -3.425  0.00  0.00    -0.540 OA
ATOM      8  H   LIG    1        2.033  -1.262  -3.946  0.00  0.00    +0.380 HD
ENDBRANCH   5   7
BRANCH   2   9
ATOM      9  O   LIG    1        1.337  -1.731   1.020  0.00  0.00    -0.540 OA
ATOM     10  H   LIG    1        2.119  -1.891   1.565  0.00  0.00    +0.390 HD
ENDBRANCH   2   9
BRANCH   6  11
ATOM     11  O   LIG    1       -0.156  -4.471  -1.825  0.00  0.00    -0.550 OA
ATOM     12  H   LIG    1       -0.187  -5.074  -2.581  0.00  0.00    +0.380 HD
ENDBRANCH   6  11
BRANCH   1  13
ATOM     13  C   LIG    1       -0.000  -0.750  -1.307  0.00  0.00    +0.080 C 
BRANCH  13  15
ATOM     14  C   LIG    1       -1.445   0.960  -2.649  0.00  0.00    +0.060 C 
ATOM     15  C   LIG    1       -1.272  -0.407  -2.038  0.00  0.00    +0.360 C 
ATOM     16  O   LIG    1       -2.153  -1.228  -2.135  0.00  0.00    -0.470 OA
ENDBRANCH  13  15
ENDBRANCH   1  13
BRANCH   4  17
ATOM     17  C   LIG    1        3.699  -2.872  -2.933  0.00  0.00    +0.200 C 
BRANCH  17  18
ATOM     18  O   LIG    1        4.838  -3.273  -2.169  0.00  0.00    -0.560 OA
ATOM     19  H   LIG    1        5.683  -3.116  -2.611  0.00  0.00    +0.380 HD
ENDBRANCH  17  18
ENDBRANCH   4  17
TORSDOF 7
ENDMDL
MODEL      731
REMARK  Name = ZINC000390822388
REMARK                            x       y       z     vdW  Elec       q    Type
REMARK                         _______ _______ _______ _____ _____    ______ ____
ROOT
ATOM      1  C   LIG    1        0.023  -2.256  -1.036  0.00  0.00    +0.010 C 
ATOM      2  C   LIG    1        1.344  -2.634  -0.360  0.00  0.00    +0.380 C 
ATOM      3  O   LIG    1        1.387  -4.048  -0.160  0.00  0.00    -0.380 OA
ATOM      4  C   LIG    1        1.324  -4.810  -1.368  0.00  0.00    +0.140 C 
ATOM      5  C   LIG    1        0.002  -4.520  -2.084  0.00  0.00    +0.120 C 
ATOM      6  C   LIG    1       -0.102  -3.017  -2.360  0.00  0.00    +0.200 C 
ENDROOT
BRANCH   5   7
ATOM      7  O   LIG    1       -0.040  -5.237  -3.319  0.00  0.00    -0.560 OA
ATOM      8  H   LIG    1        0.025  -6.197  -3.219  0.00  0.00    +0.380 HD
ENDBRANCH   5   7
BRANCH   2   9
ATOM      9  O   LIG    1        2.435  -2.236  -1.192  0.00  0.00    -0.580 OA
ATOM     10  H   LIG    1        3.306  -2.445  -0.826  0.00  0.00    +0.390 HD
ENDBRANCH   2   9
BRANCH   6  11
ATOM     11  O   LIG    1       -1.364  -2.728  -2.964  0.00  0.00    -0.560 OA
ATOM     12  H   LIG    1       -1.511  -3.182  -3.804  0.00  0.00    +0.390 HD
ENDBRANCH   6  11
BRANCH   1  13
ATOM     13  C   LIG    1       -0.000  -0.750  -1.307  0.00  0.00    +0.060 C 
BRANCH  13  15
ATOM     14  C   LIG    1       -0.018   1.503   0.010  0.00  0.00    +0.070 C 
ATOM     15  C   LIG    1        0.002  -0.004   0.002  0.00  0.00    +0.360 C 
ATOM     16  O   LIG    1        0.020  -0.613   1.044  0.00  0.00    -0.460 OA
ENDBRANCH  13  15
ENDBRANCH   1  13
BRANCH   4  17
ATOM     17  C   LIG    1        1.407  -6.301  -1.035  0.00  0.00    +0.200 C 
BRANCH  17  18
ATOM     18  O   LIG    1        2.687  -6.593  -0.471  0.00  0.00    -0.560 OA
ATOM     19  H   LIG    1        2.811  -7.522  -0.235  0.00  0.00    +0.380 HD
ENDBRANCH  17  18
ENDBRANCH   4  17
TORSDOF 7
ENDMDL
MODEL      732
REMARK  Name = ZINC000005201819
REMARK                            x       y       z     vdW  Elec       q    Type
REMARK                         _______ _______ _______ _____ _____    ______ ____
ROOT
ATOM      1  C   LIG    1       -0.720   3.008   1.225  0.00  0.00    +0.110 C 
ATOM      2  O   LIG    1        0.622   3.505   1.219  0.00  0.00    -0.410 OA
ATOM      3  C   LIG    1        0.707   4.932   1.274  0.00  0.00    +0.440 C 
ATOM      4  O   LIG    1        0.064   5.400   2.462  0.00  0.00    -0.340 OA
ATOM      5  C   LIG    1       -1.314   5.031   2.559  0.00  0.00    +0.180 C 
ATOM      6  C   LIG    1       -2.090   5.658   1.397  0.00  0.00    +0.040 C 
ATOM      7  O   LIG    1       -3.432   5.162   1.410  0.00  0.00    -0.340 OA
ATOM      8  C   LIG    1       -3.518   3.738   1.316  0.00  0.00    +0.370 C 
ATOM      9  O   LIG    1       -2.815   3.146   2.411  0.00  0.00    -0.380 OA
ATOM     10  C   LIG    1       -1.433   3.504   2.486  0.00  0.00    +0.170 C 
ENDROOT
BRANCH   6  11
ATOM     11  C   LIG    1       -2.104   7.157   1.551  0.00  0.00    +0.500 C 
ATOM     12  O   LIG    1       -3.156   7.741   1.745  0.00  0.00    -0.660 OA
ATOM     13  O   LIG    1       -1.062   7.787   1.480  0.00  0.00    -0.670 OA
ENDBRANCH   6  11
BRANCH   1  14
ATOM     14  C   LIG    1       -0.699   1.479   1.216  0.00  0.00    +0.310 C 
BRANCH  14  15
ATOM     15  N   LIG    1       -0.012   1.005   0.008  0.00  0.00    -0.630 N 
ATOM     16  H   LIG    1       -0.500   1.339  -0.810  0.00  0.00    +0.430 HD
ATOM     17  H   LIG    1        0.935   1.354   0.000  0.00  0.00    +0.440 HD
ATOM     18  H   LIG    1        0.002  -0.004   0.002  0.00  0.00    +0.440 HD
ENDBRANCH  14  15
ENDBRANCH   1  14
TORSDOF 3
ENDMDL
MODEL      733
REMARK  Name = ZINC000001591512
REMARK                            x       y       z     vdW  Elec       q    Type
REMARK                         _______ _______ _______ _____ _____    ______ ____
ROOT
ATOM      1  C   LIG    1        1.347  -2.620   2.206  0.00  0.00    +0.280 C 
ATOM      2  C   LIG    1        2.827  -2.726   1.918  0.00  0.00    +0.340 C 
ATOM      3  C   LIG    1        3.285  -3.579   0.756  0.00  0.00    +0.060 C 
ATOM      4  C   LIG    1        2.718  -4.993   0.934  0.00  0.00    +0.070 C 
ATOM      5  C   LIG    1        1.238  -4.887   1.221  0.00  0.00    +0.360 C 
ATOM      6  O   LIG    1        0.435  -5.473   0.535  0.00  0.00    -0.420 OA
ATOM      7  O   LIG    1        3.630  -2.141   2.605  0.00  0.00    -0.400 OA
ATOM      8  C   LIG    1        0.777  -4.033   2.386  0.00  0.00    -0.020 C 
ENDROOT
BRANCH   8   9
ATOM      9  C   LIG    1        1.279  -4.626   3.677  0.00  0.00    +0.530 C 
ATOM     10  O   LIG    1        2.007  -3.977   4.399  0.00  0.00    -0.510 OA
ATOM     11  N   LIG    1        0.920  -5.876   4.030  0.00  0.00    -0.850 N 
ATOM     12  H   LIG    1        1.243  -6.257   4.862  0.00  0.00    +0.410 HD
ATOM     13  H   LIG    1        0.338  -6.394   3.453  0.00  0.00    +0.410 HD
ENDBRANCH   8   9
BRANCH   1  15
ATOM     14  C   LIG    1        0.620  -0.613   1.032  0.00  0.00    +0.650 C 
ATOM     15  N   LIG    1        0.674  -1.958   1.085  0.00  0.00    -0.700 N 
ATOM     16  H   LIG    1        0.268  -2.488   0.382  0.00  0.00    +0.410 HD
ATOM     17  O   LIG    1        1.129   0.051   1.913  0.00  0.00    -0.550 OA
BRANCH  14  19
ATOM     18  C   LIG    1       -0.018   1.448   0.010  0.00  0.00    +0.300 C 
ATOM     19  O   LIG    1        0.002  -0.004   0.002  0.00  0.00    -0.370 OA
ENDBRANCH  14  19
ENDBRANCH   1  15
TORSDOF 3
ENDMDL
MODEL      734
REMARK  Name = ZINC000001591510
REMARK                            x       y       z     vdW  Elec       q    Type
REMARK                         _______ _______ _______ _____ _____    ______ ____
ROOT
ATOM      1  C   LIG    1        1.347  -2.620   2.206  0.00  0.00    +0.280 C 
ATOM      2  C   LIG    1        2.827  -2.726   1.918  0.00  0.00    +0.340 C 
ATOM      3  C   LIG    1        3.285  -3.579   0.756  0.00  0.00    +0.060 C 
ATOM      4  C   LIG    1        2.718  -4.993   0.934  0.00  0.00    +0.060 C 
ATOM      5  C   LIG    1        1.238  -4.887   1.221  0.00  0.00    +0.360 C 
ATOM      6  O   LIG    1        0.435  -5.473   0.535  0.00  0.00    -0.420 OA
ATOM      7  O   LIG    1        3.630  -2.141   2.605  0.00  0.00    -0.410 OA
ATOM      8  C   LIG    1        0.777  -4.033   2.386  0.00  0.00    -0.010 C 
ENDROOT
BRANCH   8   9
ATOM      9  C   LIG    1       -0.729  -3.981   2.410  0.00  0.00    +0.530 C 
ATOM     10  O   LIG    1       -1.300  -2.915   2.312  0.00  0.00    -0.520 OA
ATOM     11  N   LIG    1       -1.441  -5.118   2.540  0.00  0.00    -0.840 N 
ATOM     12  H   LIG    1       -2.410  -5.084   2.556  0.00  0.00    +0.410 HD
ATOM     13  H   LIG    1       -0.984  -5.970   2.619  0.00  0.00    +0.400 HD
ENDBRANCH   8   9
BRANCH   1  15
ATOM     14  C   LIG    1        0.620  -0.613   1.032  0.00  0.00    +0.660 C 
ATOM     15  N   LIG    1        0.674  -1.958   1.085  0.00  0.00    -0.690 N 
ATOM     16  H   LIG    1        0.268  -2.488   0.382  0.00  0.00    +0.410 HD
ATOM     17  O   LIG    1        1.129   0.051   1.913  0.00  0.00    -0.560 OA
BRANCH  14  19
ATOM     18  C   LIG    1       -0.018   1.448   0.010  0.00  0.00    +0.300 C 
ATOM     19  O   LIG    1        0.002  -0.004   0.002  0.00  0.00    -0.370 OA
ENDBRANCH  14  19
ENDBRANCH   1  15
TORSDOF 3
ENDMDL
MODEL      735
REMARK  Name = ZINC000001747207
REMARK                            x       y       z     vdW  Elec       q    Type
REMARK                         _______ _______ _______ _____ _____    ______ ____
ROOT
ATOM      1  C   LIG    1       -1.293  -0.775   0.010  0.00  0.00    +0.230 C 
ATOM      2  O   LIG    1       -1.015  -2.175   0.113  0.00  0.00    -0.350 OA
ATOM      3  C   LIG    1       -0.259  -2.693  -0.984  0.00  0.00    +0.430 C 
ATOM      4  O   LIG    1       -0.974  -2.470  -2.201  0.00  0.00    -0.370 OA
ATOM      5  C   LIG    1       -1.255  -1.093  -2.464  0.00  0.00    +0.110 C 
ATOM      6  C   LIG    1       -2.078  -0.981  -3.751  0.00  0.00    +0.180 C 
ATOM      7  O   LIG    1       -3.351  -1.602  -3.546  0.00  0.00    -0.370 OA
ATOM      8  C   LIG    1       -4.097  -1.041  -2.463  0.00  0.00    +0.410 C 
ATOM      9  O   LIG    1       -3.343  -1.161  -1.254  0.00  0.00    -0.370 OA
ATOM     10  C   LIG    1       -2.055  -0.510  -1.291  0.00  0.00    +0.130 C 
ENDROOT
BRANCH   1  14
ATOM     11  N   LIG    1       -0.016   1.344   0.009  0.00  0.00    -0.850 N 
ATOM     12  H   LIG    1       -0.863   1.817   0.016  0.00  0.00    +0.400 HD
ATOM     13  H   LIG    1        0.817   1.840   0.004  0.00  0.00    +0.410 HD
ATOM     14  C   LIG    1        0.002  -0.004   0.002  0.00  0.00    +0.500 C 
ATOM     15  O   LIG    1        1.060  -0.596  -0.011  0.00  0.00    -0.520 OA
ENDBRANCH   1  14
BRANCH   6  16
ATOM     16  C   LIG    1       -1.341  -1.683  -4.893  0.00  0.00    +0.220 C 
BRANCH  16  17
ATOM     17  O   LIG    1       -2.052  -1.478  -6.116  0.00  0.00    -0.570 OA
ATOM     18  H   LIG    1       -1.641  -1.897  -6.885  0.00  0.00    +0.380 HD
ENDBRANCH  16  17
ENDBRANCH   6  16
TORSDOF 3
ENDMDL
MODEL      736
REMARK  Name = ZINC000004403640
REMARK                            x       y       z     vdW  Elec       q    Type
REMARK                         _______ _______ _______ _____ _____    ______ ____
ROOT
ATOM      1  O   LIG    1        0.002  -0.004   0.002  0.00  0.00    -0.440 OA
ATOM      2  C   LIG    1       -0.014   1.204   0.009  0.00  0.00    +0.460 C 
ATOM      3  O   LIG    1       -1.121   1.960   0.029  0.00  0.00    -0.330 OA
ATOM      4  C   LIG    1       -0.802   3.296   0.519  0.00  0.00    +0.180 C 
ATOM      5  C   LIG    1        0.659   3.531   0.071  0.00  0.00    +0.190 C 
ATOM      6  C   LIG    1        1.212   2.091   0.002  0.00  0.00    +0.120 C 
ENDROOT
BRANCH   5   7
ATOM      7  O   LIG    1        0.703   4.166  -1.208  0.00  0.00    -0.510 OA
ATOM      8  H   LIG    1        1.598   4.336  -1.533  0.00  0.00    +0.380 HD
ENDBRANCH   5   7
BRANCH   6   9
ATOM      9  O   LIG    1        1.951   1.900  -1.206  0.00  0.00    -0.530 OA
ATOM     10  H   LIG    1        2.322   1.012  -1.304  0.00  0.00    +0.400 HD
ENDBRANCH   6   9
BRANCH   4  11
ATOM     11  C   LIG    1       -1.732   4.333  -0.113  0.00  0.00    +0.220 C 
BRANCH  11  12
ATOM     12  O   LIG    1       -1.516   4.368  -1.526  0.00  0.00    -0.520 OA
ATOM     13  H   LIG    1       -1.685   3.525  -1.970  0.00  0.00    +0.380 HD
ENDBRANCH  11  12
BRANCH  11  14
ATOM     14  C   LIG    1       -3.187   3.956   0.172  0.00  0.00    +0.180 C 
BRANCH  14  15
ATOM     15  O   LIG    1       -3.401   3.921   1.585  0.00  0.00    -0.540 OA
ATOM     16  H   LIG    1       -3.233   4.764   2.029  0.00  0.00    +0.370 HD
ENDBRANCH  14  15
BRANCH  14  17
ATOM     17  C   LIG    1       -4.116   4.993  -0.460  0.00  0.00    +0.170 C 
BRANCH  17  18
ATOM     18  O   LIG    1       -5.474   4.580  -0.294  0.00  0.00    -0.570 OA
ATOM     19  H   LIG    1       -6.120   5.192  -0.672  0.00  0.00    +0.380 HD
ENDBRANCH  17  18
ENDBRANCH  14  17
ENDBRANCH  11  14
ENDBRANCH   4  11
TORSDOF 8
ENDMDL
MODEL      737
REMARK  Name = ZINC000008078502
REMARK                            x       y       z     vdW  Elec       q    Type
REMARK                         _______ _______ _______ _____ _____    ______ ____
ROOT
ATOM      1  N   LIG    1        2.125  -0.091  -1.209  0.00  0.00    -0.690 N 
ATOM      2  H   LIG    1        2.795  -0.703  -0.868  0.00  0.00    +0.420 HD
ATOM      3  C   LIG    1        2.487   1.134  -1.640  0.00  0.00    +0.510 C 
ATOM      4  O   LIG    1        1.649   1.900  -2.066  0.00  0.00    -0.510 OA
ENDROOT
BRANCH   3   5
ATOM      5  C   LIG    1        3.922   1.548  -1.591  0.00  0.00    +0.510 C 
ATOM      6  N   LIG    1        4.285   2.773  -2.022  0.00  0.00    -0.690 N 
ATOM      7  H   LIG    1        3.614   3.385  -2.363  0.00  0.00    +0.420 HD
ATOM      8  O   LIG    1        4.761   0.782  -1.165  0.00  0.00    -0.520 OA
BRANCH   6   9
ATOM      9  C   LIG    1        5.692   3.179  -1.974  0.00  0.00    +0.290 C 
BRANCH   9  10
ATOM     10  C   LIG    1        5.830   4.603  -2.516  0.00  0.00    +0.180 C 
BRANCH  10  11
ATOM     11  O   LIG    1        5.144   5.511  -1.651  0.00  0.00    -0.390 OA
ATOM     12  C   LIG    1        5.212   6.876  -2.069  0.00  0.00    +0.200 C 
ENDBRANCH  10  11
ENDBRANCH   9  10
ENDBRANCH   6   9
ENDBRANCH   3   5
BRANCH   1  13
ATOM     13  CA  LIG    1        0.718  -0.497  -1.257  0.00  0.00    +0.240 C 
BRANCH  13  15
ATOM     14  C   LIG    1       -0.019   1.526   0.010  0.00  0.00    +0.010 C 
ATOM     15  C   LIG    1        0.002  -0.004   0.002  0.00  0.00    +0.010 C 
ENDBRANCH  13  15
BRANCH  13  16
ATOM     16  C   LIG    1        0.630  -2.023  -1.329  0.00  0.00    +0.200 C 
BRANCH  16  17
ATOM     17  O   LIG    1        1.146  -2.587  -0.121  0.00  0.00    -0.570 OA
ATOM     18  H   LIG    1        1.122  -3.554  -0.097  0.00  0.00    +0.390 HD
ENDBRANCH  16  17
ENDBRANCH  13  16
ENDBRANCH   1  13
TORSDOF 8
ENDMDL
MODEL      738
REMARK  Name = ZINC000000032893
REMARK                            x       y       z     vdW  Elec       q    Type
REMARK                         _______ _______ _______ _____ _____    ______ ____
ROOT
ATOM      1  C   LIG    1       -0.018   1.503   0.010  0.00  0.00    +0.210 C 
ATOM      2  C   LIG    1        0.002  -0.004   0.002  0.00  0.00    +0.330 A 
ATOM      3  N   LIG    1        0.005  -0.644  -1.156  0.00  0.00    -0.300 NA
ATOM      4  N   LIG    1        0.023  -1.933  -1.222  0.00  0.00    -0.070 NA
ATOM      5  C   LIG    1        0.038  -2.645  -0.106  0.00  0.00    -0.080 A 
ATOM      6  C   LIG    1        0.059  -4.120  -0.109  0.00  0.00    +0.580 A 
ATOM      7  N   LIG    1        0.074  -4.758   1.083  0.00  0.00    -0.560 N 
ATOM      8  C   LIG    1        0.071  -4.075   2.238  0.00  0.00    +0.710 A 
ATOM      9  N   LIG    1        0.052  -2.732   2.292  0.00  0.00    -0.520 N 
ATOM     10  C   LIG    1        0.050  -2.059   3.594  0.00  0.00    +0.370 C 
ATOM     11  O   LIG    1        0.085  -4.699   3.281  0.00  0.00    -0.510 OA
ATOM     12  C   LIG    1        0.096  -6.223   1.114  0.00  0.00    +0.370 C 
ATOM     13  O   LIG    1        0.064  -4.744  -1.152  0.00  0.00    -0.440 OA
ATOM     14  C   LIG    1        0.035  -1.982   1.137  0.00  0.00    +0.420 A 
ATOM     15  N   LIG    1        0.022  -0.655   1.151  0.00  0.00    -0.500 NA
ENDROOT
TORSDOF 0
ENDMDL
MODEL      739
REMARK  Name = ZINC000408721424
REMARK                            x       y       z     vdW  Elec       q    Type
REMARK                         _______ _______ _______ _____ _____    ______ ____
ROOT
ATOM      1  N   LIG    1        0.053  -3.248   1.416  0.00  0.00    -0.420 N 
ENDROOT
BRANCH   1   6
ATOM      2  C   LIG    1       -0.018   1.461   0.010  0.00  0.00    +0.450 C 
ATOM      3  N   LIG    1        0.002  -0.004   0.002  0.00  0.00    -0.190 N 
ATOM      4  N   LIG    1        0.008  -0.765  -1.039  0.00  0.00    +0.030 NA
ATOM      5  N   LIG    1        0.027  -1.997  -0.673  0.00  0.00    -0.310 NA
ATOM      6  C   LIG    1        0.034  -2.076   0.658  0.00  0.00    +0.410 A 
ATOM      7  N   LIG    1        0.024  -0.845   1.127  0.00  0.00    -0.270 NA
ENDBRANCH   1   6
BRANCH   1   8
ATOM      8  N   LIG    1        0.059  -3.177   2.816  0.00  0.00    +0.200 N 
ATOM      9  O   LIG    1        0.076  -4.200   3.477  0.00  0.00    -0.140 OA
ATOM     10  O   LIG    1        0.046  -2.093   3.371  0.00  0.00    -0.120 OA
ENDBRANCH   1   8
BRANCH   1  11
ATOM     11  C   LIG    1        0.068  -4.552   0.749  0.00  0.00    +0.420 C 
BRANCH  11  12
ATOM     12  C   LIG    1        1.515  -4.986   0.510  0.00  0.00    +0.220 C 
BRANCH  12  13
ATOM     13  O   LIG    1        2.163  -5.197   1.766  0.00  0.00    -0.220 OA
BRANCH  13  14
ATOM     14  N   LIG    1        3.515  -5.604   1.656  0.00  0.00    +0.120 N 
ATOM     15  O   LIG    1        4.171  -5.815   2.660  0.00  0.00    -0.060 OA
ATOM     16  O   LIG    1        4.021  -5.744   0.557  0.00  0.00    -0.130 OA
ENDBRANCH  13  14
ENDBRANCH  12  13
ENDBRANCH  11  12
ENDBRANCH   1  11
TORSDOF 6
ENDMDL
MODEL      740
REMARK  Name = ZINC000001555630
REMARK                            x       y       z     vdW  Elec       q    Type
REMARK                         _______ _______ _______ _____ _____    ______ ____
ROOT
ATOM      1  C   LIG    1       -0.018   1.503   0.010  0.00  0.00    +0.130 C 
ATOM      2  C   LIG    1        0.002  -0.004   0.002  0.00  0.00    -0.250 A 
ATOM      3  C   LIG    1       -1.153  -0.704   0.004  0.00  0.00    +0.330 A 
ATOM      4  N   LIG    1       -1.116  -2.072  -0.004  0.00  0.00    -0.530 N 
ATOM      5  C   LIG    1        0.060  -2.726  -0.013  0.00  0.00    +0.700 A 
ATOM      6  N   LIG    1        1.226  -2.053  -0.016  0.00  0.00    -0.660 N 
ATOM      7  H   LIG    1        2.064  -2.540  -0.023  0.00  0.00    +0.430 HD
ATOM      8  O   LIG    1        0.069  -3.942  -0.020  0.00  0.00    -0.530 OA
ATOM      9  C   LIG    1        1.232  -0.705  -0.013  0.00  0.00    +0.550 A 
ATOM     10  O   LIG    1        2.287  -0.095  -0.016  0.00  0.00    -0.500 OA
ENDROOT
BRANCH   4  11
ATOM     11  C   LIG    1       -2.369  -2.831  -0.002  0.00  0.00    +0.310 C 
BRANCH  11  12
ATOM     12  C   LIG    1       -2.812  -3.088  -1.444  0.00  0.00    +0.060 C 
BRANCH  12  13
ATOM     13  CA  LIG    1       -4.120  -3.881  -1.442  0.00  0.00    +0.090 C 
BRANCH  13  14
ATOM     14  N   LIG    1       -5.187  -3.065  -0.847  0.00  0.00    -0.620 N 
ATOM     15  H1  LIG    1       -5.306  -2.221  -1.388  0.00  0.00    +0.430 HD
ATOM     16  H2  LIG    1       -4.938  -2.825   0.101  0.00  0.00    +0.410 HD
ATOM     17  H3  LIG    1       -6.050  -3.588  -0.846  0.00  0.00    +0.440 HD
ENDBRANCH  13  14
BRANCH  13  18
ATOM     18  C   LIG    1       -4.492  -4.240  -2.858  0.00  0.00    +0.490 C 
ATOM     19  OXT LIG    1       -5.451  -3.707  -3.389  0.00  0.00    -0.670 OA
ATOM     20  O   LIG    1       -3.834  -5.062  -3.471  0.00  0.00    -0.630 OA
ENDBRANCH  13  18
ENDBRANCH  12  13
ENDBRANCH  11  12
ENDBRANCH   4  11
TORSDOF 5
ENDMDL
MODEL      741
REMARK  Name = ZINC000001584127
REMARK                            x       y       z     vdW  Elec       q    Type
REMARK                         _______ _______ _______ _____ _____    ______ ____
ROOT
ATOM      1  C   LIG    1        0.746  -1.888  -1.280  0.00  0.00    +0.410 C 
ATOM      2  N   LIG    1       -0.566  -2.409  -1.640  0.00  0.00    -0.720 N 
ATOM      3  H   LIG    1       -1.238  -2.494  -0.945  0.00  0.00    +0.410 HD
ATOM      4  C   LIG    1       -0.884  -2.775  -2.885  0.00  0.00    +0.540 C 
ATOM      5  C   LIG    1        0.082  -2.683  -4.028  0.00  0.00    +0.410 C 
ATOM      6  N   LIG    1        1.457  -2.611  -3.554  0.00  0.00    -0.720 N 
ATOM      7  H   LIG    1        2.173  -2.834  -4.169  0.00  0.00    +0.410 HD
ATOM      8  O   LIG    1       -2.000  -3.198  -3.100  0.00  0.00    -0.500 OA
ATOM      9  C   LIG    1        1.775  -2.250  -2.308  0.00  0.00    +0.540 C 
ATOM     10  O   LIG    1        2.946  -2.214  -1.994  0.00  0.00    -0.500 OA
ENDROOT
BRANCH   1  11
ATOM     11  O   LIG    1        0.671  -0.465  -1.174  0.00  0.00    -0.370 OA
BRANCH  11  13
ATOM     12  C   LIG    1       -0.019   1.526   0.010  0.00  0.00    +0.070 C 
ATOM     13  C   LIG    1        0.002  -0.004   0.002  0.00  0.00    +0.170 C 
ENDBRANCH  11  13
ENDBRANCH   1  11
BRANCH   5  14
ATOM     14  O   LIG    1       -0.210  -1.513  -4.795  0.00  0.00    -0.370 OA
BRANCH  14  15
ATOM     15  C   LIG    1        0.409  -1.493  -6.083  0.00  0.00    +0.170 C 
ATOM     16  C   LIG    1        0.029  -0.202  -6.811  0.00  0.00    +0.070 C 
ENDBRANCH  14  15
ENDBRANCH   5  14
TORSDOF 4
ENDMDL
MODEL      742
REMARK  Name = ZINC000001591020
REMARK                            x       y       z     vdW  Elec       q    Type
REMARK                         _______ _______ _______ _____ _____    ______ ____
ROOT
ATOM      1  C   LIG    1        0.002  -0.004   0.002  0.00  0.00    +0.540 A 
ATOM      2  C   LIG    1       -1.199  -0.741   0.004  0.00  0.00    -0.170 A 
ATOM      3  N   LIG    1       -2.502  -0.410   0.012  0.00  0.00    -0.180 NA
ATOM      4  N   LIG    1       -3.229  -1.472   0.010  0.00  0.00    -0.010 NA
ATOM      5  N   LIG    1       -2.399  -2.604  -0.000  0.00  0.00    -0.370 N 
ATOM      6  C   LIG    1       -1.112  -2.145  -0.004  0.00  0.00    +0.350 A 
ATOM      7  N   LIG    1        0.088  -2.719  -0.013  0.00  0.00    -0.560 NA
ATOM      8  C   LIG    1        1.182  -1.988  -0.014  0.00  0.00    +0.610 A 
ATOM      9  N   LIG    1        1.152  -0.668  -0.013  0.00  0.00    -0.600 NA
ENDROOT
BRANCH   1  10
ATOM     10  N   LIG    1       -0.017   1.378   0.010  0.00  0.00    -0.800 N 
ATOM     11  H   LIG    1       -0.863   1.851   0.016  0.00  0.00    +0.420 HD
ATOM     12  H   LIG    1        0.817   1.874   0.004  0.00  0.00    +0.420 HD
ENDBRANCH   1  10
BRANCH   5  13
ATOM     13  C   LIG    1       -2.829  -4.004  -0.007  0.00  0.00    +0.330 C 
BRANCH  13  14
ATOM     14  C   LIG    1       -2.986  -4.483  -1.451  0.00  0.00    +0.200 C 
BRANCH  14  15
ATOM     15  O   LIG    1       -1.711  -4.476  -2.096  0.00  0.00    -0.540 OA
ATOM     16  H   LIG    1       -1.054  -5.048  -1.676  0.00  0.00    +0.380 HD
ENDBRANCH  14  15
BRANCH  14  17
ATOM     17  C   LIG    1       -3.553  -5.904  -1.459  0.00  0.00    +0.170 C 
BRANCH  17  18
ATOM     18  O   LIG    1       -3.809  -6.308  -2.806  0.00  0.00    -0.560 OA
ATOM     19  H   LIG    1       -4.171  -7.201  -2.887  0.00  0.00    +0.380 HD
ENDBRANCH  17  18
ENDBRANCH  14  17
ENDBRANCH  13  14
ENDBRANCH   5  13
TORSDOF 6
ENDMDL
MODEL      743
REMARK  Name = ZINC000096306692
REMARK                            x       y       z     vdW  Elec       q    Type
REMARK                         _______ _______ _______ _____ _____    ______ ____
ROOT
ATOM      1  C   LIG    1       -0.019   1.526   0.010  0.00  0.00    +0.090 C 
ATOM      2  C   LIG    1        0.002  -0.004   0.002  0.00  0.00    +0.100 C 
ATOM      3  C   LIG    1       -1.439  -0.534   0.010  0.00  0.00    +0.330 C 
ATOM      4  N   LIG    1       -1.390  -1.972   0.293  0.00  0.00    -0.440 N 
ATOM      5  C   LIG    1       -0.288  -2.579   0.837  0.00  0.00    +0.550 A 
ATOM      6  N   LIG    1        0.846  -1.859   1.161  0.00  0.00    -0.550 N 
ATOM      7  H   LIG    1        1.689  -2.296   1.357  0.00  0.00    +0.440 HD
ATOM      8  N   LIG    1       -0.519  -3.864   0.974  0.00  0.00    -0.520 NA
ATOM      9  C   LIG    1       -1.740  -4.145   0.547  0.00  0.00    +0.350 A 
ATOM     10  N   LIG    1       -2.452  -5.335   0.482  0.00  0.00    -0.510 N 
ATOM     11  C   LIG    1       -1.868  -6.599   0.936  0.00  0.00    +0.350 C 
ATOM     12  C   LIG    1       -3.708  -5.278  -0.018  0.00  0.00    +0.710 A 
ATOM     13  O   LIG    1       -4.351  -6.308  -0.085  0.00  0.00    -0.540 OA
ATOM     14  N   LIG    1       -4.278  -4.141  -0.444  0.00  0.00    -0.650 N 
ATOM     15  H   LIG    1       -5.184  -4.176  -0.791  0.00  0.00    +0.440 HD
ATOM     16  C   LIG    1       -3.639  -2.946  -0.408  0.00  0.00    +0.600 A 
ATOM     17  O   LIG    1       -4.173  -1.923  -0.800  0.00  0.00    -0.520 OA
ATOM     18  C   LIG    1       -2.327  -2.949   0.104  0.00  0.00    -0.170 A 
ATOM     19  N   LIG    1        0.716  -0.490   1.192  0.00  0.00    -0.430 NA
ATOM     20  H   LIG    1        1.617  -0.043   1.279  0.00  0.00    +0.370 HD
ENDROOT
TORSDOF 0
ENDMDL
MODEL      744
REMARK  Name = ZINC000086038873
REMARK                            x       y       z     vdW  Elec       q    Type
REMARK                         _______ _______ _______ _____ _____    ______ ____
ROOT
ATOM      1  C   LIG    1        0.051  -2.753   2.437  0.00  0.00    +0.260 C 
ENDROOT
BRANCH   1   7
ATOM      2  C   LIG    1       -0.018   1.503   0.010  0.00  0.00    +0.140 C 
ATOM      3  C   LIG    1        0.002  -0.004   0.002  0.00  0.00    +0.080 A 
ATOM      4  C   LIG    1        0.006  -0.689  -1.200  0.00  0.00    +0.220 A 
ATOM      5  N   LIG    1        0.024  -2.011  -1.207  0.00  0.00    -0.430 NA
ATOM      6  C   LIG    1        0.038  -2.677  -0.067  0.00  0.00    +0.230 A 
ATOM      7  C   LIG    1        0.034  -1.992   1.136  0.00  0.00    +0.050 A 
ATOM      8  N   LIG    1        0.022  -0.671   1.143  0.00  0.00    -0.430 NA
ENDBRANCH   1   7
BRANCH   1   9
ATOM      9  O   LIG    1       -0.525  -1.947   3.467  0.00  0.00    -0.520 OA
ATOM     10  H   LIG    1       -0.061  -1.112   3.618  0.00  0.00    +0.380 HD
ENDBRANCH   1   9
BRANCH   1  11
ATOM     11  C   LIG    1        1.494  -3.099   2.807  0.00  0.00    +0.160 C 
BRANCH  11  12
ATOM     12  O   LIG    1        2.070  -3.905   1.776  0.00  0.00    -0.550 OA
ATOM     13  H   LIG    1        1.606  -4.740   1.625  0.00  0.00    +0.380 HD
ENDBRANCH  11  12
BRANCH  11  14
ATOM     14  C   LIG    1        1.511  -3.871   4.127  0.00  0.00    +0.200 C 
BRANCH  14  15
ATOM     15  O   LIG    1        0.936  -3.065   5.157  0.00  0.00    -0.530 OA
ATOM     16  H   LIG    1        1.399  -2.230   5.309  0.00  0.00    +0.370 HD
ENDBRANCH  14  15
BRANCH  14  17
ATOM     17  C   LIG    1        2.955  -4.217   4.497  0.00  0.00    +0.160 C 
BRANCH  17  18
ATOM     18  O   LIG    1        2.963  -5.037   5.668  0.00  0.00    -0.560 OA
ATOM     19  H   LIG    1        3.848  -5.296   5.961  0.00  0.00    +0.380 HD
ENDBRANCH  17  18
ENDBRANCH  14  17
ENDBRANCH  11  14
ENDBRANCH   1  11
TORSDOF 8
ENDMDL
MODEL      745
REMARK  Name = ZINC000004403265
REMARK                            x       y       z     vdW  Elec       q    Type
REMARK                         _______ _______ _______ _____ _____    ______ ____
ROOT
ATOM      1  C   LIG    1        0.002  -0.004   0.002  0.00  0.00    +0.260 C 
ENDROOT
BRANCH   1   2
ATOM      2  C   LIG    1        0.742  -0.511   1.242  0.00  0.00    +0.140 C 
ATOM      3  O   LIG    1        2.114  -0.110   1.178  0.00  0.00    -0.350 OA
ATOM      4  C   LIG    1        2.881  -0.496   2.321  0.00  0.00    +0.390 C 
ATOM      5  O   LIG    1        2.303   0.075   3.497  0.00  0.00    -0.390 OA
ATOM      6  C   LIG    1        0.944  -0.314   3.719  0.00  0.00    +0.180 C 
ATOM      7  C   LIG    1        0.105   0.088   2.500  0.00  0.00    +0.120 C 
BRANCH   7   8
ATOM      8  O   LIG    1        0.073   1.512   2.389  0.00  0.00    -0.520 OA
ATOM      9  H   LIG    1       -0.310   1.958   3.157  0.00  0.00    +0.370 HD
ENDBRANCH   7   8
ENDBRANCH   1   2
BRANCH   1  10
ATOM     10  C   LIG    1        0.718  -0.497  -1.257  0.00  0.00    +0.130 C 
ATOM     11  O   LIG    1        2.091  -0.097  -1.215  0.00  0.00    -0.350 OA
ATOM     12  C   LIG    1        2.836  -0.471  -2.376  0.00  0.00    +0.400 C 
ATOM     13  O   LIG    1        2.236   0.113  -3.535  0.00  0.00    -0.390 OA
ATOM     14  C   LIG    1        0.873  -0.274  -3.735  0.00  0.00    +0.190 C 
ATOM     15  C   LIG    1        0.057   0.115  -2.497  0.00  0.00    +0.140 C 
BRANCH  15  16
ATOM     16  O   LIG    1       -1.277  -0.380  -2.628  0.00  0.00    -0.560 OA
ATOM     17  H   LIG    1       -1.750  -0.037  -3.399  0.00  0.00    +0.390 HD
ENDBRANCH  15  16
ENDBRANCH   1  10
BRANCH   1  18
ATOM     18  O   LIG    1       -0.017   1.425   0.010  0.00  0.00    -0.530 OA
ATOM     19  H   LIG    1        0.861   1.830   0.004  0.00  0.00    +0.390 HD
ENDBRANCH   1  18
TORSDOF 5
ENDMDL
MODEL      746
REMARK  Name = ZINC000001611164
REMARK                            x       y       z     vdW  Elec       q    Type
REMARK                         _______ _______ _______ _____ _____    ______ ____
ROOT
ATOM      1  C   LIG    1       -0.720   2.985   1.224  0.00  0.00    +0.490 C 
ATOM      2  N   LIG    1       -0.920   3.650   2.380  0.00  0.00    -0.690 N 
ATOM      3  H   LIG    1       -1.052   3.159   3.205  0.00  0.00    +0.410 HD
ATOM      4  O   LIG    1       -0.555   3.600   0.192  0.00  0.00    -0.520 OA
ENDROOT
BRANCH   1   5
ATOM      5  CA  LIG    1       -0.699   1.479   1.216  0.00  0.00    +0.180 C 
BRANCH   5   6
ATOM      6  N   LIG    1       -0.012   1.005   0.008  0.00  0.00    -0.620 N 
ATOM      7  H1  LIG    1       -0.500   1.339  -0.810  0.00  0.00    +0.440 HD
ATOM      8  H2  LIG    1        0.935   1.354   0.000  0.00  0.00    +0.440 HD
ATOM      9  H3  LIG    1        0.002  -0.004   0.002  0.00  0.00    +0.450 HD
ENDBRANCH   5   6
BRANCH   5  10
ATOM     10  C   LIG    1       -2.135   0.949   1.227  0.00  0.00    +0.240 C 
BRANCH  10  11
ATOM     11  O   LIG    1       -2.116  -0.476   1.337  0.00  0.00    -0.580 OA
ATOM     12  H   LIG    1       -2.994  -0.881   1.349  0.00  0.00    +0.410 HD
ENDBRANCH  10  11
ENDBRANCH   5  10
ENDBRANCH   1   5
BRANCH   2  13
ATOM     13  C   LIG    1       -0.940   5.115   2.388  0.00  0.00    +0.320 C 
BRANCH  13  14
ATOM     14  C   LIG    1       -1.184   5.614   3.813  0.00  0.00    -0.480 C 
BRANCH  14  15
ATOM     15  S   LIG    1       -1.209   7.428   3.823  0.00  0.00    +2.640 S 
ATOM     16  O   LIG    1       -2.278   7.887   2.951  0.00  0.00    -1.050 OA
ATOM     17  O   LIG    1        0.074   7.917   3.343  0.00  0.00    -1.050 OA
ATOM     18  O   LIG    1       -1.441   7.886   5.184  0.00  0.00    -1.050 OA
ENDBRANCH  14  15
ENDBRANCH  13  14
ENDBRANCH   2  13
TORSDOF 7
ENDMDL
MODEL      747
REMARK  Name = ZINC000001631665
REMARK                            x       y       z     vdW  Elec       q    Type
REMARK                         _______ _______ _______ _____ _____    ______ ____
ROOT
ATOM      1  O   LIG    1        0.002  -0.004   0.002  0.00  0.00    -0.540 OA
ATOM      2  C   LIG    1       -0.014   1.212   0.009  0.00  0.00    +0.700 A 
ATOM      3  N   LIG    1       -1.194   1.859   0.029  0.00  0.00    -0.640 N 
ATOM      4  H   LIG    1       -2.020   1.351   0.037  0.00  0.00    +0.440 HD
ATOM      5  C   LIG    1       -1.238   3.226   0.037  0.00  0.00    +0.390 A 
ATOM      6  C   LIG    1       -0.088   3.933   0.025  0.00  0.00    -0.280 A 
ATOM      7  C   LIG    1        1.146   3.239   0.004  0.00  0.00    +0.560 A 
ATOM      8  O   LIG    1        2.197   3.855  -0.008  0.00  0.00    -0.510 OA
ATOM      9  N   LIG    1        1.147   1.891   0.001  0.00  0.00    -0.660 N 
ATOM     10  H   LIG    1        1.989   1.409  -0.013  0.00  0.00    +0.430 HD
ENDROOT
BRANCH   6  11
ATOM     11  C   LIG    1       -0.117   5.440   0.035  0.00  0.00    +0.280 C 
BRANCH  11  12
ATOM     12  O   LIG    1       -1.473   5.890   0.057  0.00  0.00    -0.390 OA
BRANCH  12  13
ATOM     13  C   LIG    1       -1.613   7.312   0.067  0.00  0.00    +0.190 C 
BRANCH  13  14
ATOM     14  C   LIG    1       -3.099   7.678   0.091  0.00  0.00    +0.040 C 
BRANCH  14  15
ATOM     15  C   LIG    1       -3.249   9.200   0.102  0.00  0.00    +0.180 C 
BRANCH  15  16
ATOM     16  O   LIG    1       -4.636   9.542   0.124  0.00  0.00    -0.570 OA
ATOM     17  H   LIG    1       -4.807  10.494   0.132  0.00  0.00    +0.380 HD
ENDBRANCH  15  16
ENDBRANCH  14  15
ENDBRANCH  13  14
ENDBRANCH  12  13
ENDBRANCH  11  12
ENDBRANCH   6  11
TORSDOF 6
ENDMDL
MODEL      748
REMARK  Name = ZINC000017140166
REMARK                            x       y       z     vdW  Elec       q    Type
REMARK                         _______ _______ _______ _____ _____    ______ ____
ROOT
ATOM      1  C   LIG    1       -1.056  -2.140   0.001  0.00  0.00    +0.450 C 
ATOM      2  N   LIG    1       -0.636  -2.598   1.318  0.00  0.00    -0.710 N 
ATOM      3  H   LIG    1        0.303  -2.536   1.554  0.00  0.00    +0.430 HD
ATOM      4  C   LIG    1       -1.488  -3.101   2.216  0.00  0.00    +0.530 C 
ATOM      5  C   LIG    1       -2.957  -3.240   1.950  0.00  0.00    +0.440 C 
ATOM      6  N   LIG    1       -3.240  -3.215   0.521  0.00  0.00    -0.710 N 
ATOM      7  H   LIG    1       -4.085  -3.575   0.209  0.00  0.00    +0.420 HD
ATOM      8  O   LIG    1       -1.056  -3.459   3.292  0.00  0.00    -0.480 OA
ATOM      9  C   LIG    1       -2.386  -2.717  -0.377  0.00  0.00    +0.540 C 
ATOM     10  O   LIG    1       -2.700  -2.733  -1.548  0.00  0.00    -0.490 OA
ENDROOT
BRANCH   1  11
ATOM     11  O   LIG    1       -1.151  -0.691   0.009  0.00  0.00    -0.360 OA
BRANCH  11  13
ATOM     12  C   LIG    1       -0.018   1.503   0.010  0.00  0.00    +0.170 C 
ATOM     13  C   LIG    1        0.002  -0.004   0.002  0.00  0.00    +0.470 C 
ATOM     14  O   LIG    1        1.056  -0.594  -0.011  0.00  0.00    -0.500 OA
ENDBRANCH  11  13
ENDBRANCH   1  11
BRANCH   5  15
ATOM     15  O   LIG    1       -3.423  -4.499   2.503  0.00  0.00    -0.340 OA
BRANCH  15  16
ATOM     16  C   LIG    1       -4.751  -4.695   2.538  0.00  0.00    +0.470 C 
ATOM     17  O   LIG    1       -5.498  -3.843   2.120  0.00  0.00    -0.500 OA
ATOM     18  C   LIG    1       -5.308  -5.978   3.099  0.00  0.00    +0.170 C 
ENDBRANCH  15  16
ENDBRANCH   5  15
TORSDOF 4
ENDMDL
MODEL      749
REMARK  Name = ZINC000013581968
REMARK                            x       y       z     vdW  Elec       q    Type
REMARK                         _______ _______ _______ _____ _____    ______ ____
ROOT
ATOM      1  C   LIG    1       -0.018   1.503   0.010  0.00  0.00    +0.200 C 
ATOM      2  C   LIG    1        0.002  -0.004   0.002  0.00  0.00    +0.360 A 
ATOM      3  C   LIG    1       -1.156  -0.698   0.004  0.00  0.00    -0.870 A 
ATOM      4  C   LIG    1       -1.111  -2.113  -0.005  0.00  0.00    +0.590 A 
ATOM      5  N   LIG    1        0.084  -2.737  -0.014  0.00  0.00    -0.650 N 
ATOM      6  H   LIG    1        0.123  -3.706  -0.020  0.00  0.00    +0.440 HD
ATOM      7  C   LIG    1        1.224  -2.020  -0.016  0.00  0.00    +0.700 A 
ATOM      8  O   LIG    1        2.294  -2.597  -0.024  0.00  0.00    -0.520 OA
ATOM      9  O   LIG    1       -2.142  -2.761  -0.004  0.00  0.00    -0.490 OA
ATOM     10  N   LIG    1        1.194  -0.675  -0.013  0.00  0.00    -0.630 N 
ATOM     11  H   LIG    1        2.026  -0.177  -0.014  0.00  0.00    +0.440 HD
ENDROOT
BRANCH   3  12
ATOM     12  S   LIG    1       -2.703   0.146   0.016  0.00  0.00    +2.740 S 
ATOM     13  O   LIG    1       -2.403   1.532   0.106  0.00  0.00    -0.960 OA
ATOM     14  O   LIG    1       -3.524  -0.534   0.955  0.00  0.00    -0.940 OA
BRANCH  12  15
ATOM     15  N   LIG    1       -3.399  -0.086  -1.469  0.00  0.00    -1.250 NA
ATOM     16  H   LIG    1       -4.266   0.304  -1.664  0.00  0.00    +0.420 HD
ATOM     17  H   LIG    1       -2.941  -0.612  -2.143  0.00  0.00    +0.420 HD
ENDBRANCH  12  15
ENDBRANCH   3  12
TORSDOF 2
ENDMDL
MODEL      750
REMARK  Name = ZINC000001665477
REMARK                            x       y       z     vdW  Elec       q    Type
REMARK                         _______ _______ _______ _____ _____    ______ ____
ROOT
ATOM      1  C   LIG    1        2.457   1.002  -0.016  0.00  0.00    +0.070 C 
ENDROOT
BRANCH   1   2
ATOM      2  C   LIG    1        1.280   1.980   0.001  0.00  0.00    +0.050 C 
BRANCH   2   4
ATOM      3  O   LIG    1        0.002  -0.004   0.002  0.00  0.00    -0.540 OA
ATOM      4  C   LIG    1       -0.014   1.209   0.009  0.00  0.00    +0.510 C 
ATOM      5  N   LIG    1       -1.191   1.867   0.018  0.00  0.00    -0.730 N 
ATOM      6  H   LIG    1       -1.204   2.837   0.023  0.00  0.00    +0.400 HD
BRANCH   5   7
ATOM      7  C   LIG    1       -2.449   1.117   0.020  0.00  0.00    +0.280 C 
BRANCH   7   8
ATOM      8  C   LIG    1       -3.626   2.095   0.031  0.00  0.00    +0.170 C 
BRANCH   8   9
ATOM      9  O   LIG    1       -3.633   2.844  -1.186  0.00  0.00    -0.570 OA
ATOM     10  H   LIG    1       -4.354   3.486  -1.249  0.00  0.00    +0.380 HD
ENDBRANCH   8   9
ENDBRANCH   7   8
ENDBRANCH   5   7
ENDBRANCH   2   4
ENDBRANCH   1   2
BRANCH   1  11
ATOM     11  C   LIG    1        3.771   1.784  -0.024  0.00  0.00    +0.050 C 
BRANCH  11  12
ATOM     12  C   LIG    1        4.930   0.821  -0.041  0.00  0.00    +0.510 C 
ATOM     13  N   LIG    1        6.194   1.287  -0.050  0.00  0.00    -0.730 N 
ATOM     14  H   LIG    1        6.358   2.243  -0.047  0.00  0.00    +0.400 HD
ATOM     15  O   LIG    1        4.724  -0.374  -0.045  0.00  0.00    -0.540 OA
BRANCH  13  16
ATOM     16  C   LIG    1        7.320   0.351  -0.066  0.00  0.00    +0.280 C 
BRANCH  16  17
ATOM     17  C   LIG    1        8.635   1.134  -0.074  0.00  0.00    +0.170 C 
BRANCH  17  18
ATOM     18  O   LIG    1        8.764   1.860   1.149  0.00  0.00    -0.570 OA
ATOM     19  H   LIG    1        9.577   2.381   1.214  0.00  0.00    +0.380 HD
ENDBRANCH  17  18
ENDBRANCH  16  17
ENDBRANCH  13  16
ENDBRANCH  11  12
ENDBRANCH   1  11
TORSDOF 10
ENDMDL
MODEL      751
REMARK  Name = ZINC000169269125
REMARK                            x       y       z     vdW  Elec       q    Type
REMARK                         _______ _______ _______ _____ _____    ______ ____
ROOT
ATOM      1  O   LIG    1        0.002  -0.004   0.002  0.00  0.00    -0.540 OA
ATOM      2  C   LIG    1       -0.014   1.211   0.009  0.00  0.00    +0.690 C 
ATOM      3  N   LIG    1       -1.200   1.828   0.029  0.00  0.00    -0.730 N 
ATOM      4  H   LIG    1       -2.008   1.295  -0.035  0.00  0.00    +0.420 HD
ATOM      5  C   LIG    1       -1.320   3.285   0.143  0.00  0.00    +0.260 C 
ATOM      6  C   LIG    1       -0.048   3.933  -0.421  0.00  0.00    +0.050 C 
ATOM      7  C   LIG    1        1.158   3.283   0.265  0.00  0.00    +0.140 C 
ATOM      8  C   LIG    1        1.085   3.510   1.772  0.00  0.00    +0.190 C 
ATOM      9  C   LIG    1       -0.220   2.948   2.336  0.00  0.00    +0.100 C 
ATOM     10  C   LIG    1       -1.416   3.630   1.639  0.00  0.00    +0.150 C 
ATOM     11  O   LIG    1        1.157   1.862   0.001  0.00  0.00    -0.320 OA
ENDROOT
BRANCH   9  12
ATOM     12  O   LIG    1       -0.259   1.535   2.127  0.00  0.00    -0.530 OA
ATOM     13  H   LIG    1       -1.061   1.110   2.462  0.00  0.00    +0.390 HD
ENDBRANCH   9  12
BRANCH   8  14
ATOM     14  O   LIG    1        1.149   4.911   2.041  0.00  0.00    -0.550 OA
ATOM     15  H   LIG    1        1.108   5.133   2.981  0.00  0.00    +0.390 HD
ENDBRANCH   8  14
BRANCH  10  16
ATOM     16  O   LIG    1       -2.640   3.117   2.169  0.00  0.00    -0.560 OA
ATOM     17  H   LIG    1       -2.747   3.259   3.120  0.00  0.00    +0.380 HD
ENDBRANCH  10  16
BRANCH   7  18
ATOM     18  C   LIG    1        2.445   3.909  -0.277  0.00  0.00    +0.230 C 
BRANCH  18  19
ATOM     19  O   LIG    1        3.573   3.306   0.360  0.00  0.00    -0.560 OA
ATOM     20  H   LIG    1        4.425   3.655   0.064  0.00  0.00    +0.390 HD
ENDBRANCH  18  19
ENDBRANCH   7  18
TORSDOF 5
ENDMDL
MODEL      752
REMARK  Name = ZINC000096532908
REMARK                            x       y       z     vdW  Elec       q    Type
REMARK                         _______ _______ _______ _____ _____    ______ ____
ROOT
ATOM      1  O   LIG    1        0.169  -0.051  -0.125  0.00  0.00    -0.930 OA
ATOM      2  S   LIG    1        0.121   1.369  -0.116  0.00  0.00    +2.360 S 
ATOM      3  C   LIG    1       -0.378   1.958   1.558  0.00  0.00    -0.280 C 
ATOM      4  C   LIG    1        0.784   2.835   1.964  0.00  0.00    -0.020 C 
ATOM      5  C   LIG    1        1.580   2.820   3.236  0.00  0.00    +0.050 C 
ATOM      6  C   LIG    1        2.742   3.150   2.237  0.00  0.00    +0.020 C 
ATOM      7  C   LIG    1        2.058   2.067   1.460  0.00  0.00    +0.000 C 
ATOM      8  O   LIG    1       -0.623   2.062  -1.108  0.00  0.00    -0.930 OA
ATOM      9  C   LIG    1        1.839   2.044  -0.049  0.00  0.00    -0.280 C 
ENDROOT
BRANCH   6  10
ATOM     10  C   LIG    1        2.678   4.553   1.631  0.00  0.00    +0.200 C 
BRANCH  10  11
ATOM     11  O   LIG    1        3.864   4.801   0.875  0.00  0.00    -0.570 OA
ATOM     12  H   LIG    1        3.892   5.674   0.461  0.00  0.00    +0.380 HD
ENDBRANCH  10  11
ENDBRANCH   6  10
BRANCH   5  13
ATOM     13  C   LIG    1        1.240   3.949   4.212  0.00  0.00    +0.180 C 
BRANCH  13  14
ATOM     14  O   LIG    1        1.972   3.766   5.425  0.00  0.00    -0.570 OA
ATOM     15  H   LIG    1        1.805   4.447   6.091  0.00  0.00    +0.380 HD
ENDBRANCH  13  14
ENDBRANCH   5  13
TORSDOF 4
ENDMDL
MODEL      753
REMARK  Name = ZINC000409076721
REMARK                            x       y       z     vdW  Elec       q    Type
REMARK                         _______ _______ _______ _____ _____    ______ ____
ROOT
ATOM      1  C   LIG    1        3.963   0.676   1.389  0.00  0.00    +0.130 A 
ATOM      2  N   LIG    1        4.223   1.726   2.129  0.00  0.00    -0.260 NA
ATOM      3  N   LIG    1        4.644   1.309   3.274  0.00  0.00    -0.140 N 
ATOM      4  N   LIG    1        4.657   0.021   3.275  0.00  0.00    -0.030 NA
ATOM      5  N   LIG    1        4.237  -0.398   2.129  0.00  0.00    -0.250 NA
ENDROOT
BRANCH   1   6
ATOM      6  C   LIG    1        3.447   0.683  -0.027  0.00  0.00    +0.540 C 
BRANCH   6   9
ATOM      7  C   LIG    1       -0.016   1.329   0.009  0.00  0.00    +0.390 A 
ATOM      8  N   LIG    1        1.232   1.727  -0.000  0.00  0.00    -0.300 NA
ATOM      9  N   LIG    1        1.983   0.679  -0.013  0.00  0.00    -0.150 N 
ATOM     10  N   LIG    1        1.238  -0.372  -0.012  0.00  0.00    -0.040 NA
ATOM     11  N   LIG    1        0.002  -0.004   0.002  0.00  0.00    -0.280 NA
ENDBRANCH   6   9
ENDBRANCH   1   6
BRANCH   3  12
ATOM     12  C   LIG    1        5.044   2.163   4.395  0.00  0.00    +0.550 C 
BRANCH  12  13
ATOM     13  C   LIG    1        3.846   2.443   5.266  0.00  0.00    +0.130 A 
ATOM     14  N   LIG    1        3.005   3.440   5.139  0.00  0.00    -0.260 NA
ATOM     15  N   LIG    1        2.121   3.334   6.070  0.00  0.00    -0.220 N 
ATOM     16  H   LIG    1        1.377   3.940   6.212  0.00  0.00    +0.480 HD
ATOM     17  N   LIG    1        2.382   2.293   6.783  0.00  0.00    -0.040 NA
ATOM     18  N   LIG    1        3.436   1.720   6.308  0.00  0.00    -0.250 NA
ENDBRANCH  12  13
ENDBRANCH   3  12
TORSDOF 4
ENDMDL
MODEL      754
REMARK  Name = ZINC000001701507
REMARK                            x       y       z     vdW  Elec       q    Type
REMARK                         _______ _______ _______ _____ _____    ______ ____
ROOT
ATOM      1  O   LIG    1        0.012   0.062  -0.803  0.00  0.00    -0.540 OA
ATOM      2  C   LIG    1       -0.011   1.262  -0.605  0.00  0.00    +0.700 A 
ATOM      3  N   LIG    1       -0.579   2.072  -1.516  0.00  0.00    -0.630 N 
ATOM      4  H   LIG    1       -0.964   1.694  -2.322  0.00  0.00    +0.440 HD
ATOM      5  C   LIG    1       -0.618   3.431  -1.316  0.00  0.00    +0.320 A 
ATOM      6  C   LIG    1       -0.080   3.956  -0.191  0.00  0.00    +0.000 A 
ATOM      7  C   LIG    1        0.515   3.084   0.760  0.00  0.00    +0.540 A 
ATOM      8  O   LIG    1        1.006   3.532   1.781  0.00  0.00    -0.500 OA
ATOM      9  N   LIG    1        0.527   1.757   0.525  0.00  0.00    -0.660 N 
ATOM     10  H   LIG    1        0.931   1.156   1.170  0.00  0.00    +0.430 HD
ENDROOT
BRANCH   6  11
ATOM     11  N   LIG    1       -0.111   5.344   0.034  0.00  0.00    -0.620 N 
BRANCH  11  12
ATOM     12  C   LIG    1       -1.395   6.036   0.171  0.00  0.00    +0.280 C 
BRANCH  12  13
ATOM     13  C   LIG    1       -1.813   6.047   1.642  0.00  0.00    +0.190 C 
ATOM     14  F   LIG    1       -3.040   6.708   1.773  0.00  0.00    -0.220 F 
ENDBRANCH  12  13
ENDBRANCH  11  12
BRANCH  11  15
ATOM     15  C   LIG    1        1.142   6.098   0.131  0.00  0.00    +0.310 C 
BRANCH  15  16
ATOM     16  C   LIG    1        1.618   6.479  -1.272  0.00  0.00    +0.150 C 
BRANCH  16  17
ATOM     17  O   LIG    1        0.680   7.379  -1.865  0.00  0.00    -0.570 OA
ATOM     18  H   LIG    1        0.918   7.663  -2.759  0.00  0.00    +0.380 HD
ENDBRANCH  16  17
ENDBRANCH  15  16
ENDBRANCH  11  15
ENDBRANCH   6  11
TORSDOF 6
ENDMDL
MODEL      755
REMARK  Name = ZINC000001715857
REMARK                            x       y       z     vdW  Elec       q    Type
REMARK                         _______ _______ _______ _____ _____    ______ ____
ROOT
ATOM      1  C   LIG    1        0.002  -0.004   0.002  0.00  0.00    +0.440 A 
ATOM      2  C   LIG    1       -1.185  -0.718   0.004  0.00  0.00    -0.240 A 
ATOM      3  C   LIG    1       -1.122  -2.118  -0.004  0.00  0.00    +0.530 A 
ATOM      4  N   LIG    1        0.089  -2.713  -0.013  0.00  0.00    -0.530 N 
ATOM      5  C   LIG    1        1.213  -1.968  -0.014  0.00  0.00    +0.620 A 
ATOM      6  O   LIG    1       -2.143  -2.786  -0.003  0.00  0.00    -0.500 OA
ATOM      7  N   LIG    1        1.171  -0.664  -0.013  0.00  0.00    -0.570 NA
ENDROOT
BRANCH   4   8
ATOM      8  C1* LIG    1        0.183  -4.175  -0.022  0.00  0.00    +0.390 C 
ATOM      9  C2* LIG    1        0.888  -4.668  -1.311  0.00  0.00    +0.000 C 
ATOM     10  C3* LIG    1        0.340  -6.109  -1.449  0.00  0.00    +0.170 C 
ATOM     11  C4* LIG    1       -0.955  -6.102  -0.614  0.00  0.00    +0.170 C 
ATOM     12  O4* LIG    1       -1.130  -4.768  -0.104  0.00  0.00    -0.310 OA
BRANCH  10  13
ATOM     13  O3* LIG    1        0.054  -6.407  -2.817  0.00  0.00    -0.550 OA
ATOM     14  H3* LIG    1        0.827  -6.369  -3.397  0.00  0.00    +0.390 HD
ENDBRANCH  10  13
BRANCH  11  15
ATOM     15  C5* LIG    1       -2.145  -6.488  -1.496  0.00  0.00    +0.210 C 
BRANCH  15  16
ATOM     16  O5* LIG    1       -3.321  -6.592  -0.690  0.00  0.00    -0.570 OA
ATOM     17  H5* LIG    1       -4.116  -6.834  -1.184  0.00  0.00    +0.380 HD
ENDBRANCH  15  16
ENDBRANCH  11  15
ENDBRANCH   4   8
BRANCH   1  18
ATOM     18  N   LIG    1       -0.017   1.376   0.010  0.00  0.00    -0.830 N 
ATOM     19  H   LIG    1       -0.863   1.849   0.016  0.00  0.00    +0.420 HD
ATOM     20  H   LIG    1        0.817   1.872   0.004  0.00  0.00    +0.410 HD
ENDBRANCH   1  18
TORSDOF 5
ENDMDL
MODEL      756
REMARK  Name = ZINC000001713388
REMARK                            x       y       z     vdW  Elec       q    Type
REMARK                         _______ _______ _______ _____ _____    ______ ____
ROOT
ATOM      1  C   LIG    1       -0.018   1.461   0.010  0.00  0.00    +0.340 C 
ATOM      2  N   LIG    1        0.002  -0.004   0.002  0.00  0.00    -0.520 N 
ATOM      3  C   LIG    1       -1.182  -0.696   0.004  0.00  0.00    +0.300 A 
ATOM      4  C   LIG    1       -1.152  -2.096  -0.004  0.00  0.00    -0.090 A 
ATOM      5  C   LIG    1        0.159  -2.761  -0.015  0.00  0.00    +0.600 A 
ATOM      6  N   LIG    1        1.269  -1.991  -0.017  0.00  0.00    -0.550 N 
ATOM      7  C   LIG    1        2.588  -2.627  -0.029  0.00  0.00    +0.350 C 
ATOM      8  O   LIG    1        0.243  -3.974  -0.023  0.00  0.00    -0.470 OA
ATOM      9  N   LIG    1       -2.413  -2.531   0.000  0.00  0.00    -0.330 NA
ATOM     10  C   LIG    1       -3.226  -1.497   0.011  0.00  0.00    +0.110 A 
ATOM     11  N   LIG    1       -2.482  -0.338   0.013  0.00  0.00    -0.530 N 
ATOM     12  H   LIG    1       -2.828   0.568   0.021  0.00  0.00    +0.440 HD
ATOM     13  C   LIG    1        1.180  -0.651  -0.013  0.00  0.00    +0.720 A 
ATOM     14  O   LIG    1        2.206   0.003  -0.015  0.00  0.00    -0.520 OA
ENDROOT
BRANCH  10  15
ATOM     15  C   LIG    1       -4.690  -1.567   0.019  0.00  0.00    +0.560 C 
ATOM     16  O   LIG    1       -5.246  -2.646   0.016  0.00  0.00    -0.410 OA
ENDBRANCH  10  15
TORSDOF 1
ENDMDL
MODEL      757
REMARK  Name = ZINC000001723335
REMARK                            x       y       z     vdW  Elec       q    Type
REMARK                         _______ _______ _______ _____ _____    ______ ____
ROOT
ATOM      1  N   LIG    1       -1.413  -1.998   0.005  0.00  0.00    -0.690 N 
ATOM      2  H   LIG    1       -0.567  -2.472  -0.006  0.00  0.00    +0.420 HD
ATOM      3  C   LIG    1       -2.571  -2.688   0.012  0.00  0.00    +0.510 C 
ATOM      4  O   LIG    1       -3.630  -2.096   0.025  0.00  0.00    -0.520 OA
ENDROOT
BRANCH   3   5
ATOM      5  C   LIG    1       -2.551  -4.183   0.004  0.00  0.00    +0.510 C 
ATOM      6  N   LIG    1       -3.709  -4.872   0.011  0.00  0.00    -0.690 N 
ATOM      7  H   LIG    1       -4.556  -4.399   0.022  0.00  0.00    +0.420 HD
ATOM      8  O   LIG    1       -1.492  -4.775  -0.009  0.00  0.00    -0.520 OA
BRANCH   6   9
ATOM      9  C   LIG    1       -3.689  -6.337   0.003  0.00  0.00    +0.290 C 
BRANCH   9  10
ATOM     10  C   LIG    1       -5.125  -6.867   0.014  0.00  0.00    +0.160 C 
ATOM     11  C   LIG    1       -5.104  -8.396   0.006  0.00  0.00    +0.020 C 
BRANCH  10  12
ATOM     12  O   LIG    1       -5.793  -6.406   1.190  0.00  0.00    -0.560 OA
ATOM     13  H   LIG    1       -6.710  -6.704   1.263  0.00  0.00    +0.380 HD
ENDBRANCH  10  12
ENDBRANCH   9  10
ENDBRANCH   6   9
ENDBRANCH   3   5
BRANCH   1  14
ATOM     14  C   LIG    1       -1.433  -0.534   0.013  0.00  0.00    +0.240 C 
BRANCH  14  16
ATOM     15  C   LIG    1       -0.019   1.526   0.010  0.00  0.00    +0.020 C 
ATOM     16  C   LIG    1        0.002  -0.004   0.002  0.00  0.00    +0.200 C 
BRANCH  16  17
ATOM     17  O   LIG    1        0.693  -0.477   1.160  0.00  0.00    -0.560 OA
ATOM     18  H   LIG    1        0.294  -0.202   1.996  0.00  0.00    +0.380 HD
ENDBRANCH  16  17
ENDBRANCH  14  16
ENDBRANCH   1  14
TORSDOF 7
ENDMDL
MODEL      758
REMARK  Name = ZINC000016890000
REMARK                            x       y       z     vdW  Elec       q    Type
REMARK                         _______ _______ _______ _____ _____    ______ ____
ROOT
ATOM      1  O   LIG    1        0.002  -0.004   0.002  0.00  0.00    -0.400 OA
ATOM      2  C   LIG    1       -0.014   1.203   0.009  0.00  0.00    +0.370 C 
ATOM      3  C   LIG    1       -1.249   2.086   0.032  0.00  0.00    -0.030 C 
ATOM      4  C   LIG    1       -0.756   3.424   0.637  0.00  0.00    +0.020 C 
ATOM      5  C   LIG    1        0.659   3.564   0.021  0.00  0.00    +0.030 C 
ATOM      6  C   LIG    1        1.193   2.117   0.002  0.00  0.00    -0.030 C 
ENDROOT
BRANCH   5   7
ATOM      7  C   LIG    1        0.574   4.134  -1.396  0.00  0.00    +0.190 C 
BRANCH   7   8
ATOM      8  O   LIG    1        1.893   4.363  -1.897  0.00  0.00    -0.570 OA
ATOM      9  H   LIG    1        1.915   4.725  -2.794  0.00  0.00    +0.380 HD
ENDBRANCH   7   8
ENDBRANCH   5   7
BRANCH   4  10
ATOM     10  C   LIG    1       -1.659   4.582   0.207  0.00  0.00    +0.190 C 
BRANCH  10  11
ATOM     11  O   LIG    1       -2.956   4.413   0.782  0.00  0.00    -0.570 OA
ATOM     12  H   LIG    1       -3.583   5.113   0.551  0.00  0.00    +0.380 HD
ENDBRANCH  10  11
ENDBRANCH   4  10
BRANCH   3  13
ATOM     13  C   LIG    1       -2.334   1.465   0.914  0.00  0.00    +0.200 C 
BRANCH  13  14
ATOM     14  O   LIG    1       -2.797   0.252   0.317  0.00  0.00    -0.570 OA
ATOM     15  H   LIG    1       -3.487  -0.197   0.824  0.00  0.00    +0.380 HD
ENDBRANCH  13  14
ENDBRANCH   3  13
BRANCH   6  16
ATOM     16  C   LIG    1        2.059   1.863   1.238  0.00  0.00    +0.200 C 
BRANCH  16  17
ATOM     17  O   LIG    1        2.642   0.561   1.152  0.00  0.00    -0.560 OA
ATOM     18  H   LIG    1        3.205   0.332   1.903  0.00  0.00    +0.380 HD
ENDBRANCH  16  17
ENDBRANCH   6  16
TORSDOF 8
ENDMDL
MODEL      759
REMARK  Name = ZINC000079006914
REMARK                            x       y       z     vdW  Elec       q    Type
REMARK                         _______ _______ _______ _____ _____    ______ ____
ROOT
ATOM      1  O   LIG    1        0.002  -0.004   0.002  0.00  0.00    -0.470 OA
ATOM      2  C   LIG    1       -0.014   1.214   0.009  0.00  0.00    +0.540 A 
ATOM      3  C   LIG    1       -1.248   1.912   0.030  0.00  0.00    -0.070 A 
ATOM      4  C   LIG    1       -1.237   3.263   0.037  0.00  0.00    +0.320 A 
ATOM      5  N   LIG    1       -0.041   3.932   0.023  0.00  0.00    -0.520 N 
ATOM      6  C   LIG    1        1.122   3.256   0.003  0.00  0.00    +0.690 A 
ATOM      7  O   LIG    1        2.172   3.869  -0.009  0.00  0.00    -0.510 OA
ATOM      8  F   LIG    1       -2.417   1.236   0.044  0.00  0.00    -0.100 F 
ATOM      9  N   LIG    1        1.140   1.910   0.001  0.00  0.00    -0.540 N 
ENDROOT
BRANCH   5  10
ATOM     10  C   LIG    1       -0.029   5.397   0.032  0.00  0.00    +0.330 C 
BRANCH  10  11
ATOM     11  C   LIG    1       -0.003   5.899   1.477  0.00  0.00    +0.180 C 
BRANCH  11  12
ATOM     12  O   LIG    1        1.224   5.507   2.095  0.00  0.00    -0.560 OA
ATOM     13  H   LIG    1        1.309   5.792   3.015  0.00  0.00    +0.380 HD
ENDBRANCH  11  12
ENDBRANCH  10  11
ENDBRANCH   5  10
BRANCH   9  14
ATOM     14  C   LIG    1        2.421   1.198  -0.020  0.00  0.00    +0.340 C 
BRANCH  14  15
ATOM     15  C   LIG    1        2.890   0.949   1.414  0.00  0.00    +0.180 C 
BRANCH  15  16
ATOM     16  O   LIG    1        1.977   0.065   2.067  0.00  0.00    -0.560 OA
ATOM     17  H   LIG    1        2.213  -0.138   2.983  0.00  0.00    +0.380 HD
ENDBRANCH  15  16
ENDBRANCH  14  15
ENDBRANCH   9  14
TORSDOF 6
ENDMDL
MODEL      760
REMARK  Name = ZINC000012358680
REMARK                            x       y       z     vdW  Elec       q    Type
REMARK                         _______ _______ _______ _____ _____    ______ ____
ROOT
ATOM      1  C   LIG    1       -0.019   1.526   0.010  0.00  0.00    +0.040 C 
ATOM      2  C   LIG    1        0.002  -0.004   0.002  0.00  0.00    +0.100 C 
ATOM      3  C   LIG    1       -1.423  -0.541  -0.100  0.00  0.00    +0.320 C 
ATOM      4  O   LIG    1       -2.102  -0.339   1.142  0.00  0.00    -0.380 OA
ATOM      5  C   LIG    1       -1.530  -1.109   2.202  0.00  0.00    +0.150 C 
ATOM      6  C   LIG    1       -0.115  -0.613   2.487  0.00  0.00    +0.130 C 
ATOM      7  C   LIG    1       -0.173   0.750   3.181  0.00  0.00    +0.040 C 
ATOM      8  C   LIG    1        0.732  -0.547   1.223  0.00  0.00    +0.170 C 
ATOM      9  C   LIG    1        1.960   0.339   1.498  0.00  0.00    +0.040 C 
ENDROOT
BRANCH   6  10
ATOM     10  O   LIG    1        0.507  -1.542   3.397  0.00  0.00    -0.540 OA
ATOM     11  H   LIG    1        0.046  -1.632   4.243  0.00  0.00    +0.370 HD
ENDBRANCH   6  10
BRANCH   3  12
ATOM     12  O   LIG    1       -2.123   0.148  -1.139  0.00  0.00    -0.540 OA
ATOM     13  H   LIG    1       -3.037  -0.144  -1.259  0.00  0.00    +0.390 HD
ENDBRANCH   3  12
BRANCH   2  14
ATOM     14  O   LIG    1        0.720  -0.425  -1.175  0.00  0.00    -0.560 OA
ATOM     15  H   LIG    1        0.326  -0.125  -2.005  0.00  0.00    +0.390 HD
ENDBRANCH   2  14
BRANCH   8  16
ATOM     16  O   LIG    1        1.208  -1.871   0.921  0.00  0.00    -0.540 OA
ATOM     17  H   LIG    1        1.758  -1.919   0.128  0.00  0.00    +0.380 HD
ENDBRANCH   8  16
BRANCH   5  18
ATOM     18  C   LIG    1       -2.390  -0.960   3.459  0.00  0.00    +0.200 C 
BRANCH  18  19
ATOM     19  O   LIG    1       -3.678  -1.535   3.226  0.00  0.00    -0.560 OA
ATOM     20  H   LIG    1       -4.278  -1.476   3.982  0.00  0.00    +0.380 HD
ENDBRANCH  18  19
ENDBRANCH   5  18
TORSDOF 6
ENDMDL
MODEL      761
REMARK  Name = ZINC000043509377
REMARK                            x       y       z     vdW  Elec       q    Type
REMARK                         _______ _______ _______ _____ _____    ______ ____
ROOT
ATOM      1  C   LIG    1        0.338   1.549  -0.149  0.00  0.00    +0.060 C 
ATOM      2  C   LIG    1        0.350   0.019  -0.174  0.00  0.00    +0.090 C 
ATOM      3  C   LIG    1       -1.068  -0.499  -0.425  0.00  0.00    +0.330 C 
ATOM      4  O   LIG    1       -1.920  -0.092   0.648  0.00  0.00    -0.370 OA
ATOM      5  C   LIG    1       -1.530  -0.598   1.926  0.00  0.00    +0.160 C 
ATOM      6  C   LIG    1       -0.130  -0.083   2.272  0.00  0.00    +0.120 C 
ATOM      7  C   LIG    1        0.315  -0.672   3.612  0.00  0.00    +0.030 C 
ATOM      8  C   LIG    1        0.848  -0.511   1.174  0.00  0.00    +0.170 C 
ATOM      9  C   LIG    1        0.927  -2.038   1.126  0.00  0.00    +0.050 C 
ENDROOT
BRANCH   6  10
ATOM     10  O   LIG    1       -0.155   1.343   2.362  0.00  0.00    -0.530 OA
ATOM     11  H   LIG    1       -0.758   1.685   3.036  0.00  0.00    +0.370 HD
ENDBRANCH   6  10
BRANCH   3  12
ATOM     12  O   LIG    1       -1.047  -1.926  -0.502  0.00  0.00    -0.560 OA
ATOM     13  H   LIG    1       -1.914  -2.324  -0.660  0.00  0.00    +0.380 HD
ENDBRANCH   3  12
BRANCH   2  14
ATOM     14  O   LIG    1        1.217  -0.434  -1.216  0.00  0.00    -0.550 OA
ATOM     15  H   LIG    1        0.960  -0.137  -2.099  0.00  0.00    +0.380 HD
ENDBRANCH   2  14
BRANCH   8  16
ATOM     16  O   LIG    1        2.143   0.027   1.451  0.00  0.00    -0.540 OA
ATOM     17  H   LIG    1        2.814  -0.205   0.794  0.00  0.00    +0.380 HD
ENDBRANCH   8  16
BRANCH   5  18
ATOM     18  C   LIG    1       -2.525  -0.123   2.987  0.00  0.00    +0.210 C 
BRANCH  18  19
ATOM     19  O   LIG    1       -3.807  -0.698   2.729  0.00  0.00    -0.560 OA
ATOM     20  H   LIG    1       -4.489  -0.440   3.364  0.00  0.00    +0.380 HD
ENDBRANCH  18  19
ENDBRANCH   5  18
TORSDOF 6
ENDMDL
MODEL      762
REMARK  Name = ZINC000012358836
REMARK                            x       y       z     vdW  Elec       q    Type
REMARK                         _______ _______ _______ _____ _____    ______ ____
ROOT
ATOM      1  C   LIG    1       -0.019   1.526   0.010  0.00  0.00    +0.040 C 
ATOM      2  C   LIG    1        0.002  -0.004   0.002  0.00  0.00    +0.090 C 
ATOM      3  C   LIG    1       -1.426  -0.536   0.146  0.00  0.00    +0.330 C 
ATOM      4  O   LIG    1       -1.964  -0.118   1.403  0.00  0.00    -0.380 OA
ATOM      5  C   LIG    1       -1.241  -0.602   2.537  0.00  0.00    +0.160 C 
ATOM      6  C   LIG    1        0.195  -0.073   2.488  0.00  0.00    +0.120 C 
ATOM      7  C   LIG    1        0.989  -0.639   3.667  0.00  0.00    +0.030 C 
ATOM      8  C   LIG    1        0.848  -0.511   1.174  0.00  0.00    +0.170 C 
ATOM      9  C   LIG    1        2.257   0.079   1.081  0.00  0.00    +0.040 C 
ENDROOT
BRANCH   6  10
ATOM     10  O   LIG    1        0.181   1.354   2.563  0.00  0.00    -0.540 OA
ATOM     11  H   LIG    1       -0.224   1.702   3.370  0.00  0.00    +0.380 HD
ENDBRANCH   6  10
BRANCH   3  12
ATOM     12  O   LIG    1       -1.412  -1.964   0.085  0.00  0.00    -0.550 OA
ATOM     13  H   LIG    1       -2.285  -2.370   0.170  0.00  0.00    +0.380 HD
ENDBRANCH   3  12
BRANCH   2  14
ATOM     14  O   LIG    1        0.563  -0.467  -1.228  0.00  0.00    -0.550 OA
ATOM     15  H   LIG    1        0.076  -0.185  -2.014  0.00  0.00    +0.380 HD
ENDBRANCH   2  14
BRANCH   8  16
ATOM     16  O   LIG    1        0.922  -1.937   1.129  0.00  0.00    -0.540 OA
ATOM     17  H   LIG    1        1.325  -2.285   0.322  0.00  0.00    +0.390 HD
ENDBRANCH   8  16
BRANCH   5  18
ATOM     18  C   LIG    1       -1.920  -0.118   3.819  0.00  0.00    +0.200 C 
BRANCH  18  19
ATOM     19  O   LIG    1       -3.219  -0.705   3.921  0.00  0.00    -0.560 OA
ATOM     20  H   LIG    1       -3.709  -0.442   4.712  0.00  0.00    +0.380 HD
ENDBRANCH  18  19
ENDBRANCH   5  18
TORSDOF 6
ENDMDL
MODEL      763
REMARK  Name = ZINC000005386406
REMARK                            x       y       z     vdW  Elec       q    Type
REMARK                         _______ _______ _______ _____ _____    ______ ____
ROOT
ATOM      1  C   LIG    1       -0.019   1.526   0.010  0.00  0.00    +0.080 C 
ATOM      2  C   LIG    1        0.002  -0.004   0.002  0.00  0.00    +0.350 C 
ATOM      3  N   LIG    1       -1.358  -0.536   0.133  0.00  0.00    -0.700 N 
ATOM      4  H   LIG    1       -2.083  -0.381  -0.493  0.00  0.00    +0.440 HD
ATOM      5  C   LIG    1       -1.448  -1.288   1.282  0.00  0.00    +0.650 A 
ATOM      6  N   LIG    1       -2.513  -1.929   1.742  0.00  0.00    -0.580 NA
ATOM      7  C   LIG    1       -2.480  -2.631   2.877  0.00  0.00    +0.320 A 
ATOM      8  C   LIG    1       -1.292  -2.702   3.613  0.00  0.00    -0.140 A 
ATOM      9  C   LIG    1       -0.158  -2.018   3.120  0.00  0.00    +0.610 A 
ATOM     10  O   LIG    1        0.900  -2.049   3.726  0.00  0.00    -0.510 OA
ATOM     11  N   LIG    1       -1.537  -3.468   4.703  0.00  0.00    -0.420 NA
ATOM     12  C   LIG    1       -2.777  -3.863   4.681  0.00  0.00    +0.450 A 
ATOM     13  N   LIG    1       -3.399  -3.371   3.571  0.00  0.00    -0.560 N 
ATOM     14  H   LIG    1       -4.324  -3.518   3.320  0.00  0.00    +0.430 HD
ATOM     15  N   LIG    1       -0.270  -1.326   1.962  0.00  0.00    -0.580 N 
ATOM     16  C   LIG    1        0.742  -0.538   1.240  0.00  0.00    +0.440 C 
ENDROOT
BRANCH   2  17
ATOM     17  O   LIG    1        0.617  -0.487  -1.194  0.00  0.00    -0.520 OA
ATOM     18  H   LIG    1        0.175  -0.203  -2.006  0.00  0.00    +0.390 HD
ENDBRANCH   2  17
BRANCH  16  19
ATOM     19  O   LIG    1        1.836  -1.370   0.850  0.00  0.00    -0.530 OA
ATOM     20  H   LIG    1        2.306  -1.776   1.591  0.00  0.00    +0.400 HD
ENDBRANCH  16  19
TORSDOF 2
ENDMDL
MODEL      764
REMARK  Name = ZINC000004164431
REMARK                            x       y       z     vdW  Elec       q    Type
REMARK                         _______ _______ _______ _____ _____    ______ ____
ROOT
ATOM      1  C   LIG    1       -0.019   1.526   0.010  0.00  0.00    +0.020 C 
ATOM      2  C   LIG    1        0.002  -0.004   0.002  0.00  0.00    +0.150 C 
ATOM      3  O   LIG    1        0.708  -0.477  -1.157  0.00  0.00    -0.310 OA
ATOM      4  C   LIG    1        2.084  -0.670  -0.764  0.00  0.00    +0.430 C 
ATOM      5  C   LIG    1        1.971  -1.284   0.655  0.00  0.00    +0.160 C 
ATOM      6  C   LIG    1        0.752  -0.525   1.243  0.00  0.00    +0.140 C 
ENDROOT
BRANCH   4   7
ATOM      7  N   LIG    1        2.757  -1.596  -1.678  0.00  0.00    -0.510 N 
ATOM      8  C   LIG    1        4.065  -1.939  -1.454  0.00  0.00    +0.340 A 
ATOM      9  C   LIG    1        4.685  -2.793  -2.298  0.00  0.00    -0.070 A 
ATOM     10  C   LIG    1        3.965  -3.317  -3.400  0.00  0.00    +0.540 A 
ATOM     11  N   LIG    1        2.679  -2.954  -3.584  0.00  0.00    -0.650 N 
ATOM     12  H   LIG    1        2.180  -3.308  -4.336  0.00  0.00    +0.440 HD
ATOM     13  O   LIG    1        4.502  -4.089  -4.174  0.00  0.00    -0.490 OA
ATOM     14  F   LIG    1        5.974  -3.143  -2.093  0.00  0.00    -0.100 F 
ATOM     15  C   LIG    1        2.084  -2.105  -2.725  0.00  0.00    +0.690 A 
ATOM     16  O   LIG    1        0.924  -1.787  -2.905  0.00  0.00    -0.490 OA
ENDBRANCH   4   7
BRANCH   5  17
ATOM     17  O   LIG    1        1.711  -2.687   0.585  0.00  0.00    -0.530 OA
ATOM     18  H   LIG    1        1.632  -3.116   1.447  0.00  0.00    +0.390 HD
ENDBRANCH   5  17
BRANCH   6  19
ATOM     19  O   LIG    1       -0.073  -1.414   1.998  0.00  0.00    -0.550 OA
ATOM     20  H   LIG    1       -0.851  -0.992   2.389  0.00  0.00    +0.390 HD
ENDBRANCH   6  19
TORSDOF 3
ENDMDL
MODEL      765
REMARK  Name = ZINC000005386408
REMARK                            x       y       z     vdW  Elec       q    Type
REMARK                         _______ _______ _______ _____ _____    ______ ____
ROOT
ATOM      1  C   LIG    1       -0.019   1.526   0.010  0.00  0.00    +0.070 C 
ATOM      2  C   LIG    1        0.002  -0.004   0.002  0.00  0.00    +0.350 C 
ATOM      3  N   LIG    1       -1.358  -0.536   0.133  0.00  0.00    -0.700 N 
ATOM      4  H   LIG    1       -2.083  -0.381  -0.493  0.00  0.00    +0.440 HD
ATOM      5  C   LIG    1       -1.448  -1.288   1.282  0.00  0.00    +0.650 A 
ATOM      6  N   LIG    1       -2.513  -1.929   1.742  0.00  0.00    -0.580 NA
ATOM      7  C   LIG    1       -2.480  -2.631   2.877  0.00  0.00    +0.320 A 
ATOM      8  C   LIG    1       -1.292  -2.702   3.613  0.00  0.00    -0.140 A 
ATOM      9  C   LIG    1       -0.158  -2.018   3.120  0.00  0.00    +0.610 A 
ATOM     10  O   LIG    1        0.900  -2.049   3.726  0.00  0.00    -0.510 OA
ATOM     11  N   LIG    1       -1.537  -3.468   4.703  0.00  0.00    -0.420 NA
ATOM     12  C   LIG    1       -2.777  -3.863   4.681  0.00  0.00    +0.450 A 
ATOM     13  N   LIG    1       -3.399  -3.371   3.571  0.00  0.00    -0.560 N 
ATOM     14  H   LIG    1       -4.324  -3.518   3.320  0.00  0.00    +0.430 HD
ATOM     15  N   LIG    1       -0.270  -1.326   1.962  0.00  0.00    -0.570 N 
ATOM     16  C   LIG    1        0.742  -0.538   1.240  0.00  0.00    +0.440 C 
ENDROOT
BRANCH   2  17
ATOM     17  O   LIG    1        0.617  -0.487  -1.194  0.00  0.00    -0.540 OA
ATOM     18  H   LIG    1        0.175  -0.203  -2.006  0.00  0.00    +0.400 HD
ENDBRANCH   2  17
BRANCH  16  19
ATOM     19  O   LIG    1        1.205   0.542   2.052  0.00  0.00    -0.540 OA
ATOM     20  H   LIG    1        1.633   0.262   2.873  0.00  0.00    +0.410 HD
ENDBRANCH  16  19
TORSDOF 2
ENDMDL
MODEL      766
REMARK  Name = ZINC000043509374
REMARK                            x       y       z     vdW  Elec       q    Type
REMARK                         _______ _______ _______ _____ _____    ______ ____
ROOT
ATOM      1  C   LIG    1        0.239   1.606   0.128  0.00  0.00    +0.050 C 
ATOM      2  C   LIG    1        0.166   0.079   0.062  0.00  0.00    +0.090 C 
ATOM      3  C   LIG    1       -1.300  -0.361   0.022  0.00  0.00    +0.310 C 
ATOM      4  O   LIG    1       -1.367  -1.789   0.019  0.00  0.00    -0.380 OA
ATOM      5  C   LIG    1       -0.796  -2.402   1.177  0.00  0.00    +0.160 C 
ATOM      6  C   LIG    1        0.690  -2.043   1.264  0.00  0.00    +0.130 C 
ATOM      7  C   LIG    1        1.421  -2.597   0.039  0.00  0.00    +0.050 C 
ATOM      8  C   LIG    1        0.837  -0.519   1.302  0.00  0.00    +0.160 C 
ATOM      9  C   LIG    1        2.322  -0.149   1.309  0.00  0.00    +0.050 C 
ENDROOT
BRANCH   6  10
ATOM     10  O   LIG    1        1.249  -2.609   2.451  0.00  0.00    -0.540 OA
ATOM     11  H   LIG    1        1.186  -3.573   2.495  0.00  0.00    +0.380 HD
ENDBRANCH   6  10
BRANCH   3  12
ATOM     12  O   LIG    1       -1.918   0.147  -1.161  0.00  0.00    -0.540 OA
ATOM     13  H   LIG    1       -2.850  -0.094  -1.253  0.00  0.00    +0.390 HD
ENDBRANCH   3  12
BRANCH   2  14
ATOM     14  O   LIG    1        0.837  -0.381  -1.113  0.00  0.00    -0.530 OA
ATOM     15  H   LIG    1        0.462  -0.042  -1.938  0.00  0.00    +0.380 HD
ENDBRANCH   2  14
BRANCH   8  16
ATOM     16  O   LIG    1        0.210  -0.008   2.480  0.00  0.00    -0.540 OA
ATOM     17  H   LIG    1        0.265   0.953   2.569  0.00  0.00    +0.380 HD
ENDBRANCH   8  16
BRANCH   5  18
ATOM     18  C   LIG    1       -0.950  -3.921   1.078  0.00  0.00    +0.200 C 
BRANCH  18  19
ATOM     19  O   LIG    1       -2.337  -4.263   1.113  0.00  0.00    -0.560 OA
ATOM     20  H   LIG    1       -2.509  -5.213   1.054  0.00  0.00    +0.380 HD
ENDBRANCH  18  19
ENDBRANCH   5  18
TORSDOF 6
ENDMDL
MODEL      767
REMARK  Name = ZINC000017061279
REMARK                            x       y       z     vdW  Elec       q    Type
REMARK                         _______ _______ _______ _____ _____    ______ ____
ROOT
ATOM      1  C   LIG    1        1.468  -0.873   1.757  0.00  0.00    +0.180 C 
ENDROOT
BRANCH   1   2
ATOM      2  O   LIG    1        1.983   0.423   2.067  0.00  0.00    -0.550 OA
ATOM      3  H   LIG    1        1.489   0.889   2.756  0.00  0.00    +0.380 HD
ENDBRANCH   1   2
BRANCH   1   4
ATOM      4  C   LIG    1        0.024  -0.743   1.267  0.00  0.00    +0.300 C 
BRANCH   4   6
ATOM      5  C   LIG    1       -0.018   1.461   0.010  0.00  0.00    +0.280 C 
ATOM      6  N   LIG    1        0.002  -0.004   0.002  0.00  0.00    -0.430 N 
BRANCH   6   7
ATOM      7  N   LIG    1        0.000  -0.643  -1.119  0.00  0.00    -0.100 NA
ATOM      8  O   LIG    1       -0.018  -0.028  -2.170  0.00  0.00    -0.070 OA
ENDBRANCH   6   7
ENDBRANCH   4   6
ENDBRANCH   1   4
BRANCH   1   9
ATOM      9  C   LIG    1        1.504  -1.750   3.010  0.00  0.00    +0.170 C 
BRANCH   9  10
ATOM     10  O   LIG    1        0.989  -3.046   2.699  0.00  0.00    -0.540 OA
ATOM     11  H   LIG    1        1.483  -3.511   2.010  0.00  0.00    +0.380 HD
ENDBRANCH   9  10
BRANCH   9  12
ATOM     12  C   LIG    1        2.948  -1.879   3.500  0.00  0.00    +0.300 C 
BRANCH  12  13
ATOM     13  N   LIG    1        2.983  -2.719   4.700  0.00  0.00    -0.430 N 
ATOM     14  C   LIG    1        2.737  -2.126   6.016  0.00  0.00    +0.270 C 
BRANCH  13  15
ATOM     15  N   LIG    1        3.230  -3.981   4.596  0.00  0.00    -0.090 NA
ATOM     16  O   LIG    1        3.259  -4.679   5.594  0.00  0.00    -0.070 OA
ENDBRANCH  13  15
ENDBRANCH  12  13
ENDBRANCH   9  12
ENDBRANCH   1   9
TORSDOF 9
ENDMDL
MODEL      768
REMARK  Name = ZINC000409439221
REMARK                            x       y       z     vdW  Elec       q    Type
REMARK                         _______ _______ _______ _____ _____    ______ ____
ROOT
ATOM      1  C   LIG    1       -1.259  -0.752  -0.101  0.00  0.00    -0.270 A 
ATOM      2  C   LIG    1       -1.268  -2.133  -0.105  0.00  0.00    +0.410 A 
ATOM      3  N   LIG    1       -2.453  -2.791  -0.201  0.00  0.00    -0.510 N 
ATOM      4  C   LIG    1       -3.617  -2.128  -0.293  0.00  0.00    +0.700 A 
ATOM      5  N   LIG    1       -3.677  -0.785  -0.294  0.00  0.00    -0.660 N 
ATOM      6  H   LIG    1       -4.537  -0.342  -0.362  0.00  0.00    +0.440 HD
ATOM      7  O   LIG    1       -4.650  -2.763  -0.377  0.00  0.00    -0.510 OA
ATOM      8  C   LIG    1       -2.549  -0.050  -0.197  0.00  0.00    +0.550 A 
ATOM      9  O   LIG    1       -2.598   1.166  -0.198  0.00  0.00    -0.430 OA
ENDROOT
BRANCH   1  10
ATOM     10  C   LIG    1        0.002  -0.004   0.002  0.00  0.00    +0.400 C 
ATOM     11  S   LIG    1       -0.023   1.702   0.145  0.00  0.00    -0.500 S 
BRANCH  10  12
ATOM     12  N   LIG    1        1.179  -0.661  -0.016  0.00  0.00    -0.780 N 
ATOM     13  H   LIG    1        1.192  -1.631  -0.019  0.00  0.00    +0.390 HD
ATOM     14  H   LIG    1        2.012  -0.164  -0.022  0.00  0.00    +0.430 HD
ENDBRANCH  10  12
ENDBRANCH   1  10
BRANCH   3  15
ATOM     15  C   LIG    1       -2.461  -4.255  -0.205  0.00  0.00    +0.340 C 
BRANCH  15  16
ATOM     16  C   LIG    1       -2.579  -4.769   1.231  0.00  0.00    +0.180 C 
BRANCH  16  17
ATOM     17  O   LIG    1       -3.846  -4.385   1.771  0.00  0.00    -0.560 OA
ATOM     18  H   LIG    1       -3.990  -4.678   2.682  0.00  0.00    +0.380 HD
ENDBRANCH  16  17
ENDBRANCH  15  16
ENDBRANCH   3  15
TORSDOF 5
ENDMDL
MODEL      769
REMARK  Name = ZINC000104853550
REMARK                            x       y       z     vdW  Elec       q    Type
REMARK                         _______ _______ _______ _____ _____    ______ ____
ROOT
ATOM      1  C   LIG    1       -0.019   1.526   0.010  0.00  0.00    +0.010 C 
ATOM      2  C   LIG    1        0.002  -0.004   0.002  0.00  0.00    +0.390 C 
ATOM      3  O   LIG    1       -1.339  -0.496   0.006  0.00  0.00    -0.380 OA
ATOM      4  C   LIG    1       -2.093  -0.148   1.174  0.00  0.00    +0.250 C 
ATOM      5  C   LIG    1       -1.347  -0.670   2.402  0.00  0.00    +0.130 C 
ATOM      6  O   LIG    1       -1.990  -0.264   3.608  0.00  0.00    -0.390 OA
ATOM      7  C   LIG    1       -1.354  -0.767   4.788  0.00  0.00    +0.310 C 
ATOM      8  C   LIG    1        0.087  -0.259   4.862  0.00  0.00    +0.140 C 
ATOM      9  C   LIG    1        0.841  -0.653   3.586  0.00  0.00    +0.210 C 
ATOM     10  C   LIG    1        0.077  -0.098   2.384  0.00  0.00    +0.170 C 
ATOM     11  O   LIG    1        0.700  -0.476   1.160  0.00  0.00    -0.370 OA
ENDROOT
BRANCH   9  12
ATOM     12  O   LIG    1        0.921  -2.077   3.497  0.00  0.00    -0.540 OA
ATOM     13  H   LIG    1        1.381  -2.493   4.238  0.00  0.00    +0.380 HD
ENDBRANCH   9  12
BRANCH   8  14
ATOM     14  O   LIG    1        0.083   1.165   4.990  0.00  0.00    -0.550 OA
ATOM     15  H   LIG    1       -0.375   1.488   5.779  0.00  0.00    +0.390 HD
ENDBRANCH   8  14
BRANCH   7  16
ATOM     16  O   LIG    1       -2.072  -0.322   5.940  0.00  0.00    -0.540 OA
ATOM     17  H   LIG    1       -2.994  -0.614   5.966  0.00  0.00    +0.400 HD
ENDBRANCH   7  16
TORSDOF 3
ENDMDL
MODEL      770
REMARK  Name = ZINC000012358816
REMARK                            x       y       z     vdW  Elec       q    Type
REMARK                         _______ _______ _______ _____ _____    ______ ____
ROOT
ATOM      1  C   LIG    1       -0.103   1.520   0.069  0.00  0.00    +0.020 C 
ATOM      2  C   LIG    1       -0.080  -0.009   0.063  0.00  0.00    +0.180 C 
ATOM      3  O   LIG    1       -1.401  -0.507   0.287  0.00  0.00    -0.390 OA
ATOM      4  C   LIG    1       -1.985  -0.078   1.519  0.00  0.00    +0.310 C 
ATOM      5  C   LIG    1       -1.134  -0.581   2.688  0.00  0.00    +0.100 C 
ATOM      6  C   LIG    1        0.297  -0.058   2.530  0.00  0.00    +0.160 C 
ATOM      7  C   LIG    1        1.174  -0.619   3.651  0.00  0.00    +0.040 C 
ATOM      8  C   LIG    1       -1.722  -0.071   4.005  0.00  0.00    +0.050 C 
ATOM      9  C   LIG    1        0.848  -0.510   1.174  0.00  0.00    +0.120 C 
ATOM     10  C   LIG    1        0.916  -2.038   1.133  0.00  0.00    +0.040 C 
ENDROOT
BRANCH   6  11
ATOM     11  O   LIG    1        0.294   1.370   2.595  0.00  0.00    -0.530 OA
ATOM     12  H   LIG    1       -0.049   1.725   3.427  0.00  0.00    +0.370 HD
ENDBRANCH   6  11
BRANCH   5  13
ATOM     13  O   LIG    1       -1.124  -2.010   2.691  0.00  0.00    -0.530 OA
ATOM     14  H   LIG    1       -2.000  -2.409   2.784  0.00  0.00    +0.380 HD
ENDBRANCH   5  13
BRANCH   4  15
ATOM     15  O   LIG    1       -3.308  -0.607   1.629  0.00  0.00    -0.540 OA
ATOM     16  H   LIG    1       -3.903  -0.330   0.919  0.00  0.00    +0.390 HD
ENDBRANCH   4  15
BRANCH   9  17
ATOM     17  O   LIG    1        2.156   0.033   0.985  0.00  0.00    -0.540 OA
ATOM     18  H   LIG    1        2.566  -0.213   0.144  0.00  0.00    +0.380 HD
ENDBRANCH   9  17
TORSDOF 4
ENDMDL
MODEL      771
REMARK  Name = ZINC000012358818
REMARK                            x       y       z     vdW  Elec       q    Type
REMARK                         _______ _______ _______ _____ _____    ______ ____
ROOT
ATOM      1  C   LIG    1       -0.813   1.133  -0.298  0.00  0.00    +0.070 C 
ATOM      2  C   LIG    1       -0.486  -0.353  -0.140  0.00  0.00    +0.140 C 
ATOM      3  O   LIG    1       -1.695  -1.089   0.058  0.00  0.00    -0.380 OA
ATOM      4  C   LIG    1       -1.504  -2.499   0.192  0.00  0.00    +0.330 C 
ATOM      5  C   LIG    1       -0.628  -2.779   1.415  0.00  0.00    +0.090 C 
ATOM      6  C   LIG    1        0.706  -2.043   1.258  0.00  0.00    +0.170 C 
ATOM      7  C   LIG    1        1.449  -2.584   0.035  0.00  0.00    +0.050 C 
ATOM      8  C   LIG    1       -0.371  -4.284   1.526  0.00  0.00    +0.020 C 
ATOM      9  C   LIG    1        0.432  -0.547   1.070  0.00  0.00    +0.120 C 
ATOM     10  C   LIG    1        1.752   0.189   0.834  0.00  0.00    +0.030 C 
ENDROOT
BRANCH   6  11
ATOM     11  O   LIG    1        1.503  -2.241   2.428  0.00  0.00    -0.530 OA
ATOM     12  H   LIG    1        1.709  -3.168   2.611  0.00  0.00    +0.370 HD
ENDBRANCH   6  11
BRANCH   5  13
ATOM     13  O   LIG    1       -1.292  -2.320   2.594  0.00  0.00    -0.510 OA
ATOM     14  H   LIG    1       -2.147  -2.743   2.754  0.00  0.00    +0.370 HD
ENDBRANCH   5  13
BRANCH   4  15
ATOM     15  O   LIG    1       -0.864  -3.007  -0.980  0.00  0.00    -0.570 OA
ATOM     16  H   LIG    1       -1.364  -2.863  -1.795  0.00  0.00    +0.380 HD
ENDBRANCH   4  15
BRANCH   9  17
ATOM     17  O   LIG    1       -0.204  -0.028   2.240  0.00  0.00    -0.520 OA
ATOM     18  H   LIG    1       -0.407   0.916   2.190  0.00  0.00    +0.360 HD
ENDBRANCH   9  17
TORSDOF 4
ENDMDL
MODEL      772
REMARK  Name = ZINC000005220312
REMARK                            x       y       z     vdW  Elec       q    Type
REMARK                         _______ _______ _______ _____ _____    ______ ____
ROOT
ATOM      1  O   LIG    1        0.002  -0.004   0.002  0.00  0.00    -0.430 OA
ATOM      2  C   LIG    1       -0.014   1.204   0.009  0.00  0.00    +0.450 C 
ATOM      3  O   LIG    1       -1.107   1.988   0.029  0.00  0.00    -0.310 OA
ATOM      4  C   LIG    1       -0.822   3.205   0.775  0.00  0.00    +0.190 C 
ATOM      5  C   LIG    1        0.712   3.366   0.776  0.00  0.00    +0.200 C 
ATOM      6  C   LIG    1        1.194   2.122   0.002  0.00  0.00    +0.110 C 
ENDROOT
BRANCH   5   7
ATOM      7  O   LIG    1        1.094   4.567   0.104  0.00  0.00    -0.530 OA
ATOM      8  H   LIG    1        2.049   4.716   0.076  0.00  0.00    +0.390 HD
ENDBRANCH   5   7
BRANCH   6   9
ATOM      9  O   LIG    1        1.550   2.470  -1.338  0.00  0.00    -0.520 OA
ATOM     10  H   LIG    1        1.860   1.724  -1.869  0.00  0.00    +0.390 HD
ENDBRANCH   6   9
BRANCH   4  11
ATOM     11  C   LIG    1       -1.339   3.075   2.210  0.00  0.00    +0.180 C 
BRANCH  11  12
ATOM     12  O   LIG    1       -1.022   4.262   2.940  0.00  0.00    -0.540 OA
ATOM     13  H   LIG    1       -1.410   5.066   2.569  0.00  0.00    +0.390 HD
ENDBRANCH  11  12
BRANCH  11  14
ATOM     14  C   LIG    1       -2.856   2.877   2.190  0.00  0.00    +0.190 C 
BRANCH  14  15
ATOM     15  O   LIG    1       -3.172   1.690   1.460  0.00  0.00    -0.530 OA
ATOM     16  H   LIG    1       -2.784   0.885   1.831  0.00  0.00    +0.370 HD
ENDBRANCH  14  15
BRANCH  14  17
ATOM     17  C   LIG    1       -3.372   2.747   3.624  0.00  0.00    +0.160 C 
BRANCH  17  18
ATOM     18  O   LIG    1       -4.799   2.679   3.613  0.00  0.00    -0.560 OA
ATOM     19  H   LIG    1       -5.196   2.595   4.490  0.00  0.00    +0.380 HD
ENDBRANCH  17  18
ENDBRANCH  14  17
ENDBRANCH  11  14
ENDBRANCH   4  11
TORSDOF 8
ENDMDL
MODEL      773
REMARK  Name = ZINC000071255880
REMARK                            x       y       z     vdW  Elec       q    Type
REMARK                         _______ _______ _______ _____ _____    ______ ____
ROOT
ATOM      1  N   VAL A  1       -1.413  -2.002   0.005  0.00  0.00    -0.480 N 
ATOM      2  H1  VAL A  1       -0.856  -2.336   0.777  0.00  0.00    +0.410 HD
ATOM      3  H2  VAL A  1       -1.015  -2.329  -0.863  0.00  0.00    +0.420 HD
ENDROOT
BRANCH   1   4
ATOM      4  CA  VAL A  1       -1.433  -0.534   0.013  0.00  0.00    +0.080 C 
BRANCH   4   6
ATOM      5  CG1 VAL A  1       -0.019   1.526   0.010  0.00  0.00    +0.060 C 
ATOM      6  CB  VAL A  1        0.002  -0.004   0.002  0.00  0.00    -0.020 C 
ATOM      7  CG2 VAL A  1        0.742  -0.511   1.242  0.00  0.00    +0.040 C 
ENDBRANCH   4   6
BRANCH   4   8
ATOM      8  C   VAL A  1       -2.162  -0.034  -1.208  0.00  0.00    +0.490 C 
ATOM      9  OXT VAL A  1       -2.452   1.146  -1.305  0.00  0.00    -0.630 OA
ATOM     10  O   VAL A  1       -2.462  -0.811  -2.099  0.00  0.00    -0.670 OA
ENDBRANCH   4   8
ENDBRANCH   1   4
BRANCH   1  11
ATOM     11  C   UNK A  0       -2.785  -2.511   0.136  0.00  0.00    +0.250 C 
BRANCH  11  12
ATOM     12  C   UNK A  0       -2.764  -4.041   0.128  0.00  0.00    +0.190 C 
BRANCH  12  13
ATOM     13  O   UNK A  0       -2.073  -4.515   1.285  0.00  0.00    -0.560 OA
ATOM     14  H   UNK A  0       -2.473  -4.239   2.122  0.00  0.00    +0.380 HD
ENDBRANCH  12  13
BRANCH  12  15
ATOM     15  C   UNK A  0       -4.200  -4.571   0.138  0.00  0.00    +0.210 C 
BRANCH  15  16
ATOM     16  O   UNK A  0       -4.904  -4.017   1.252  0.00  0.00    -0.540 OA
ATOM     17  H   UNK A  0       -4.513  -4.232   2.110  0.00  0.00    +0.370 HD
ENDBRANCH  15  16
BRANCH  15  18
ATOM     18  C   UNK A  0       -4.180  -6.096   0.256  0.00  0.00    +0.170 C 
BRANCH  18  19
ATOM     19  O   UNK A  0       -5.513  -6.600   0.149  0.00  0.00    -0.560 OA
ATOM     20  H   UNK A  0       -5.576  -7.562   0.215  0.00  0.00    +0.390 HD
ENDBRANCH  18  19
ENDBRANCH  15  18
ENDBRANCH  12  15
ENDBRANCH  11  12
ENDBRANCH   1  11
TORSDOF 10
ENDMDL
MODEL      774
REMARK  Name = ZINC000005811566
REMARK                            x       y       z     vdW  Elec       q    Type
REMARK                         _______ _______ _______ _____ _____    ______ ____
ROOT
ATOM      1  C1* LIG    1       -0.250  -3.059  -0.007  0.00  0.00    +0.440 C 
ATOM      2  O4* LIG    1       -0.559  -4.136   0.904  0.00  0.00    -0.330 OA
ATOM      3  C4* LIG    1        0.251  -5.249   0.466  0.00  0.00    +0.140 C 
ATOM      4  C3* LIG    1        0.182  -5.204  -1.077  0.00  0.00    +0.140 C 
ATOM      5  C2* LIG    1       -0.153  -3.728  -1.396  0.00  0.00    +0.170 C 
ENDROOT
BRANCH   1  10
ATOM      6  C   LIG    1       -1.187  -0.712   0.010  0.00  0.00    +0.500 A 
ATOM      7  N   LIG    1       -2.399  -0.203   0.018  0.00  0.00    -0.370 NA
ATOM      8  N   LIG    1       -3.280  -1.138   0.023  0.00  0.00    -0.030 NA
ATOM      9  N   LIG    1       -2.707  -2.293   0.018  0.00  0.00    -0.040 NA
ATOM     10  N   LIG    1       -1.320  -2.059   0.004  0.00  0.00    -0.400 N 
BRANCH   6  12
ATOM     11  C   LIG    1       -0.018   1.461   0.010  0.00  0.00    +0.340 C 
ATOM     12  N   LIG    1        0.002  -0.004   0.002  0.00  0.00    -0.700 N 
ATOM     13  H   LIG    1        0.849  -0.478  -0.009  0.00  0.00    +0.410 HD
ENDBRANCH   6  12
ENDBRANCH   1  10
BRANCH   4  14
ATOM     14  O3* LIG    1       -0.847  -6.071  -1.557  0.00  0.00    -0.540 OA
ATOM     15  H3* LIG    1       -0.714  -7.002  -1.332  0.00  0.00    +0.380 HD
ENDBRANCH   4  14
BRANCH   5  16
ATOM     16  O2* LIG    1       -1.401  -3.636  -2.085  0.00  0.00    -0.520 OA
ATOM     17  H2* LIG    1       -1.415  -4.093  -2.937  0.00  0.00    +0.390 HD
ENDBRANCH   5  16
BRANCH   3  18
ATOM     18  C5* LIG    1       -0.325  -6.566   0.990  0.00  0.00    +0.210 C 
BRANCH  18  19
ATOM     19  O5* LIG    1       -0.211  -6.603   2.413  0.00  0.00    -0.560 OA
ATOM     20  H5* LIG    1       -0.557  -7.412   2.815  0.00  0.00    +0.390 HD
ENDBRANCH  18  19
ENDBRANCH   3  18
TORSDOF 6
ENDMDL
MODEL      775
REMARK  Name = ZINC000005811570
REMARK                            x       y       z     vdW  Elec       q    Type
REMARK                         _______ _______ _______ _____ _____    ______ ____
ROOT
ATOM      1  C1* LIG    1       -0.250  -3.059  -0.007  0.00  0.00    +0.470 C 
ATOM      2  O4* LIG    1       -0.578  -4.137  -0.910  0.00  0.00    -0.330 OA
ATOM      3  C4* LIG    1       -1.521  -4.961  -0.191  0.00  0.00    +0.150 C 
ATOM      4  C3* LIG    1       -0.981  -5.009   1.256  0.00  0.00    +0.140 C 
ATOM      5  C2* LIG    1       -0.123  -3.726   1.380  0.00  0.00    +0.190 C 
ENDROOT
BRANCH   1  10
ATOM      6  C   LIG    1       -1.187  -0.712   0.010  0.00  0.00    +0.510 A 
ATOM      7  N   LIG    1       -2.399  -0.203   0.018  0.00  0.00    -0.370 NA
ATOM      8  N   LIG    1       -3.280  -1.138   0.023  0.00  0.00    -0.020 NA
ATOM      9  N   LIG    1       -2.707  -2.293   0.018  0.00  0.00    -0.090 NA
ATOM     10  N   LIG    1       -1.320  -2.059   0.004  0.00  0.00    -0.420 N 
BRANCH   6  12
ATOM     11  C   LIG    1       -0.018   1.461   0.010  0.00  0.00    +0.340 C 
ATOM     12  N   LIG    1        0.002  -0.004   0.002  0.00  0.00    -0.700 N 
ATOM     13  H   LIG    1        0.849  -0.478  -0.009  0.00  0.00    +0.410 HD
ENDBRANCH   6  12
ENDBRANCH   1  10
BRANCH   4  14
ATOM     14  O3* LIG    1       -0.176  -6.173   1.452  0.00  0.00    -0.550 OA
ATOM     15  H3* LIG    1       -0.652  -7.006   1.327  0.00  0.00    +0.390 HD
ENDBRANCH   4  14
BRANCH   5  16
ATOM     16  O2* LIG    1       -0.645  -2.872   2.401  0.00  0.00    -0.540 OA
ATOM     17  H2* LIG    1       -0.645  -3.268   3.283  0.00  0.00    +0.390 HD
ENDBRANCH   5  16
BRANCH   3  18
ATOM     18  C5* LIG    1       -1.566  -6.368  -0.791  0.00  0.00    +0.210 C 
BRANCH  18  19
ATOM     19  O5* LIG    1       -2.109  -6.305  -2.112  0.00  0.00    -0.560 OA
ATOM     20  H5* LIG    1       -2.167  -7.162  -2.554  0.00  0.00    +0.390 HD
ENDBRANCH  18  19
ENDBRANCH   3  18
TORSDOF 6
ENDMDL
MODEL      776
REMARK  Name = ZINC000072379677
REMARK                            x       y       z     vdW  Elec       q    Type
REMARK                         _______ _______ _______ _____ _____    ______ ____
ROOT
ATOM      1  C   LIG    1        0.055  -3.175   1.624  0.00  0.00    +0.610 C 
ATOM      2  N   LIG    1        0.161  -2.980   2.954  0.00  0.00    -0.610 N 
ATOM      3  C   LIG    1        0.140  -1.624   3.525  0.00  0.00    +0.270 C 
ATOM      4  C   LIG    1       -0.892  -1.592   4.658  0.00  0.00    +0.230 C 
ATOM      5  O   LIG    1       -0.624  -2.661   5.569  0.00  0.00    -0.350 OA
ATOM      6  C   LIG    1       -0.741  -3.964   4.993  0.00  0.00    +0.150 C 
ATOM      7  C   LIG    1        0.294  -4.118   3.878  0.00  0.00    +0.290 C 
ATOM      8  O   LIG    1       -0.051  -4.302   1.182  0.00  0.00    -0.530 OA
ENDROOT
BRANCH   1  13
ATOM      9  C   LIG    1        0.448   1.431  -0.028  0.00  0.00    +0.370 C 
ATOM     10  N   LIG    1        0.239  -0.019  -0.017  0.00  0.00    -0.280 N 
ATOM     11  C   LIG    1       -0.051  -0.765  -1.104  0.00  0.00    +0.180 A 
ATOM     12  C   LIG    1       -0.168  -2.049  -0.689  0.00  0.00    -0.020 A 
ATOM     13  C   LIG    1        0.069  -2.019   0.705  0.00  0.00    -0.020 A 
ATOM     14  N   LIG    1        0.310  -0.763   1.027  0.00  0.00    -0.260 NA
ENDBRANCH   1  13
BRANCH   6  15
ATOM     15  C   LIG    1       -0.500  -5.007   6.054  0.00  0.00    +0.530 C 
ATOM     16  O   LIG    1       -0.164  -4.670   7.170  0.00  0.00    -0.510 OA
ATOM     17  N   LIG    1       -0.657  -6.313   5.763  0.00  0.00    -0.850 N 
ATOM     18  H   LIG    1       -0.502  -6.984   6.446  0.00  0.00    +0.410 HD
ATOM     19  H   LIG    1       -0.926  -6.582   4.871  0.00  0.00    +0.400 HD
ENDBRANCH   6  15
TORSDOF 2
ENDMDL
MODEL      777
REMARK  Name = ZINC000002014753
REMARK                            x       y       z     vdW  Elec       q    Type
REMARK                         _______ _______ _______ _____ _____    ______ ____
ROOT
ATOM      1  C   LIG    1       -2.113   0.957   1.227  0.00  0.00    +0.490 C 
ATOM      2  N   LIG    1       -2.804   0.908   2.383  0.00  0.00    -0.690 N 
ATOM      3  H   LIG    1       -2.392   1.208   3.208  0.00  0.00    +0.410 HD
ATOM      4  O   LIG    1       -2.629   0.582   0.195  0.00  0.00    -0.520 OA
ENDROOT
BRANCH   1   5
ATOM      5  CA  LIG    1       -0.699   1.479   1.216  0.00  0.00    +0.180 C 
BRANCH   5   6
ATOM      6  N   LIG    1       -0.012   1.005   0.008  0.00  0.00    -0.620 N 
ATOM      7  H1  LIG    1       -0.500   1.339  -0.810  0.00  0.00    +0.440 HD
ATOM      8  H2  LIG    1        0.935   1.354   0.000  0.00  0.00    +0.450 HD
ATOM      9  H3  LIG    1        0.002  -0.004   0.002  0.00  0.00    +0.440 HD
ENDBRANCH   5   6
BRANCH   5  10
ATOM     10  C   LIG    1       -0.720   3.008   1.225  0.00  0.00    +0.240 C 
BRANCH  10  11
ATOM     11  O   LIG    1        0.617   3.502   1.332  0.00  0.00    -0.580 OA
ATOM     12  H   LIG    1        0.680   4.467   1.343  0.00  0.00    +0.410 HD
ENDBRANCH  10  11
ENDBRANCH   5  10
ENDBRANCH   1   5
BRANCH   2  13
ATOM     13  C   LIG    1       -4.179   0.401   2.393  0.00  0.00    +0.320 C 
BRANCH  13  14
ATOM     14  C   LIG    1       -4.730   0.451   3.819  0.00  0.00    -0.480 C 
BRANCH  14  15
ATOM     15  S   LIG    1       -6.432  -0.176   3.832  0.00  0.00    +2.640 S 
ATOM     16  O   LIG    1       -6.429  -1.550   3.354  0.00  0.00    -1.050 OA
ATOM     17  O   LIG    1       -7.246   0.656   2.959  0.00  0.00    -1.050 OA
ATOM     18  O   LIG    1       -6.942  -0.122   5.194  0.00  0.00    -1.050 OA
ENDBRANCH  14  15
ENDBRANCH  13  14
ENDBRANCH   2  13
TORSDOF 7
ENDMDL
MODEL      778
REMARK  Name = ZINC000059488311
REMARK                            x       y       z     vdW  Elec       q    Type
REMARK                         _______ _______ _______ _____ _____    ______ ____
ROOT
ATOM      1  C   LIG    1        1.447  -0.239   2.957  0.00  0.00    +0.510 C 
ATOM      2  N   LIG    1        1.695   0.142   4.226  0.00  0.00    -0.610 N 
ATOM      3  C   LIG    1        0.595   0.404   5.167  0.00  0.00    +0.250 C 
ATOM      4  C   LIG    1        0.863  -0.381   6.456  0.00  0.00    +0.210 C 
ATOM      5  O   LIG    1        2.181  -0.084   6.922  0.00  0.00    -0.370 OA
ATOM      6  C   LIG    1        3.222  -0.474   6.022  0.00  0.00    +0.220 C 
ATOM      7  C   LIG    1        3.074   0.301   4.713  0.00  0.00    +0.270 C 
ATOM      8  O   LIG    1        2.368  -0.456   2.198  0.00  0.00    -0.510 OA
ENDROOT
BRANCH   1   9
ATOM      9  C   LIG    1        0.025  -0.395   2.481  0.00  0.00    +0.380 C 
BRANCH   9  15
ATOM     10  C   LIG    1       -0.018   1.503   0.010  0.00  0.00    +0.210 C 
ATOM     11  C   LIG    1        0.002  -0.004   0.002  0.00  0.00    +0.200 A 
ATOM     12  N   LIG    1        0.008  -0.781  -1.054  0.00  0.00    -0.300 NA
ATOM     13  N   LIG    1        0.027  -2.004  -0.648  0.00  0.00    -0.070 NA
ATOM     14  N   LIG    1        0.033  -2.027   0.639  0.00  0.00    -0.090 NA
ATOM     15  N   LIG    1        0.023  -0.813   1.077  0.00  0.00    -0.300 N 
ENDBRANCH   9  15
ENDBRANCH   1   9
TORSDOF 2
ENDMDL
MODEL      779
REMARK  Name = ZINC000242547667
REMARK                            x       y       z     vdW  Elec       q    Type
REMARK                         _______ _______ _______ _____ _____    ______ ____
ROOT
ATOM      1  C   LIG    1       -1.463  -1.813   0.088  0.00  0.00    +0.330 C 
ATOM      2  O   LIG    1       -0.856  -2.212  -1.142  0.00  0.00    -0.380 OA
ATOM      3  C   LIG    1       -0.768  -3.628  -1.317  0.00  0.00    +0.150 C 
ATOM      4  C   LIG    1       -2.176  -4.229  -1.319  0.00  0.00    +0.120 C 
ATOM      5  C   LIG    1       -2.880  -3.865  -0.009  0.00  0.00    +0.190 C 
ATOM      6  C   LIG    1       -2.899  -2.341   0.142  0.00  0.00    +0.250 C 
ENDROOT
BRANCH   6   7
ATOM      7  N   LIG    1       -3.680  -1.750  -0.947  0.00  0.00    -0.690 N 
ATOM      8  H   LIG    1       -3.234  -1.442  -1.752  0.00  0.00    +0.410 HD
ATOM      9  C   LIG    1       -5.018  -1.635  -0.832  0.00  0.00    +0.520 C 
ATOM     10  O   LIG    1       -5.575  -2.021   0.174  0.00  0.00    -0.560 OA
ATOM     11  C   LIG    1       -5.822  -1.028  -1.953  0.00  0.00    +0.090 C 
ENDBRANCH   6   7
BRANCH   5  12
ATOM     12  O   LIG    1       -2.176  -4.447   1.090  0.00  0.00    -0.550 OA
ATOM     13  H   LIG    1       -2.120  -5.412   1.055  0.00  0.00    +0.390 HD
ENDBRANCH   5  12
BRANCH   4  14
ATOM     14  O   LIG    1       -2.917  -3.704  -2.423  0.00  0.00    -0.540 OA
ATOM     15  H   LIG    1       -2.524  -3.894  -3.286  0.00  0.00    +0.380 HD
ENDBRANCH   4  14
BRANCH   1  16
ATOM     16  O   LIG    1       -1.476  -0.386   0.172  0.00  0.00    -0.360 OA
BRANCH  16  18
ATOM     17  C   LIG    1       -0.312   1.726   0.329  0.00  0.00    +0.040 C 
ATOM     18  C   LIG    1       -0.177   0.204   0.243  0.00  0.00    +0.170 C 
ENDBRANCH  16  18
ENDBRANCH   1  16
BRANCH   3  19
ATOM     19  C   LIG    1       -0.079  -3.936  -2.647  0.00  0.00    +0.200 C 
BRANCH  19  20
ATOM     20  O   LIG    1        1.274  -3.476  -2.602  0.00  0.00    -0.560 OA
ATOM     21  H   LIG    1        1.772  -3.639  -3.414  0.00  0.00    +0.380 HD
ENDBRANCH  19  20
ENDBRANCH   3  19
TORSDOF 7
ENDMDL
MODEL      780
REMARK  Name = ZINC000013513059
REMARK                            x       y       z     vdW  Elec       q    Type
REMARK                         _______ _______ _______ _____ _____    ______ ____
ROOT
ATOM      1  C   LIG    1       -1.432  -1.925   0.005  0.00  0.00    +0.300 C 
ATOM      2  O   LIG    1       -0.907  -2.431  -1.224  0.00  0.00    -0.380 OA
ATOM      3  C   LIG    1       -0.929  -3.856  -1.325  0.00  0.00    +0.150 C 
ATOM      4  C   LIG    1       -2.376  -4.350  -1.241  0.00  0.00    +0.130 C 
ATOM      5  C   LIG    1       -2.997  -3.868   0.074  0.00  0.00    +0.190 C 
ATOM      6  C   LIG    1       -2.899  -2.341   0.142  0.00  0.00    +0.260 C 
ENDROOT
BRANCH   6   7
ATOM      7  N   LIG    1       -3.424  -1.874   1.428  0.00  0.00    -0.720 N 
ATOM      8  H   LIG    1       -3.422  -2.466   2.196  0.00  0.00    +0.400 HD
ATOM      9  C   LIG    1       -3.909  -0.622   1.543  0.00  0.00    +0.510 C 
ATOM     10  O   LIG    1       -3.912   0.118   0.582  0.00  0.00    -0.520 OA
ATOM     11  C   LIG    1       -4.449  -0.142   2.865  0.00  0.00    +0.080 C 
ENDBRANCH   6   7
BRANCH   5  12
ATOM     12  O   LIG    1       -4.369  -4.263   0.128  0.00  0.00    -0.540 OA
ATOM     13  H   LIG    1       -4.505  -5.220   0.082  0.00  0.00    +0.380 HD
ENDBRANCH   5  12
BRANCH   4  14
ATOM     14  O   LIG    1       -3.123  -3.829  -2.343  0.00  0.00    -0.540 OA
ATOM     15  H   LIG    1       -2.781  -4.091  -3.208  0.00  0.00    +0.380 HD
ENDBRANCH   4  14
BRANCH   1  16
ATOM     16  O   LIG    1       -1.339  -0.499   0.012  0.00  0.00    -0.340 OA
BRANCH  16  18
ATOM     17  C   LIG    1       -0.019   1.526   0.010  0.00  0.00    +0.050 C 
ATOM     18  C   LIG    1        0.002  -0.004   0.002  0.00  0.00    +0.150 C 
ENDBRANCH  16  18
ENDBRANCH   1  16
BRANCH   3  19
ATOM     19  C   LIG    1       -0.321  -4.282  -2.662  0.00  0.00    +0.210 C 
BRANCH  19  20
ATOM     20  O   LIG    1        1.062  -3.923  -2.692  0.00  0.00    -0.560 OA
ATOM     21  H   LIG    1        1.513  -4.164  -3.513  0.00  0.00    +0.390 HD
ENDBRANCH  19  20
ENDBRANCH   3  19
TORSDOF 7
ENDMDL
MODEL      781
REMARK  Name = ZINC000002144902
REMARK                            x       y       z     vdW  Elec       q    Type
REMARK                         _______ _______ _______ _____ _____    ______ ____
ROOT
ATOM      1  C   LIG    1        1.444  -4.024  -2.477  0.00  0.00    +0.090 A 
ATOM      2  N   LIG    1        0.914  -4.756  -1.536  0.00  0.00    -0.170 NA
ATOM      3  N   LIG    1        0.977  -6.152  -1.620  0.00  0.00    -0.530 N 
ATOM      4  H   LIG    1        0.581  -6.692  -0.918  0.00  0.00    +0.460 HD
ATOM      5  C   LIG    1        1.577  -6.755  -2.662  0.00  0.00    +0.660 A 
ATOM      6  N   LIG    1        2.136  -6.033  -3.652  0.00  0.00    -0.400 N 
ATOM      7  O   LIG    1        1.617  -7.969  -2.709  0.00  0.00    -0.540 OA
ATOM      8  C   LIG    1        2.093  -4.686  -3.612  0.00  0.00    +0.520 A 
ATOM      9  O   LIG    1        2.595  -4.027  -4.504  0.00  0.00    -0.450 OA
ENDROOT
BRANCH   6  10
ATOM     10  N   LIG    1        2.740  -6.667  -4.700  0.00  0.00    -0.580 N 
ATOM     11  H   LIG    1        2.340  -6.375  -5.579  0.00  0.00    +0.370 HD
ATOM     12  H   LIG    1        2.690  -7.669  -4.595  0.00  0.00    +0.380 HD
ENDBRANCH   6  10
BRANCH   1  13
ATOM     13  C   LIG    1        1.385  -2.521  -2.400  0.00  0.00    +0.200 C 
BRANCH  13  14
ATOM     14  C   LIG    1        0.657  -2.104  -1.120  0.00  0.00    +0.130 C 
BRANCH  14  15
ATOM     15  C   LIG    1        0.598  -0.600  -1.043  0.00  0.00    +0.460 C 
ATOM     16  O   LIG    1        1.088   0.070  -1.921  0.00  0.00    -0.500 OA
BRANCH  15  18
ATOM     17  C   LIG    1       -0.018   1.448   0.010  0.00  0.00    +0.250 C 
ATOM     18  O   LIG    1        0.002  -0.004   0.002  0.00  0.00    -0.360 OA
ENDBRANCH  15  18
ENDBRANCH  14  15
ENDBRANCH  13  14
ENDBRANCH   1  13
TORSDOF 5
ENDMDL
MODEL      782
REMARK  Name = ZINC000013544857
REMARK                            x       y       z     vdW  Elec       q    Type
REMARK                         _______ _______ _______ _____ _____    ______ ____
ROOT
ATOM      1  C   LIG    1        0.746  -1.888  -1.280  0.00  0.00    +0.290 C 
ATOM      2  O   LIG    1        1.556  -2.403  -0.221  0.00  0.00    -0.380 OA
ATOM      3  C   LIG    1        1.676  -3.827  -0.218  0.00  0.00    +0.190 C 
ATOM      4  C   LIG    1        2.335  -4.284  -1.522  0.00  0.00    +0.180 C 
ATOM      5  C   LIG    1        1.499  -3.792  -2.708  0.00  0.00    +0.150 C 
ATOM      6  C   LIG    1        1.367  -2.268  -2.627  0.00  0.00    +0.150 C 
ENDROOT
BRANCH   5   7
ATOM      7  O   LIG    1        2.144  -4.153  -3.930  0.00  0.00    -0.560 OA
ATOM      8  H   LIG    1        1.669  -3.871  -4.724  0.00  0.00    +0.400 HD
ENDBRANCH   5   7
BRANCH   4   9
ATOM      9  O   LIG    1        3.654  -3.741  -1.608  0.00  0.00    -0.550 OA
ATOM     10  H   LIG    1        4.131  -3.990  -2.411  0.00  0.00    +0.390 HD
ENDBRANCH   4   9
BRANCH   6  11
ATOM     11  O   LIG    1        0.529  -1.804  -3.688  0.00  0.00    -0.560 OA
ATOM     12  H   LIG    1        0.402  -0.846  -3.698  0.00  0.00    +0.390 HD
ENDBRANCH   6  11
BRANCH   1  13
ATOM     13  O   LIG    1        0.671  -0.465  -1.174  0.00  0.00    -0.370 OA
BRANCH  13  15
ATOM     14  C   LIG    1       -0.019   1.526   0.010  0.00  0.00    +0.040 C 
ATOM     15  C   LIG    1        0.002  -0.004   0.002  0.00  0.00    +0.170 C 
ENDBRANCH  13  15
ENDBRANCH   1  13
BRANCH   3  16
ATOM     16  C   LIG    1        2.537  -4.264   0.969  0.00  0.00    +0.230 C 
BRANCH  16  17
ATOM     17  O   LIG    1        1.867  -3.939   2.188  0.00  0.00    -0.570 OA
ATOM     18  H   LIG    1        2.356  -4.188   2.985  0.00  0.00    +0.380 HD
ENDBRANCH  16  17
ENDBRANCH   3  16
TORSDOF 7
ENDMDL
MODEL      783
REMARK  Name = ZINC000005339399
REMARK                            x       y       z     vdW  Elec       q    Type
REMARK                         _______ _______ _______ _____ _____    ______ ____
ROOT
ATOM      1  C   LIG    1        0.746  -1.888  -1.280  0.00  0.00    +0.330 C 
ATOM      2  O   LIG    1        1.556  -2.403  -0.221  0.00  0.00    -0.380 OA
ATOM      3  C   LIG    1        2.889  -1.890  -0.205  0.00  0.00    +0.160 C 
ATOM      4  C   LIG    1        3.597  -2.270  -1.508  0.00  0.00    +0.180 C 
ATOM      5  C   LIG    1        2.796  -1.721  -2.693  0.00  0.00    +0.160 C 
ATOM      6  C   LIG    1        1.367  -2.268  -2.627  0.00  0.00    +0.160 C 
ENDROOT
BRANCH   5   7
ATOM      7  O   LIG    1        3.410  -2.131  -3.916  0.00  0.00    -0.560 OA
ATOM      8  H   LIG    1        2.955  -1.818  -4.710  0.00  0.00    +0.390 HD
ENDBRANCH   5   7
BRANCH   4   9
ATOM      9  O   LIG    1        3.684  -3.693  -1.607  0.00  0.00    -0.530 OA
ATOM     10  H   LIG    1        4.122  -4.005  -2.411  0.00  0.00    +0.380 HD
ENDBRANCH   4   9
BRANCH   6  11
ATOM     11  O   LIG    1        0.591  -1.706  -3.687  0.00  0.00    -0.550 OA
ATOM     12  H   LIG    1       -0.327  -2.009  -3.706  0.00  0.00    +0.380 HD
ENDBRANCH   6  11
BRANCH   1  13
ATOM     13  O   LIG    1        0.671  -0.465  -1.174  0.00  0.00    -0.390 OA
BRANCH  13  15
ATOM     14  C   LIG    1       -0.019   1.526   0.010  0.00  0.00    +0.040 C 
ATOM     15  C   LIG    1        0.002  -0.004   0.002  0.00  0.00    +0.160 C 
ENDBRANCH  13  15
ENDBRANCH   1  13
BRANCH   3  16
ATOM     16  C   LIG    1        3.651  -2.486   0.981  0.00  0.00    +0.240 C 
BRANCH  16  17
ATOM     17  O   LIG    1        3.790  -3.896   0.798  0.00  0.00    -0.530 OA
ATOM     18  H   LIG    1        2.949  -4.369   0.732  0.00  0.00    +0.380 HD
ENDBRANCH  16  17
BRANCH  16  19
ATOM     19  C   LIG    1        2.877  -2.214   2.273  0.00  0.00    +0.160 C 
BRANCH  19  20
ATOM     20  O   LIG    1        3.642  -2.667   3.391  0.00  0.00    -0.560 OA
ATOM     21  H   LIG    1        3.211  -2.526   4.246  0.00  0.00    +0.380 HD
ENDBRANCH  19  20
ENDBRANCH  16  19
ENDBRANCH   3  16
TORSDOF 9
ENDMDL
MODEL      784
REMARK  Name = ZINC000004303625
REMARK                            x       y       z     vdW  Elec       q    Type
REMARK                         _______ _______ _______ _____ _____    ______ ____
ROOT
ATOM      1  C   LIG    1       -1.435  -1.925  -0.028  0.00  0.00    +0.350 C 
ATOM      2  O   LIG    1       -0.939  -2.430  -1.269  0.00  0.00    -0.370 OA
ATOM      3  C   LIG    1       -1.631  -1.936  -2.418  0.00  0.00    +0.140 C 
ATOM      4  C   LIG    1       -3.102  -2.352  -2.344  0.00  0.00    +0.120 C 
ATOM      5  C   LIG    1       -3.712  -1.815  -1.045  0.00  0.00    +0.180 C 
ATOM      6  C   LIG    1       -2.899  -2.341   0.142  0.00  0.00    +0.250 C 
ENDROOT
BRANCH   6   7
ATOM      7  N   LIG    1       -2.992  -3.802   0.191  0.00  0.00    -0.700 N 
ATOM      8  H   LIG    1       -2.333  -4.346  -0.268  0.00  0.00    +0.410 HD
ATOM      9  C   LIG    1       -3.994  -4.391   0.874  0.00  0.00    +0.520 C 
ATOM     10  O   LIG    1       -4.818  -3.711   1.448  0.00  0.00    -0.540 OA
ATOM     11  C   LIG    1       -4.090  -5.894   0.924  0.00  0.00    +0.080 C 
ENDBRANCH   6   7
BRANCH   5  12
ATOM     12  O   LIG    1       -5.066  -2.259  -0.934  0.00  0.00    -0.530 OA
ATOM     13  H   LIG    1       -5.636  -1.966  -1.658  0.00  0.00    +0.370 HD
ENDBRANCH   5  12
BRANCH   4  14
ATOM     14  O   LIG    1       -3.197  -3.777  -2.365  0.00  0.00    -0.540 OA
ATOM     15  H   LIG    1       -2.826  -4.185  -3.159  0.00  0.00    +0.370 HD
ENDBRANCH   4  14
BRANCH   1  16
ATOM     16  O   LIG    1       -1.341  -0.500  -0.021  0.00  0.00    -0.400 OA
BRANCH  16  18
ATOM     17  C   LIG    1       -0.019   1.524  -0.050  0.00  0.00    +0.040 C 
ATOM     18  C   LIG    1       -0.000  -0.006  -0.061  0.00  0.00    +0.170 C 
ENDBRANCH  16  18
ENDBRANCH   1  16
BRANCH   3  19
ATOM     19  C   LIG    1       -0.998  -2.518  -3.684  0.00  0.00    +0.200 C 
BRANCH  19  20
ATOM     20  O   LIG    1        0.341  -2.037  -3.812  0.00  0.00    -0.560 OA
ATOM     21  H   LIG    1        0.804  -2.366  -4.595  0.00  0.00    +0.380 HD
ENDBRANCH  19  20
ENDBRANCH   3  19
TORSDOF 7
ENDMDL
MODEL      785
REMARK  Name = ZINC000101390345
REMARK                            x       y       z     vdW  Elec       q    Type
REMARK                         _______ _______ _______ _____ _____    ______ ____
ROOT
ATOM      1  C   LIG    1       -1.248  -2.095   0.003  0.00  0.00    +0.130 C 
ATOM      2  C   LIG    1       -2.445  -2.729   0.113  0.00  0.00    -0.180 A 
ATOM      3  S   LIG    1       -2.742  -4.472   0.257  0.00  0.00    +0.180 S 
ATOM      4  C   LIG    1       -4.505  -4.316   0.340  0.00  0.00    +0.170 A 
ATOM      5  N   LIG    1       -4.792  -2.982   0.257  0.00  0.00    -0.650 N 
ATOM      6  H   LIG    1       -5.711  -2.672   0.283  0.00  0.00    +0.430 HD
ATOM      7  C   LIG    1       -5.404  -5.333   0.463  0.00  0.00    -0.100 C 
ATOM      8  C   LIG    1       -3.795  -2.120   0.147  0.00  0.00    +0.530 A 
ATOM      9  O   LIG    1       -3.973  -0.920   0.069  0.00  0.00    -0.420 OA
ENDROOT
BRANCH   7  10
ATOM     10  C   LIG    1       -4.955  -6.665   0.537  0.00  0.00    +0.560 C 
ATOM     11  O   LIG    1       -3.762  -6.909   0.491  0.00  0.00    -0.540 OA
ATOM     12  N   LIG    1       -5.844  -7.670   0.659  0.00  0.00    -0.850 N 
ATOM     13  H   LIG    1       -5.534  -8.588   0.710  0.00  0.00    +0.410 HD
ATOM     14  H   LIG    1       -6.793  -7.476   0.696  0.00  0.00    +0.400 HD
ENDBRANCH   7  10
BRANCH   1  15
ATOM     15  C   LIG    1       -1.203  -0.666  -0.311  0.00  0.00    +0.470 C 
ATOM     16  O   LIG    1       -2.227  -0.074  -0.595  0.00  0.00    -0.450 OA
BRANCH  15  18
ATOM     17  C   LIG    1       -0.057   1.386  -0.602  0.00  0.00    +0.270 C 
ATOM     18  O   LIG    1       -0.027  -0.007  -0.285  0.00  0.00    -0.350 OA
ENDBRANCH  15  18
ENDBRANCH   1  15
TORSDOF 3
ENDMDL
MODEL      786
REMARK  Name = ZINC000003830251
REMARK                            x       y       z     vdW  Elec       q    Type
REMARK                         _______ _______ _______ _____ _____    ______ ____
ROOT
ATOM      1  C1* LIG    1        0.085  -4.133  -0.021  0.00  0.00    +0.410 C 
ATOM      2  O4* LIG    1       -1.256  -4.663  -0.088  0.00  0.00    -0.300 OA
ATOM      3  C4* LIG    1       -1.107  -6.012  -0.582  0.00  0.00    +0.130 C 
ATOM      4  C3* LIG    1       -0.025  -5.913  -1.680  0.00  0.00    +0.140 C 
ATOM      5  C2* LIG    1        0.781  -4.648  -1.301  0.00  0.00    +0.170 C 
ENDROOT
BRANCH   1   9
ATOM      6  C   LIG    1        0.002  -0.004   0.002  0.00  0.00    +0.630 A 
ATOM      7  N   LIG    1       -1.139  -0.678   0.004  0.00  0.00    -0.640 NA
ATOM      8  C   LIG    1       -1.126  -2.014  -0.004  0.00  0.00    +0.650 A 
ATOM      9  N   LIG    1        0.054  -2.668  -0.013  0.00  0.00    -0.540 N 
ATOM     10  C   LIG    1        1.207  -1.963  -0.014  0.00  0.00    +0.670 A 
ATOM     11  O   LIG    1       -2.173  -2.638  -0.002  0.00  0.00    -0.490 OA
ATOM     12  N   LIG    1        1.174  -0.654  -0.013  0.00  0.00    -0.600 NA
BRANCH   6  13
ATOM     13  N   LIG    1       -0.017   1.368   0.010  0.00  0.00    -0.790 N 
ATOM     14  H   LIG    1       -0.863   1.842   0.016  0.00  0.00    +0.420 HD
ATOM     15  H   LIG    1        0.817   1.865   0.004  0.00  0.00    +0.420 HD
ENDBRANCH   6  13
ENDBRANCH   1   9
BRANCH   4  16
ATOM     16  O3* LIG    1       -0.628  -5.761  -2.966  0.00  0.00    -0.540 OA
ATOM     17  H3* LIG    1       -1.192  -6.503  -3.226  0.00  0.00    +0.380 HD
ENDBRANCH   4  16
BRANCH   5  18
ATOM     18  O2* LIG    1        0.701  -3.673  -2.343  0.00  0.00    -0.530 OA
ATOM     19  H2* LIG    1        1.068  -3.969  -3.187  0.00  0.00    +0.390 HD
ENDBRANCH   5  18
BRANCH   3  20
ATOM     20  C5* LIG    1       -2.427  -6.511  -1.176  0.00  0.00    +0.210 C 
BRANCH  20  21
ATOM     21  O5* LIG    1       -3.399  -6.636  -0.136  0.00  0.00    -0.560 OA
ATOM     22  H5* LIG    1       -4.262  -6.949  -0.441  0.00  0.00    +0.380 HD
ENDBRANCH  20  21
ENDBRANCH   3  20
TORSDOF 6
ENDMDL
MODEL      787
REMARK  Name = ZINC000003830252
REMARK                            x       y       z     vdW  Elec       q    Type
REMARK                         _______ _______ _______ _____ _____    ______ ____
ROOT
ATOM      1  C1* LIG    1        0.085  -4.133  -0.021  0.00  0.00    +0.420 C 
ATOM      2  O4* LIG    1       -1.256  -4.663  -0.088  0.00  0.00    -0.300 OA
ATOM      3  C4* LIG    1       -1.107  -6.012  -0.582  0.00  0.00    +0.130 C 
ATOM      4  C3* LIG    1       -0.025  -5.913  -1.680  0.00  0.00    +0.140 C 
ATOM      5  C2* LIG    1        0.781  -4.648  -1.301  0.00  0.00    +0.160 C 
ENDROOT
BRANCH   1   9
ATOM      6  C   LIG    1        0.002  -0.004   0.002  0.00  0.00    +0.630 A 
ATOM      7  N   LIG    1       -1.139  -0.678   0.004  0.00  0.00    -0.640 NA
ATOM      8  C   LIG    1       -1.126  -2.014  -0.004  0.00  0.00    +0.650 A 
ATOM      9  N   LIG    1        0.054  -2.668  -0.013  0.00  0.00    -0.560 N 
ATOM     10  C   LIG    1        1.207  -1.963  -0.014  0.00  0.00    +0.670 A 
ATOM     11  O   LIG    1       -2.173  -2.638  -0.002  0.00  0.00    -0.480 OA
ATOM     12  N   LIG    1        1.174  -0.654  -0.013  0.00  0.00    -0.600 NA
BRANCH   6  13
ATOM     13  N   LIG    1       -0.017   1.368   0.010  0.00  0.00    -0.790 N 
ATOM     14  H   LIG    1       -0.863   1.842   0.016  0.00  0.00    +0.420 HD
ATOM     15  H   LIG    1        0.817   1.865   0.004  0.00  0.00    +0.420 HD
ENDBRANCH   6  13
ENDBRANCH   1   9
BRANCH   4  16
ATOM     16  O3* LIG    1       -0.628  -5.761  -2.966  0.00  0.00    -0.550 OA
ATOM     17  H3* LIG    1       -1.192  -6.503  -3.226  0.00  0.00    +0.390 HD
ENDBRANCH   4  16
BRANCH   5  18
ATOM     18  O2* LIG    1        2.144  -4.983  -1.037  0.00  0.00    -0.550 OA
ATOM     19  H2* LIG    1        2.609  -5.367  -1.793  0.00  0.00    +0.400 HD
ENDBRANCH   5  18
BRANCH   3  20
ATOM     20  C5* LIG    1       -2.427  -6.511  -1.176  0.00  0.00    +0.210 C 
BRANCH  20  21
ATOM     21  O5* LIG    1       -3.399  -6.636  -0.136  0.00  0.00    -0.560 OA
ATOM     22  H5* LIG    1       -4.262  -6.949  -0.441  0.00  0.00    +0.380 HD
ENDBRANCH  20  21
ENDBRANCH   3  20
TORSDOF 6
ENDMDL
MODEL      788
REMARK  Name = ZINC000170338639
REMARK                            x       y       z     vdW  Elec       q    Type
REMARK                         _______ _______ _______ _____ _____    ______ ____
ROOT
ATOM      1  N   LIG    1       -2.408  -4.226   0.002  0.00  0.00    -0.700 N 
ATOM      2  H   LIG    1       -1.526  -4.632  -0.008  0.00  0.00    +0.420 HD
ATOM      3  C   LIG    1       -3.507  -5.005   0.009  0.00  0.00    +0.510 C 
ATOM      4  O   LIG    1       -4.610  -4.498   0.022  0.00  0.00    -0.520 OA
ENDROOT
BRANCH   3   5
ATOM      5  C   LIG    1       -3.369  -6.493  -0.001  0.00  0.00    +0.510 C 
ATOM      6  N   LIG    1       -4.469  -7.272   0.006  0.00  0.00    -0.690 N 
ATOM      7  H   LIG    1       -5.350  -6.867   0.016  0.00  0.00    +0.420 HD
ATOM      8  O   LIG    1       -2.267  -7.000  -0.014  0.00  0.00    -0.520 OA
BRANCH   6   9
ATOM      9  C   LIG    1       -4.333  -8.731  -0.004  0.00  0.00    +0.290 C 
BRANCH   9  10
ATOM     10  C   LIG    1       -5.723  -9.372   0.006  0.00  0.00    +0.160 C 
ATOM     11  C   LIG    1       -5.581 -10.896  -0.003  0.00  0.00    +0.020 C 
BRANCH  10  12
ATOM     12  O   LIG    1       -6.426  -8.967   1.182  0.00  0.00    -0.570 OA
ATOM     13  H   LIG    1       -7.317  -9.336   1.255  0.00  0.00    +0.380 HD
ENDBRANCH  10  12
ENDBRANCH   9  10
ENDBRANCH   6   9
ENDBRANCH   3   5
BRANCH   1  14
ATOM     14  C   LIG    1       -2.543  -2.768   0.011  0.00  0.00    +0.280 C 
BRANCH  14  15
ATOM     15  C   LIG    1       -1.154  -2.126   0.002  0.00  0.00    +0.030 C 
BRANCH  15  16
ATOM     16  C   LIG    1       -1.295  -0.603   0.011  0.00  0.00    +0.160 C 
BRANCH  16  18
ATOM     17  C   LIG    1       -0.017   1.425   0.010  0.00  0.00    +0.200 C 
ATOM     18  O   LIG    1        0.002  -0.004   0.002  0.00  0.00    -0.390 OA
ENDBRANCH  16  18
ENDBRANCH  15  16
ENDBRANCH  14  15
ENDBRANCH   1  14
TORSDOF 8
ENDMDL
MODEL      789
REMARK  Name = ZINC000004557150
REMARK                            x       y       z     vdW  Elec       q    Type
REMARK                         _______ _______ _______ _____ _____    ______ ____
ROOT
ATOM      1  C   MET A  1        1.777  -3.762   3.146  0.00  0.00    +0.490 C 
ATOM      2  N   SER A  2        0.694  -4.372   3.668  0.00  0.00    -0.650 N 
ATOM      3  H   SER A  2       -0.086  -3.850   3.913  0.00  0.00    +0.410 HD
ATOM      4  O   MET A  1        2.752  -4.415   2.839  0.00  0.00    -0.530 OA
ENDROOT
BRANCH   1   5
ATOM      5  CA  MET A  1        1.776  -2.269   2.944  0.00  0.00    +0.190 C 
BRANCH   5   6
ATOM      6  N   MET A  1        3.160  -1.789   2.833  0.00  0.00    -0.620 N 
ATOM      7  H1  MET A  1        3.663  -2.014   3.679  0.00  0.00    +0.440 HD
ATOM      8  H2  MET A  1        3.160  -0.789   2.698  0.00  0.00    +0.430 HD
ATOM      9  H3  MET A  1        3.609  -2.235   2.047  0.00  0.00    +0.440 HD
ENDBRANCH   5   6
BRANCH   5  10
ATOM     10  CB  MET A  1        1.014  -1.928   1.662  0.00  0.00    +0.120 C 
BRANCH  10  11
ATOM     11  CG  MET A  1        0.906  -0.408   1.522  0.00  0.00    +0.060 C 
BRANCH  11  13
ATOM     12  CE  MET A  1       -0.022   1.810   0.012  0.00  0.00    +0.140 C 
ATOM     13  SD  MET A  1        0.002  -0.004   0.002  0.00  0.00    -0.230 S 
ENDBRANCH  11  13
ENDBRANCH  10  11
ENDBRANCH   5  10
ENDBRANCH   1   5
BRANCH   2  14
ATOM     14  CA  SER A  2        0.695  -5.824   3.864  0.00  0.00    +0.170 C 
BRANCH  14  15
ATOM     15  C   SER A  2        1.337  -6.152   5.187  0.00  0.00    +0.500 C 
ATOM     16  OXT SER A  2        1.931  -7.207   5.332  0.00  0.00    -0.680 OA
ATOM     17  O   SER A  2        1.264  -5.362   6.113  0.00  0.00    -0.680 OA
ENDBRANCH  14  15
BRANCH  14  18
ATOM     18  CB  SER A  2       -0.746  -6.340   3.855  0.00  0.00    +0.190 C 
BRANCH  18  19
ATOM     19  OG  SER A  2       -1.450  -5.807   4.979  0.00  0.00    -0.560 OA
ATOM     20  H   SER A  2       -2.372  -6.093   5.037  0.00  0.00    +0.370 HD
ENDBRANCH  18  19
ENDBRANCH  14  18
ENDBRANCH   2  14
TORSDOF 9
ENDMDL
MODEL      790
REMARK  Name = ZINC000170338641
REMARK                            x       y       z     vdW  Elec       q    Type
REMARK                         _______ _______ _______ _____ _____    ______ ____
ROOT
ATOM      1  N   LIG    1       -2.408  -4.226   0.002  0.00  0.00    -0.700 N 
ATOM      2  H   LIG    1       -1.526  -4.632  -0.008  0.00  0.00    +0.420 HD
ATOM      3  C   LIG    1       -3.507  -5.005   0.009  0.00  0.00    +0.510 C 
ATOM      4  O   LIG    1       -4.610  -4.498   0.022  0.00  0.00    -0.520 OA
ENDROOT
BRANCH   3   5
ATOM      5  C   LIG    1       -3.369  -6.493  -0.001  0.00  0.00    +0.510 C 
ATOM      6  N   LIG    1       -4.469  -7.272   0.006  0.00  0.00    -0.690 N 
ATOM      7  H   LIG    1       -5.350  -6.867   0.016  0.00  0.00    +0.420 HD
ATOM      8  O   LIG    1       -2.267  -7.000  -0.014  0.00  0.00    -0.520 OA
BRANCH   6   9
ATOM      9  C   LIG    1       -4.333  -8.731  -0.004  0.00  0.00    +0.290 C 
BRANCH   9  10
ATOM     10  C   LIG    1       -5.723  -9.372   0.006  0.00  0.00    +0.160 C 
ATOM     11  C   LIG    1       -5.582 -10.892   0.123  0.00  0.00    +0.020 C 
BRANCH  10  12
ATOM     12  O   LIG    1       -6.405  -9.049  -1.206  0.00  0.00    -0.560 OA
ATOM     13  H   LIG    1       -7.295  -9.423  -1.269  0.00  0.00    +0.380 HD
ENDBRANCH  10  12
ENDBRANCH   9  10
ENDBRANCH   6   9
ENDBRANCH   3   5
BRANCH   1  14
ATOM     14  C   LIG    1       -2.543  -2.768   0.011  0.00  0.00    +0.280 C 
BRANCH  14  15
ATOM     15  C   LIG    1       -1.154  -2.126   0.002  0.00  0.00    +0.030 C 
BRANCH  15  16
ATOM     16  C   LIG    1       -1.295  -0.603   0.011  0.00  0.00    +0.160 C 
BRANCH  16  18
ATOM     17  C   LIG    1       -0.017   1.425   0.010  0.00  0.00    +0.200 C 
ATOM     18  O   LIG    1        0.002  -0.004   0.002  0.00  0.00    -0.390 OA
ENDBRANCH  16  18
ENDBRANCH  15  16
ENDBRANCH  14  15
ENDBRANCH   1  14
TORSDOF 8
ENDMDL
MODEL      791
REMARK  Name = ZINC000170335694
REMARK                            x       y       z     vdW  Elec       q    Type
REMARK                         _______ _______ _______ _____ _____    ______ ____
ROOT
ATOM      1  N   LIG    1        2.333  -4.192   3.833  0.00  0.00    -0.700 N 
ATOM      2  H   LIG    1        2.672  -3.504   4.427  0.00  0.00    +0.420 HD
ATOM      3  C   LIG    1        2.529  -5.493   4.127  0.00  0.00    +0.510 C 
ATOM      4  O   LIG    1        2.105  -6.354   3.384  0.00  0.00    -0.520 OA
ENDROOT
BRANCH   3   5
ATOM      5  C   LIG    1        3.268  -5.875   5.369  0.00  0.00    +0.510 C 
ATOM      6  N   LIG    1        3.463  -7.176   5.663  0.00  0.00    -0.690 N 
ATOM      7  H   LIG    1        3.124  -7.864   5.069  0.00  0.00    +0.420 HD
ATOM      8  O   LIG    1        3.692  -5.014   6.112  0.00  0.00    -0.520 OA
BRANCH   6   9
ATOM      9  C   LIG    1        4.188  -7.550   6.880  0.00  0.00    +0.290 C 
BRANCH   9  10
ATOM     10  C   LIG    1        4.270  -9.075   6.976  0.00  0.00    +0.190 C 
BRANCH  10  11
ATOM     11  O   LIG    1        5.059  -9.578   5.896  0.00  0.00    -0.570 OA
ATOM     12  H   LIG    1        5.154 -10.541   5.893  0.00  0.00    +0.390 HD
ENDBRANCH  10  11
ENDBRANCH   9  10
ENDBRANCH   6   9
ENDBRANCH   3   5
BRANCH   1  13
ATOM     13  C   LIG    1        1.609  -3.818   2.616  0.00  0.00    +0.280 C 
BRANCH  13  14
ATOM     14  C   LIG    1        1.526  -2.293   2.520  0.00  0.00    +0.030 C 
BRANCH  14  15
ATOM     15  C   LIG    1        0.770  -1.902   1.249  0.00  0.00    +0.170 C 
BRANCH  15  16
ATOM     16  O   LIG    1        0.693  -0.477   1.160  0.00  0.00    -0.390 OA
BRANCH  16  18
ATOM     17  C   LIG    1       -0.019   1.526   0.010  0.00  0.00    +0.040 C 
ATOM     18  C   LIG    1        0.002  -0.004   0.002  0.00  0.00    +0.160 C 
ENDBRANCH  16  18
ENDBRANCH  15  16
ENDBRANCH  14  15
ENDBRANCH  13  14
ENDBRANCH   1  13
TORSDOF 9
ENDMDL
MODEL      792
REMARK  Name = ZINC000018143032
REMARK                            x       y       z     vdW  Elec       q    Type
REMARK                         _______ _______ _______ _____ _____    ______ ____
ROOT
ATOM      1  C   LIG    1       -0.011   1.437  -0.158  0.00  0.00    +0.030 C 
ATOM      2  C   LIG    1        0.184  -0.072  -0.312  0.00  0.00    +0.250 C 
ATOM      3  O   LIG    1        1.194  -0.351  -1.306  0.00  0.00    -0.360 OA
ATOM      4  C   LIG    1        2.447  -0.144  -0.620  0.00  0.00    +0.110 C 
ATOM      5  C   LIG    1        2.119  -0.339   0.874  0.00  0.00    +0.120 C 
ATOM      6  C   LIG    1       -1.137  -0.745  -0.688  0.00  0.00    +0.100 C 
ATOM      7  O   LIG    1        0.708  -0.639   0.909  0.00  0.00    -0.370 OA
ENDROOT
BRANCH   5   8
ATOM      8  C   LIG    1        2.928  -1.503   1.449  0.00  0.00    +0.250 C 
BRANCH   8   9
ATOM      9  O   LIG    1        2.529  -2.719   0.813  0.00  0.00    -0.540 OA
ATOM     10  H   LIG    1        1.594  -2.936   0.930  0.00  0.00    +0.370 HD
ENDBRANCH   8   9
BRANCH   8  11
ATOM     11  C   LIG    1        2.673  -1.607   2.954  0.00  0.00    +0.150 C 
BRANCH  11  12
ATOM     12  O   LIG    1        3.515  -2.618   3.511  0.00  0.00    -0.560 OA
ATOM     13  H   LIG    1        3.406  -2.739   4.464  0.00  0.00    +0.380 HD
ENDBRANCH  11  12
ENDBRANCH   8  11
ENDBRANCH   5   8
BRANCH   4  14
ATOM     14  C   LIG    1        3.481  -1.175  -1.079  0.00  0.00    +0.250 C 
BRANCH  14  15
ATOM     15  O   LIG    1        4.736  -0.900  -0.455  0.00  0.00    -0.540 OA
ATOM     16  H   LIG    1        5.095  -0.026  -0.660  0.00  0.00    +0.370 HD
ENDBRANCH  14  15
BRANCH  14  17
ATOM     17  C   LIG    1        3.638  -1.098  -2.598  0.00  0.00    +0.150 C 
BRANCH  17  18
ATOM     18  O   LIG    1        4.515  -2.136  -3.040  0.00  0.00    -0.560 OA
ATOM     19  H   LIG    1        4.662  -2.148  -3.995  0.00  0.00    +0.380 HD
ENDBRANCH  17  18
ENDBRANCH  14  17
ENDBRANCH   4  14
TORSDOF 8
ENDMDL
MODEL      793
REMARK  Name = ZINC000004894878
REMARK                            x       y       z     vdW  Elec       q    Type
REMARK                         _______ _______ _______ _____ _____    ______ ____
ROOT
ATOM      1  C   LIG    1        1.720  -2.237  -2.998  0.00  0.00    +0.250 C 
ENDROOT
BRANCH   1   2
ATOM      2  C   LIG    1        1.932  -3.726  -3.094  0.00  0.00    +0.510 C 
ATOM      3  O   LIG    1        1.463  -4.346  -4.024  0.00  0.00    -0.530 OA
ATOM      4  N   LIG    1        2.643  -4.368  -2.146  0.00  0.00    -0.850 N 
ATOM      5  H   LIG    1        2.779  -5.326  -2.208  0.00  0.00    +0.410 HD
ATOM      6  H   LIG    1        3.018  -3.872  -1.401  0.00  0.00    +0.400 HD
ENDBRANCH   1   2
BRANCH   1   7
ATOM      7  N   LIG    1        0.922  -1.783  -4.139  0.00  0.00    -0.710 N 
ATOM      8  H   LIG    1       -0.040  -1.692  -4.053  0.00  0.00    +0.410 HD
ATOM      9  C   LIG    1        1.525  -1.491  -5.309  0.00  0.00    +0.520 C 
ATOM     10  O   LIG    1        2.727  -1.604  -5.416  0.00  0.00    -0.530 OA
BRANCH   9  11
ATOM     11  C   LIG    1        0.704  -1.023  -6.483  0.00  0.00    +0.300 C 
BRANCH  11  12
ATOM     12  N   LIG    1        1.586  -0.774  -7.627  0.00  0.00    -0.720 N 
ATOM     13  H   LIG    1        2.541  -0.917  -7.543  0.00  0.00    +0.410 HD
ATOM     14  C   LIG    1        1.069  -0.345  -8.795  0.00  0.00    +0.510 C 
ATOM     15  O   LIG    1       -0.126  -0.166  -8.900  0.00  0.00    -0.550 OA
ATOM     16  C   LIG    1        1.976  -0.089  -9.971  0.00  0.00    +0.110 C 
ENDBRANCH  11  12
ENDBRANCH   9  11
ENDBRANCH   1   7
BRANCH   1  17
ATOM     17  C   LIG    1        0.982  -1.910  -1.698  0.00  0.00    +0.080 C 
BRANCH  17  18
ATOM     18  C   LIG    1        0.877  -0.392  -1.539  0.00  0.00    +0.090 C 
BRANCH  18  20
ATOM     19  C   LIG    1       -0.022   1.810   0.012  0.00  0.00    +0.140 C 
ATOM     20  S   LIG    1        0.002  -0.004   0.002  0.00  0.00    -0.260 S 
ENDBRANCH  18  20
ENDBRANCH  17  18
ENDBRANCH   1  17
TORSDOF 7
ENDMDL
MODEL      794
REMARK  Name = ZINC000002532436
REMARK                            x       y       z     vdW  Elec       q    Type
REMARK                         _______ _______ _______ _____ _____    ______ ____
ROOT
ATOM      1  C   LIG    1       -0.018   1.461   0.010  0.00  0.00    +0.350 C 
ATOM      2  N   LIG    1        0.002  -0.004   0.002  0.00  0.00    -0.480 N 
ATOM      3  C   LIG    1        0.009  -0.806  -1.107  0.00  0.00    +0.500 A 
ATOM      4  N   LIG    1        0.027  -2.061  -0.734  0.00  0.00    -0.460 NA
ATOM      5  C   LIG    1        0.033  -2.119   0.624  0.00  0.00    -0.070 A 
ATOM      6  C   LIG    1        0.052  -3.211   1.596  0.00  0.00    +0.590 A 
ATOM      7  O   LIG    1        0.061  -4.372   1.228  0.00  0.00    -0.480 OA
ATOM      8  N   LIG    1        0.050  -2.904   2.911  0.00  0.00    -0.550 N 
ATOM      9  C   LIG    1        0.064  -3.981   3.905  0.00  0.00    +0.360 C 
ATOM     10  C   LIG    1        0.040  -1.625   3.321  0.00  0.00    +0.710 A 
ATOM     11  O   LIG    1        0.043  -1.390   4.514  0.00  0.00    -0.530 OA
ATOM     12  N   LIG    1        0.027  -0.595   2.457  0.00  0.00    -0.510 N 
ATOM     13  C   LIG    1        0.017   0.778   2.967  0.00  0.00    +0.330 C 
ATOM     14  C   LIG    1        0.024  -0.815   1.098  0.00  0.00    +0.250 A 
ENDROOT
BRANCH   3  15
ATOM     15  N   LIG    1       -0.002  -0.360  -2.417  0.00  0.00    -0.830 N 
ATOM     16  H   LIG    1        0.003  -1.000  -3.146  0.00  0.00    +0.430 HD
ATOM     17  H   LIG    1       -0.015   0.591  -2.605  0.00  0.00    +0.410 HD
ENDBRANCH   3  15
TORSDOF 1
ENDMDL
MODEL      795
REMARK  Name = ZINC000019015100
REMARK                            x       y       z     vdW  Elec       q    Type
REMARK                         _______ _______ _______ _____ _____    ______ ____
ROOT
ATOM      1  N   LIG    1        2.524  -0.409  -0.206  0.00  0.00    -0.640 N 
ATOM      2  H   LIG    1        2.710   0.525  -0.387  0.00  0.00    +0.420 HD
ATOM      3  C   LIG    1        3.538  -1.269   0.011  0.00  0.00    +0.510 C 
ATOM      4  O   LIG    1        3.305  -2.438   0.237  0.00  0.00    -0.450 OA
ENDROOT
BRANCH   1   9
ATOM      5  C   LIG    1        0.009  -0.041  -0.375  0.00  0.00    +0.330 A 
ATOM      6  N   LIG    1       -1.040  -0.809  -0.268  0.00  0.00    -0.340 NA
ATOM      7  O   LIG    1       -0.589  -2.123   0.009  0.00  0.00    +0.030 OA
ATOM      8  N   LIG    1        0.826  -2.088   0.062  0.00  0.00    -0.260 NA
ATOM      9  C   LIG    1        1.205  -0.863  -0.170  0.00  0.00    +0.280 A 
BRANCH   5  10
ATOM     10  N   LIG    1       -0.006   1.323  -0.644  0.00  0.00    -0.820 N 
ATOM     11  H   LIG    1       -0.850   1.784  -0.769  0.00  0.00    +0.420 HD
ATOM     12  H   LIG    1        0.829   1.814  -0.710  0.00  0.00    +0.420 HD
ENDBRANCH   5  10
ENDBRANCH   1   9
BRANCH   3  13
ATOM     13  C   LIG    1        4.963  -0.779  -0.029  0.00  0.00    +0.230 C 
BRANCH  13  14
ATOM     14  N   LIG    1        5.878  -1.923   0.088  0.00  0.00    -0.520 NA
ATOM     15  C   LIG    1        7.262  -1.471   0.292  0.00  0.00    +0.160 C 
ATOM     16  C   LIG    1        8.170  -2.691   0.469  0.00  0.00    +0.220 C 
ATOM     17  O   LIG    1        8.041  -3.544  -0.672  0.00  0.00    -0.390 OA
ATOM     18  C   LIG    1        6.706  -4.003  -0.900  0.00  0.00    +0.230 C 
ATOM     19  C   LIG    1        5.783  -2.796  -1.090  0.00  0.00    +0.150 C 
ENDBRANCH  13  14
ENDBRANCH   3  13
TORSDOF 4
ENDMDL
MODEL      796
REMARK  Name = ZINC000005063409
REMARK                            x       y       z     vdW  Elec       q    Type
REMARK                         _______ _______ _______ _____ _____    ______ ____
ROOT
ATOM      1  C   LIG    1        0.746  -1.888  -1.280  0.00  0.00    +0.280 C 
ATOM      2  O   LIG    1       -0.549  -2.436  -1.609  0.00  0.00    -0.380 OA
ATOM      3  C   LIG    1       -0.279  -3.741  -2.167  0.00  0.00    +0.140 C 
ATOM      4  C   LIG    1        0.968  -3.539  -3.057  0.00  0.00    +0.170 C 
ATOM      5  C   LIG    1        1.660  -2.292  -2.458  0.00  0.00    +0.130 C 
ENDROOT
BRANCH   4   6
ATOM      6  O   LIG    1        0.583  -3.300  -4.412  0.00  0.00    -0.500 OA
ATOM      7  H   LIG    1        1.327  -3.167  -5.015  0.00  0.00    +0.370 HD
ENDBRANCH   4   6
BRANCH   5   8
ATOM      8  O   LIG    1        1.725  -1.242  -3.425  0.00  0.00    -0.530 OA
ATOM      9  H   LIG    1        2.150  -0.436  -3.102  0.00  0.00    +0.390 HD
ENDBRANCH   5   8
BRANCH   1  10
ATOM     10  O   LIG    1        0.671  -0.465  -1.174  0.00  0.00    -0.360 OA
BRANCH  10  12
ATOM     11  C   LIG    1       -0.019   1.526   0.010  0.00  0.00    +0.050 C 
ATOM     12  C   LIG    1        0.002  -0.004   0.002  0.00  0.00    +0.170 C 
ENDBRANCH  10  12
ENDBRANCH   1  10
BRANCH   3  13
ATOM     13  C   LIG    1       -1.465  -4.216  -3.009  0.00  0.00    +0.240 C 
BRANCH  13  14
ATOM     14  O   LIG    1       -1.643  -3.337  -4.122  0.00  0.00    -0.520 OA
ATOM     15  H   LIG    1       -1.818  -2.419  -3.874  0.00  0.00    +0.370 HD
ENDBRANCH  13  14
BRANCH  13  16
ATOM     16  C   LIG    1       -2.732  -4.215  -2.151  0.00  0.00    +0.140 C 
BRANCH  16  17
ATOM     17  O   LIG    1       -3.816  -4.768  -2.900  0.00  0.00    -0.560 OA
ATOM     18  H   LIG    1       -4.653  -4.798  -2.417  0.00  0.00    +0.380 HD
ENDBRANCH  16  17
ENDBRANCH  13  16
ENDBRANCH   3  13
TORSDOF 8
ENDMDL
MODEL      797
REMARK  Name = ZINC000004303636
REMARK                            x       y       z     vdW  Elec       q    Type
REMARK                         _______ _______ _______ _____ _____    ______ ____
ROOT
ATOM      1  C   LIG    1       -1.432  -1.925   0.005  0.00  0.00    +0.300 C 
ATOM      2  O   LIG    1       -0.992  -2.437   1.265  0.00  0.00    -0.380 OA
ATOM      3  C   LIG    1       -1.020  -3.863   1.357  0.00  0.00    +0.150 C 
ATOM      4  C   LIG    1       -2.458  -4.356   1.173  0.00  0.00    +0.130 C 
ATOM      5  C   LIG    1       -2.988  -3.867  -0.179  0.00  0.00    +0.190 C 
ATOM      6  C   LIG    1       -2.886  -2.340  -0.233  0.00  0.00    +0.260 C 
ENDROOT
BRANCH   6   7
ATOM      7  N   LIG    1       -3.323  -1.866  -1.549  0.00  0.00    -0.720 N 
ATOM      8  H   LIG    1       -3.268  -2.454  -2.318  0.00  0.00    +0.400 HD
ATOM      9  C   LIG    1       -3.800  -0.614  -1.690  0.00  0.00    +0.510 C 
ATOM     10  O   LIG    1       -3.867   0.121  -0.728  0.00  0.00    -0.520 OA
ATOM     11  C   LIG    1       -4.249  -0.127  -3.044  0.00  0.00    +0.080 C 
ENDBRANCH   6   7
BRANCH   5  12
ATOM     12  O   LIG    1       -4.354  -4.262  -0.328  0.00  0.00    -0.540 OA
ATOM     13  H   LIG    1       -4.492  -5.219  -0.297  0.00  0.00    +0.380 HD
ENDBRANCH   5  12
BRANCH   4  14
ATOM     14  O   LIG    1       -3.278  -3.840   2.224  0.00  0.00    -0.540 OA
ATOM     15  H   LIG    1       -2.996  -4.107   3.109  0.00  0.00    +0.380 HD
ENDBRANCH   4  14
BRANCH   1  16
ATOM     16  O   LIG    1       -1.339  -0.499   0.012  0.00  0.00    -0.340 OA
BRANCH  16  18
ATOM     17  C   LIG    1       -0.019   1.526   0.010  0.00  0.00    +0.050 C 
ATOM     18  C   LIG    1        0.002  -0.004   0.002  0.00  0.00    +0.150 C 
ENDBRANCH  16  18
ENDBRANCH   1  16
BRANCH   3  19
ATOM     19  C   LIG    1       -0.504  -4.296   2.730  0.00  0.00    +0.210 C 
BRANCH  19  20
ATOM     20  O   LIG    1        0.873  -3.937   2.856  0.00  0.00    -0.560 OA
ATOM     21  H   LIG    1        1.268  -4.182   3.704  0.00  0.00    +0.390 HD
ENDBRANCH  19  20
ENDBRANCH   3  19
TORSDOF 7
ENDMDL
MODEL      798
REMARK  Name = ZINC000005339394
REMARK                            x       y       z     vdW  Elec       q    Type
REMARK                         _______ _______ _______ _____ _____    ______ ____
ROOT
ATOM      1  C   LIG    1        0.746  -1.888  -1.280  0.00  0.00    +0.290 C 
ATOM      2  O   LIG    1       -0.557  -2.416  -1.538  0.00  0.00    -0.380 OA
ATOM      3  C   LIG    1       -0.600  -3.841  -1.638  0.00  0.00    +0.160 C 
ATOM      4  C   LIG    1        0.285  -4.297  -2.800  0.00  0.00    +0.170 C 
ATOM      5  C   LIG    1        1.713  -3.790  -2.574  0.00  0.00    +0.150 C 
ATOM      6  C   LIG    1        1.685  -2.266  -2.428  0.00  0.00    +0.140 C 
ENDROOT
BRANCH   5   7
ATOM      7  O   LIG    1        2.531  -4.150  -3.689  0.00  0.00    -0.550 OA
ATOM      8  H   LIG    1        3.450  -3.861  -3.613  0.00  0.00    +0.380 HD
ENDBRANCH   5   7
BRANCH   4   9
ATOM      9  O   LIG    1       -0.223  -3.764  -4.025  0.00  0.00    -0.510 OA
ATOM     10  H   LIG    1        0.290  -4.014  -4.806  0.00  0.00    +0.380 HD
ENDBRANCH   4   9
BRANCH   6  11
ATOM     11  O   LIG    1        1.216  -1.678  -3.643  0.00  0.00    -0.520 OA
ATOM     12  H   LIG    1        1.173  -0.712  -3.622  0.00  0.00    +0.380 HD
ENDBRANCH   6  11
BRANCH   1  13
ATOM     13  O   LIG    1        0.671  -0.465  -1.174  0.00  0.00    -0.360 OA
BRANCH  13  15
ATOM     14  C   LIG    1       -0.019   1.526   0.010  0.00  0.00    +0.050 C 
ATOM     15  C   LIG    1        0.002  -0.004   0.002  0.00  0.00    +0.170 C 
ENDBRANCH  13  15
ENDBRANCH   1  13
BRANCH   3  16
ATOM     16  C   LIG    1       -2.041  -4.292  -1.886  0.00  0.00    +0.240 C 
BRANCH  16  17
ATOM     17  O   LIG    1       -2.478  -3.811  -3.159  0.00  0.00    -0.520 OA
ATOM     18  H   LIG    1       -2.462  -2.847  -3.242  0.00  0.00    +0.380 HD
ENDBRANCH  16  17
BRANCH  16  19
ATOM     19  C   LIG    1       -2.947  -3.729  -0.789  0.00  0.00    +0.160 C 
BRANCH  19  20
ATOM     20  O   LIG    1       -4.270  -4.244  -0.954  0.00  0.00    -0.560 OA
ATOM     21  H   LIG    1       -4.900  -3.928  -0.292  0.00  0.00    +0.380 HD
ENDBRANCH  19  20
ENDBRANCH  16  19
ENDBRANCH   3  16
TORSDOF 9
ENDMDL
MODEL      799
REMARK  Name = ZINC000002772217
REMARK                            x       y       z     vdW  Elec       q    Type
REMARK                         _______ _______ _______ _____ _____    ______ ____
ROOT
ATOM      1  CA  GLY A  2       -3.499  -1.070  -1.120  0.00  0.00    +0.310 C 
ENDROOT
BRANCH   1   2
ATOM      2  C   GLY A  2       -4.069  -1.005  -2.513  0.00  0.00    +0.520 C 
ATOM      3  N   PRO A  3       -5.330  -1.422  -2.746  0.00  0.00    -0.580 N 
ATOM      4  CD  PRO A  3       -6.259  -1.956  -1.734  0.00  0.00    +0.230 C 
ATOM      5  CG  PRO A  3       -7.671  -1.698  -2.316  0.00  0.00    +0.020 C 
ATOM      6  CB  PRO A  3       -7.436  -1.955  -3.828  0.00  0.00    +0.050 C 
ATOM      7  CA  PRO A  3       -6.008  -1.414  -4.051  0.00  0.00    +0.130 C 
ATOM      8  O   GLY A  2       -3.394  -0.577  -3.425  0.00  0.00    -0.530 OA
BRANCH   7   9
ATOM      9  C   PRO A  3       -5.266  -2.304  -5.015  0.00  0.00    +0.500 C 
ATOM     10  OXT PRO A  3       -4.366  -3.022  -4.613  0.00  0.00    -0.680 OA
ATOM     11  O   PRO A  3       -5.567  -2.306  -6.196  0.00  0.00    -0.690 OA
ENDBRANCH   7   9
ENDBRANCH   1   2
BRANCH   1  13
ATOM     12  C   ALA A  1       -1.412  -0.526   0.013  0.00  0.00    +0.500 C 
ATOM     13  N   GLY A  2       -2.125  -0.563  -1.130  0.00  0.00    -0.680 N 
ATOM     14  H   GLY A  2       -1.728  -0.253  -1.960  0.00  0.00    +0.420 HD
ATOM     15  O   ALA A  1       -1.908  -0.912   1.050  0.00  0.00    -0.540 OA
BRANCH  12  17
ATOM     16  CB  ALA A  1       -0.019   1.526   0.010  0.00  0.00    +0.120 C 
ATOM     17  CA  ALA A  1        0.002  -0.004   0.002  0.00  0.00    +0.180 C 
BRANCH  17  18
ATOM     18  N   ALA A  1        0.713  -0.491   1.192  0.00  0.00    -0.620 N 
ATOM     19  H1  ALA A  1        0.240  -0.165   2.022  0.00  0.00    +0.440 HD
ATOM     20  H2  ALA A  1        1.659  -0.141   1.185  0.00  0.00    +0.440 HD
ATOM     21  H3  ALA A  1        0.726  -1.500   1.187  0.00  0.00    +0.440 HD
ENDBRANCH  17  18
ENDBRANCH  12  17
ENDBRANCH   1  13
TORSDOF 5
ENDMDL
MODEL      800
REMARK  Name = ZINC000002772215
REMARK                            x       y       z     vdW  Elec       q    Type
REMARK                         _______ _______ _______ _____ _____    ______ ____
ROOT
ATOM      1  CA  GLY A  2        0.738  -0.999  -3.621  0.00  0.00    +0.320 C 
ENDROOT
BRANCH   1   2
ATOM      2  C   GLY A  2       -0.207  -0.940  -4.792  0.00  0.00    +0.520 C 
ATOM      3  N   PRO A  3        0.208  -1.329  -6.014  0.00  0.00    -0.580 N 
ATOM      4  CD  PRO A  3        1.552  -1.836  -6.343  0.00  0.00    +0.240 C 
ATOM      5  CG  PRO A  3        1.725  -1.551  -7.856  0.00  0.00    +0.020 C 
ATOM      6  CB  PRO A  3        0.293  -1.821  -8.389  0.00  0.00    +0.050 C 
ATOM      7  CA  PRO A  3       -0.606  -1.323  -7.238  0.00  0.00    +0.130 C 
ATOM      8  O   GLY A  2       -1.343  -0.542  -4.636  0.00  0.00    -0.540 OA
BRANCH   7   9
ATOM      9  C   PRO A  3       -1.792  -2.240  -7.081  0.00  0.00    +0.500 C 
ATOM     10  OXT PRO A  3       -2.828  -2.005  -7.680  0.00  0.00    -0.690 OA
ATOM     11  O   PRO A  3       -1.716  -3.216  -6.355  0.00  0.00    -0.690 OA
ENDBRANCH   7   9
ENDBRANCH   1   2
BRANCH   1  13
ATOM     12  C   ALA A  1        0.707  -0.490  -1.238  0.00  0.00    +0.500 C 
ATOM     13  N   GLY A  2        0.053  -0.526  -2.415  0.00  0.00    -0.680 N 
ATOM     14  H   GLY A  2       -0.873  -0.239  -2.465  0.00  0.00    +0.420 HD
ATOM     15  O   ALA A  1        1.864  -0.849  -1.176  0.00  0.00    -0.530 OA
BRANCH  12  17
ATOM     16  CB  ALA A  1       -0.019   1.526   0.010  0.00  0.00    +0.120 C 
ATOM     17  CA  ALA A  1        0.002  -0.004   0.002  0.00  0.00    +0.180 C 
BRANCH  17  18
ATOM     18  N   ALA A  1        0.713  -0.491   1.192  0.00  0.00    -0.620 N 
ATOM     19  H1  ALA A  1        1.659  -0.141   1.185  0.00  0.00    +0.440 HD
ATOM     20  H2  ALA A  1        0.726  -1.500   1.187  0.00  0.00    +0.440 HD
ATOM     21  H3  ALA A  1        0.240  -0.165   2.022  0.00  0.00    +0.440 HD
ENDBRANCH  17  18
ENDBRANCH  12  17
ENDBRANCH   1  13
TORSDOF 5
ENDMDL
MODEL      801
REMARK  Name = ZINC000002772216
REMARK                            x       y       z     vdW  Elec       q    Type
REMARK                         _______ _______ _______ _____ _____    ______ ____
ROOT
ATOM      1  CA  GLY A  2       -3.499  -1.070  -1.120  0.00  0.00    +0.310 C 
ENDROOT
BRANCH   1   2
ATOM      2  C   GLY A  2       -4.069  -1.005  -2.513  0.00  0.00    +0.520 C 
ATOM      3  N   PRO A  3       -5.330  -1.422  -2.746  0.00  0.00    -0.580 N 
ATOM      4  CD  PRO A  3       -6.259  -1.956  -1.734  0.00  0.00    +0.240 C 
ATOM      5  CG  PRO A  3       -7.257  -2.830  -2.533  0.00  0.00    +0.020 C 
ATOM      6  CB  PRO A  3       -7.417  -2.006  -3.838  0.00  0.00    +0.050 C 
ATOM      7  CA  PRO A  3       -6.008  -1.414  -4.051  0.00  0.00    +0.130 C 
ATOM      8  O   GLY A  2       -3.394  -0.577  -3.425  0.00  0.00    -0.540 OA
BRANCH   7   9
ATOM      9  C   PRO A  3       -6.117  -0.005  -4.574  0.00  0.00    +0.500 C 
ATOM     10  OXT PRO A  3       -6.130   0.199  -5.776  0.00  0.00    -0.690 OA
ATOM     11  O   PRO A  3       -6.193   0.930  -3.796  0.00  0.00    -0.690 OA
ENDBRANCH   7   9
ENDBRANCH   1   2
BRANCH   1  13
ATOM     12  C   ALA A  1       -1.412  -0.526   0.013  0.00  0.00    +0.500 C 
ATOM     13  N   GLY A  2       -2.125  -0.563  -1.130  0.00  0.00    -0.680 N 
ATOM     14  H   GLY A  2       -1.728  -0.253  -1.960  0.00  0.00    +0.420 HD
ATOM     15  O   ALA A  1       -1.908  -0.912   1.050  0.00  0.00    -0.530 OA
BRANCH  12  17
ATOM     16  CB  ALA A  1       -0.019   1.526   0.010  0.00  0.00    +0.130 C 
ATOM     17  CA  ALA A  1        0.002  -0.004   0.002  0.00  0.00    +0.180 C 
BRANCH  17  18
ATOM     18  N   ALA A  1        0.713  -0.491   1.192  0.00  0.00    -0.620 N 
ATOM     19  H1  ALA A  1        0.240  -0.165   2.022  0.00  0.00    +0.440 HD
ATOM     20  H2  ALA A  1        1.659  -0.141   1.185  0.00  0.00    +0.440 HD
ATOM     21  H3  ALA A  1        0.726  -1.500   1.187  0.00  0.00    +0.440 HD
ENDBRANCH  17  18
ENDBRANCH  12  17
ENDBRANCH   1  13
TORSDOF 5
ENDMDL
MODEL      802
REMARK  Name = ZINC000019288393
REMARK                            x       y       z     vdW  Elec       q    Type
REMARK                         _______ _______ _______ _____ _____    ______ ____
ROOT
ATOM      1  C   LIG    1       -0.019   1.526   0.010  0.00  0.00    +0.110 C 
ATOM      2  C   LIG    1        0.002  -0.004   0.002  0.00  0.00    +0.270 C 
ATOM      3  C   LIG    1       -1.439  -0.563   0.092  0.00  0.00    +0.150 C 
ATOM      4  C   LIG    1       -1.572  -0.750   1.615  0.00  0.00    +0.240 C 
ATOM      5  C   LIG    1       -2.268  -2.035   1.949  0.00  0.00    +0.010 A 
ATOM      6  N   LIG    1       -3.355  -2.576   1.520  0.00  0.00    -0.250 NA
ATOM      7  O   LIG    1       -3.509  -3.643   2.084  0.00  0.00    +0.300 OA
ATOM      8  N   LIG    1       -2.634  -3.920   2.881  0.00  0.00    -0.050 N 
ATOM      9  O   LIG    1       -2.576  -5.102   3.660  0.00  0.00    -0.430 OA
ATOM     10  C   LIG    1       -1.761  -2.957   2.904  0.00  0.00    +0.040 A 
ATOM     11  C   LIG    1       -0.524  -2.800   3.724  0.00  0.00    +0.210 C 
ATOM     12  C   LIG    1        0.246  -1.526   3.418  0.00  0.00    +0.180 C 
ATOM     13  C   LIG    1       -0.137  -0.920   2.094  0.00  0.00    +0.080 C 
ATOM     14  N   LIG    1        0.678  -0.512   1.201  0.00  0.00    -0.170 N 
ATOM     15  O   LIG    1        2.085  -0.546   1.351  0.00  0.00    -0.500 OA
ENDROOT
BRANCH   2  16
ATOM     16  N   LIG    1        0.670  -0.499  -1.209  0.00  0.00    -0.800 NA
ATOM     17  H   LIG    1        0.642  -1.506  -1.251  0.00  0.00    +0.350 HD
ATOM     18  H   LIG    1        1.619  -0.160  -1.263  0.00  0.00    +0.370 HD
ENDBRANCH   2  16
BRANCH   4  19
ATOM     19  O   LIG    1       -2.200   0.378   2.228  0.00  0.00    -0.500 OA
ATOM     20  H   LIG    1       -2.303   0.299   3.186  0.00  0.00    +0.400 HD
ENDBRANCH   4  19
TORSDOF 2
ENDMDL
MODEL      803
REMARK  Name = ZINC000019288386
REMARK                            x       y       z     vdW  Elec       q    Type
REMARK                         _______ _______ _______ _____ _____    ______ ____
ROOT
ATOM      1  C   LIG    1       -0.019   1.526   0.010  0.00  0.00    +0.120 C 
ATOM      2  C   LIG    1        0.002  -0.004   0.002  0.00  0.00    +0.270 C 
ATOM      3  C   LIG    1       -1.439  -0.563   0.092  0.00  0.00    +0.150 C 
ATOM      4  C   LIG    1       -1.199  -1.818   0.953  0.00  0.00    +0.240 C 
ATOM      5  C   LIG    1       -2.282  -1.995   1.974  0.00  0.00    +0.010 A 
ATOM      6  N   LIG    1       -3.567  -1.967   1.897  0.00  0.00    -0.250 NA
ATOM      7  O   LIG    1       -4.029  -2.155   3.008  0.00  0.00    +0.300 OA
ATOM      8  N   LIG    1       -3.195  -2.315   3.877  0.00  0.00    -0.050 N 
ATOM      9  O   LIG    1       -3.470  -2.542   5.248  0.00  0.00    -0.430 OA
ATOM     10  C   LIG    1       -2.010  -2.244   3.347  0.00  0.00    +0.040 A 
ATOM     11  C   LIG    1       -0.664  -2.397   3.973  0.00  0.00    +0.210 C 
ATOM     12  C   LIG    1        0.483  -2.205   2.996  0.00  0.00    +0.180 C 
ATOM     13  C   LIG    1        0.062  -1.492   1.740  0.00  0.00    +0.080 C 
ATOM     14  N   LIG    1        0.678  -0.512   1.201  0.00  0.00    -0.170 N 
ATOM     15  O   LIG    1        1.885   0.027   1.707  0.00  0.00    -0.500 OA
ENDROOT
BRANCH   2  16
ATOM     16  N   LIG    1        0.670  -0.499  -1.209  0.00  0.00    -0.800 NA
ATOM     17  H   LIG    1        0.642  -1.506  -1.251  0.00  0.00    +0.360 HD
ATOM     18  H   LIG    1        1.619  -0.160  -1.263  0.00  0.00    +0.370 HD
ENDBRANCH   2  16
BRANCH   4  19
ATOM     19  O   LIG    1       -1.028  -2.983   0.143  0.00  0.00    -0.500 OA
ATOM     20  H   LIG    1       -0.874  -3.793   0.647  0.00  0.00    +0.400 HD
ENDBRANCH   4  19
TORSDOF 2
ENDMDL
MODEL      804
REMARK  Name = ZINC000005828273
REMARK                            x       y       z     vdW  Elec       q    Type
REMARK                         _______ _______ _______ _____ _____    ______ ____
ROOT
ATOM      1  C   LIG    1       -3.591  -0.785   0.032  0.00  0.00    +0.310 C 
ENDROOT
BRANCH   1   2
ATOM      2  N   LIG    1       -2.332  -0.036   0.024  0.00  0.00    -0.670 N 
ATOM      3  H   LIG    1       -2.345   0.934   0.029  0.00  0.00    +0.410 HD
BRANCH   2   4
ATOM      4  C   LIG    1       -1.156  -0.694   0.009  0.00  0.00    +0.570 C 
ATOM      5  S   LIG    1       -1.133  -2.406   0.000  0.00  0.00    -0.630 S 
BRANCH   4   6
ATOM      6  N   LIG    1        0.002  -0.004   0.002  0.00  0.00    -0.530 N 
ATOM      7  H   LIG    1        0.849  -0.478  -0.009  0.00  0.00    +0.430 HD
BRANCH   6   8
ATOM      8  N   LIG    1       -0.016   1.362   0.009  0.00  0.00    -0.620 NA
ATOM      9  H   LIG    1       -0.555   1.720  -0.765  0.00  0.00    +0.350 HD
ATOM     10  H   LIG    1        0.920   1.736   0.003  0.00  0.00    +0.380 HD
ENDBRANCH   6   8
ENDBRANCH   4   6
ENDBRANCH   2   4
ENDBRANCH   1   2
BRANCH   1  11
ATOM     11  C   LIG    1       -4.767   0.193   0.049  0.00  0.00    +0.310 C 
BRANCH  11  12
ATOM     12  N   LIG    1       -6.026  -0.557   0.057  0.00  0.00    -0.670 N 
ATOM     13  H   LIG    1       -6.012  -1.527   0.051  0.00  0.00    +0.410 HD
BRANCH  12  14
ATOM     14  C   LIG    1       -7.202   0.101   0.071  0.00  0.00    +0.570 C 
ATOM     15  S   LIG    1       -7.225   1.813   0.081  0.00  0.00    -0.630 S 
BRANCH  14  16
ATOM     16  N   LIG    1       -8.360  -0.589   0.079  0.00  0.00    -0.530 N 
ATOM     17  H   LIG    1       -9.206  -0.115   0.089  0.00  0.00    +0.430 HD
BRANCH  16  18
ATOM     18  N   LIG    1       -8.341  -1.955   0.071  0.00  0.00    -0.620 NA
ATOM     19  H   LIG    1       -7.817  -2.305  -0.717  0.00  0.00    +0.350 HD
ATOM     20  H   LIG    1       -9.278  -2.329   0.078  0.00  0.00    +0.380 HD
ENDBRANCH  16  18
ENDBRANCH  14  16
ENDBRANCH  12  14
ENDBRANCH  11  12
ENDBRANCH   1  11
TORSDOF 9
ENDMDL
MODEL      805
REMARK  Name = ZINC000014592706
REMARK                            x       y       z     vdW  Elec       q    Type
REMARK                         _______ _______ _______ _____ _____    ______ ____
ROOT
ATOM      1  C   LIG    1       -2.518  -2.680   2.897  0.00  0.00    +0.300 C 
ENDROOT
BRANCH   1   2
ATOM      2  N   LIG    1       -2.544  -1.927   1.641  0.00  0.00    -0.690 N 
ATOM      3  H   LIG    1       -3.355  -1.900   1.109  0.00  0.00    +0.410 HD
BRANCH   2   7
ATOM      4  C   LIG    1       -0.019   1.526   0.010  0.00  0.00    +0.070 C 
ATOM      5  C   LIG    1        0.002  -0.004   0.002  0.00  0.00    +0.160 C 
ATOM      6  N   LIG    1       -1.369  -0.544   0.068  0.00  0.00    -0.730 N 
ATOM      7  C   LIG    1       -1.431  -1.266   1.220  0.00  0.00    +0.660 C 
ATOM      8  N   LIG    1       -0.292  -1.252   1.881  0.00  0.00    -0.660 NA
ATOM      9  H   LIG    1       -2.080  -0.411  -0.578  0.00  0.00    +0.420 HD
ATOM     10  C   LIG    1        0.650  -0.537   1.265  0.00  0.00    +0.520 C 
ATOM     11  O   LIG    1        1.790  -0.351   1.641  0.00  0.00    -0.480 OA
ENDBRANCH   2   7
ENDBRANCH   1   2
BRANCH   1  12
ATOM     12  C   LIG    1       -3.885  -3.324   3.135  0.00  0.00    -0.010 C 
BRANCH  12  13
ATOM     13  C   LIG    1       -3.858  -4.110   4.447  0.00  0.00    +0.080 C 
BRANCH  13  14
ATOM     14  CA  LIG    1       -5.226  -4.754   4.685  0.00  0.00    +0.080 C 
BRANCH  14  15
ATOM     15  N   LIG    1       -6.233  -3.703   4.882  0.00  0.00    -0.620 N 
ATOM     16  H1  LIG    1       -7.135  -4.128   5.039  0.00  0.00    +0.430 HD
ATOM     17  H2  LIG    1       -6.275  -3.118   4.061  0.00  0.00    +0.410 HD
ATOM     18  H3  LIG    1       -5.982  -3.142   5.683  0.00  0.00    +0.430 HD
ENDBRANCH  14  15
BRANCH  14  19
ATOM     19  C   LIG    1       -5.163  -5.627   5.911  0.00  0.00    +0.490 C 
ATOM     20  OXT LIG    1       -4.856  -6.803   5.807  0.00  0.00    -0.630 OA
ATOM     21  O   LIG    1       -5.421  -5.159   7.007  0.00  0.00    -0.670 OA
ENDBRANCH  14  19
ENDBRANCH  13  14
ENDBRANCH  12  13
ENDBRANCH   1  12
TORSDOF 7
ENDMDL
MODEL      806
REMARK  Name = ZINC000019168560
REMARK                            x       y       z     vdW  Elec       q    Type
REMARK                         _______ _______ _______ _____ _____    ______ ____
ROOT
ATOM      1  N   LIG    1        0.784  -1.991   1.089  0.00  0.00    -0.530 N 
ATOM      2  C   LIG    1       -0.120  -2.794   1.681  0.00  0.00    +0.680 A 
ATOM      3  N   LIG    1        0.187  -4.081   1.435  0.00  0.00    -0.530 N 
ATOM      4  C   LIG    1        1.337  -4.116   0.651  0.00  0.00    +0.100 A 
ATOM      5  C   LIG    1        2.089  -5.147   0.110  0.00  0.00    +0.040 A 
ATOM      6  C   LIG    1        3.210  -4.858  -0.644  0.00  0.00    +0.020 A 
ATOM      7  C   LIG    1        3.586  -3.544  -0.861  0.00  0.00    +0.020 A 
ATOM      8  C   LIG    1        2.843  -2.510  -0.326  0.00  0.00    +0.030 A 
ATOM      9  O   LIG    1       -1.071  -2.413   2.338  0.00  0.00    -0.560 OA
ATOM     10  C   LIG    1        1.713  -2.789   0.427  0.00  0.00    +0.100 A 
ENDROOT
BRANCH   1  11
ATOM     11  C   LIG    1        0.786  -0.526   1.129  0.00  0.00    +0.470 C 
BRANCH  11  12
ATOM     12  N   LIG    1        0.002  -0.004   0.002  0.00  0.00    -0.550 NA
ATOM     13  H   LIG    1       -0.935  -0.378   0.009  0.00  0.00    +0.360 HD
BRANCH  12  14
ATOM     14  N   LIG    1       -0.018   1.450   0.010  0.00  0.00    -0.690 NA
ATOM     15  H   LIG    1       -0.556   1.808  -0.764  0.00  0.00    +0.360 HD
ATOM     16  H   LIG    1        0.919   1.824   0.003  0.00  0.00    +0.350 HD
ENDBRANCH  12  14
ENDBRANCH  11  12
ENDBRANCH   1  11
BRANCH   3  17
ATOM     17  C   LIG    1       -0.562  -5.247   1.910  0.00  0.00    +0.500 C 
BRANCH  17  18
ATOM     18  N   LIG    1       -1.591  -5.603   0.923  0.00  0.00    -0.520 NA
ATOM     19  H   LIG    1       -2.197  -4.819   0.734  0.00  0.00    +0.320 HD
BRANCH  18  20
ATOM     20  N   LIG    1       -2.356  -6.759   1.363  0.00  0.00    -0.660 NA
ATOM     21  H   LIG    1       -3.063  -7.004   0.685  0.00  0.00    +0.360 HD
ATOM     22  H   LIG    1       -2.766  -6.598   2.270  0.00  0.00    +0.320 HD
ENDBRANCH  18  20
ENDBRANCH  17  18
ENDBRANCH   3  17
TORSDOF 6
ENDMDL
MODEL      807
REMARK  Name = ZINC000019366703
REMARK                            x       y       z     vdW  Elec       q    Type
REMARK                         _______ _______ _______ _____ _____    ______ ____
ROOT
ATOM      1  C   LIG    1       -0.607  -1.555  -0.086  0.00  0.00    +0.000 C 
ATOM      2  C   LIG    1        0.252  -1.861  -1.298  0.00  0.00    +0.470 C 
ATOM      3  N   LIG    1       -0.177  -2.825  -2.140  0.00  0.00    -0.690 NA
ATOM      4  C   LIG    1       -1.315  -3.495  -1.928  0.00  0.00    +0.650 C 
ATOM      5  N   LIG    1       -2.136  -3.296  -0.891  0.00  0.00    -0.700 N 
ATOM      6  H   LIG    1       -2.942  -3.831  -0.819  0.00  0.00    +0.410 HD
ATOM      7  O   LIG    1       -1.626  -4.347  -2.736  0.00  0.00    -0.550 OA
ATOM      8  O   LIG    1        1.286  -1.262  -1.503  0.00  0.00    -0.530 OA
ATOM      9  C   LIG    1       -1.877  -2.373   0.059  0.00  0.00    +0.520 C 
ATOM     10  O   LIG    1       -2.630  -2.203   0.994  0.00  0.00    -0.490 OA
ENDROOT
BRANCH   1  11
ATOM     11  N   LIG    1        0.212  -1.765   1.115  0.00  0.00    -0.800 NA
ATOM     12  H   LIG    1        0.992  -1.125   1.137  0.00  0.00    +0.360 HD
ATOM     13  H   LIG    1        0.528  -2.722   1.174  0.00  0.00    +0.360 HD
ENDBRANCH   1  11
BRANCH   1  14
ATOM     14  C   LIG    1       -0.997  -0.076  -0.140  0.00  0.00    +0.310 C 
BRANCH  14  16
ATOM     15  C   LIG    1       -2.516   1.502  -1.116  0.00  0.00    +0.320 C 
ATOM     16  N   LIG    1       -2.008   0.126  -1.186  0.00  0.00    -0.390 N 
ATOM     17  C   LIG    1       -1.403  -0.106  -2.504  0.00  0.00    +0.310 C 
ATOM     18  H   LIG    1       -2.770  -0.521  -1.047  0.00  0.00    +0.420 HD
ENDBRANCH  14  16
ENDBRANCH   1  14
TORSDOF 3
ENDMDL
MODEL      808
REMARK  Name = ZINC000013521513
REMARK                            x       y       z     vdW  Elec       q    Type
REMARK                         _______ _______ _______ _____ _____    ______ ____
ROOT
ATOM      1  CA  PRO A  1       -1.330   1.951   0.019  0.00  0.00    +0.140 C 
ATOM      2  CB  PRO A  1       -2.017   1.817  -1.357  0.00  0.00    +0.080 C 
ATOM      3  CG  PRO A  1       -2.646   3.219  -1.568  0.00  0.00    +0.170 C 
ATOM      4  CD  PRO A  1       -1.585   4.139  -0.915  0.00  0.00    +0.220 C 
ATOM      5  N   PRO A  1       -1.100   3.383   0.258  0.00  0.00    -0.560 N 
ATOM      6  C   PRO A  1       -0.539   3.918   1.361  0.00  0.00    +0.520 C 
ATOM      7  O   PRO A  1       -0.176   3.199   2.267  0.00  0.00    -0.520 OA
ENDROOT
BRANCH   6   8
ATOM      8  CA  PRO A  1       -0.363   5.411   1.467  0.00  0.00    +0.170 C 
ATOM      9  CB  PRO A  1        0.569   5.912   0.343  0.00  0.00    +0.100 C 
ATOM     10  CG  PRO A  1        1.410   7.008   1.049  0.00  0.00    +0.080 C 
ATOM     11  CD  PRO A  1        1.571   6.413   2.470  0.00  0.00    +0.270 C 
ATOM     12  N   PRO A  1        0.276   5.751   2.752  0.00  0.00    -0.500 N 
ATOM     13  H1  PRO A  1        0.434   4.907   3.283  0.00  0.00    +0.440 HD
ATOM     14  H2  PRO A  1       -0.318   6.376   3.276  0.00  0.00    +0.430 HD
ENDBRANCH   6   8
BRANCH   1  16
ATOM     15  O   PRO A  1        0.002  -0.004   0.002  0.00  0.00    -0.680 OA
ATOM     16  C   PRO A  1       -0.015   1.215   0.009  0.00  0.00    +0.500 C 
ATOM     17  OXT PRO A  1        1.033   1.839   0.002  0.00  0.00    -0.680 OA
ENDBRANCH   1  16
BRANCH   3  18
ATOM     18  OD  PRO A  1       -2.792   3.511  -2.959  0.00  0.00    -0.550 OA
ATOM     19  HD  PRO A  1       -3.181   4.377  -3.141  0.00  0.00    +0.380 HD
ENDBRANCH   3  18
TORSDOF 3
ENDMDL
MODEL      809
REMARK  Name = ZINC000043509371
REMARK                            x       y       z     vdW  Elec       q    Type
REMARK                         _______ _______ _______ _____ _____    ______ ____
ROOT
ATOM      1  C   LIG    1       -0.172   1.435  -0.031  0.00  0.00    +0.030 C 
ATOM      2  C   LIG    1       -0.059  -0.090   0.007  0.00  0.00    +0.130 C 
ATOM      3  C   LIG    1       -1.459  -0.705   0.082  0.00  0.00    +0.150 C 
ATOM      4  O   LIG    1       -1.349  -2.127   0.176  0.00  0.00    -0.370 OA
ATOM      5  C   LIG    1       -0.650  -2.582   1.337  0.00  0.00    +0.330 C 
ATOM      6  C   LIG    1        0.783  -2.042   1.313  0.00  0.00    +0.090 C 
ATOM      7  C   LIG    1        1.514  -2.477   2.584  0.00  0.00    +0.020 C 
ATOM      8  C   LIG    1        0.743  -0.513   1.243  0.00  0.00    +0.170 C 
ATOM      9  C   LIG    1        0.072   0.040   2.502  0.00  0.00    +0.050 C 
ENDROOT
BRANCH   6  10
ATOM     10  O   LIG    1        1.467  -2.556   0.169  0.00  0.00    -0.510 OA
ATOM     11  H   LIG    1        1.526  -3.521   0.146  0.00  0.00    +0.370 HD
ENDBRANCH   6  10
BRANCH   5  12
ATOM     12  O   LIG    1       -1.317  -2.112   2.510  0.00  0.00    -0.570 OA
ATOM     13  H   LIG    1       -2.232  -2.415   2.591  0.00  0.00    +0.390 HD
ENDBRANCH   5  12
BRANCH   2  14
ATOM     14  O   LIG    1        0.604  -0.550  -1.172  0.00  0.00    -0.510 OA
ATOM     15  H   LIG    1        0.150  -0.319  -1.994  0.00  0.00    +0.360 HD
ENDBRANCH   2  14
BRANCH   8  16
ATOM     16  O   LIG    1        2.074  -0.004   1.146  0.00  0.00    -0.530 OA
ATOM     17  H   LIG    1        2.641  -0.240   1.893  0.00  0.00    +0.370 HD
ENDBRANCH   8  16
BRANCH   3  18
ATOM     18  C   LIG    1       -2.245  -0.337  -1.177  0.00  0.00    +0.210 C 
BRANCH  18  19
ATOM     19  O   LIG    1       -3.588  -0.811  -1.056  0.00  0.00    -0.560 OA
ATOM     20  H   LIG    1       -4.146  -0.612  -1.820  0.00  0.00    +0.380 HD
ENDBRANCH  18  19
ENDBRANCH   3  18
TORSDOF 6
ENDMDL
MODEL      810
REMARK  Name = ZINC000043509323
REMARK                            x       y       z     vdW  Elec       q    Type
REMARK                         _______ _______ _______ _____ _____    ______ ____
ROOT
ATOM      1  C   LIG    1       -0.019   1.528   0.010  0.00  0.00    +0.040 C 
ATOM      2  C   LIG    1        0.002  -0.004   0.002  0.00  0.00    +0.100 C 
ATOM      3  C   LIG    1       -1.424  -0.537  -0.104  0.00  0.00    +0.310 C 
ATOM      4  O   LIG    1       -2.104  -0.342   1.138  0.00  0.00    -0.380 OA
ATOM      5  C   LIG    1       -1.534  -1.122   2.193  0.00  0.00    +0.160 C 
ATOM      6  C   LIG    1       -0.118  -0.633   2.483  0.00  0.00    +0.130 C 
ATOM      7  C   LIG    1       -0.177   0.720   3.200  0.00  0.00    +0.030 C 
ATOM      8  C   LIG    1        0.733  -0.540   1.225  0.00  0.00    +0.170 C 
ATOM      9  C   LIG    1        1.296  -1.935   0.899  0.00  0.00    +0.040 C 
ENDROOT
BRANCH   6  10
ATOM     10  O   LIG    1        0.503  -1.576   3.380  0.00  0.00    -0.550 OA
ATOM     11  H   LIG    1        0.043  -1.678   4.224  0.00  0.00    +0.380 HD
ENDBRANCH   6  10
BRANCH   3  12
ATOM     12  O   LIG    1       -2.121   0.164  -1.138  0.00  0.00    -0.540 OA
ATOM     13  H   LIG    1       -3.036  -0.125  -1.260  0.00  0.00    +0.390 HD
ENDBRANCH   3  12
BRANCH   2  14
ATOM     14  O   LIG    1        0.723  -0.424  -1.174  0.00  0.00    -0.560 OA
ATOM     15  H   LIG    1        0.330  -0.123  -2.005  0.00  0.00    +0.390 HD
ENDBRANCH   2  14
BRANCH   8  16
ATOM     16  O   LIG    1        1.853   0.324   1.498  0.00  0.00    -0.550 OA
ATOM     17  H   LIG    1        2.452   0.441   0.748  0.00  0.00    +0.380 HD
ENDBRANCH   8  16
BRANCH   5  18
ATOM     18  C   LIG    1       -2.396  -0.977   3.450  0.00  0.00    +0.210 C 
BRANCH  18  19
ATOM     19  O   LIG    1       -3.686  -1.544   3.212  0.00  0.00    -0.560 OA
ATOM     20  H   LIG    1       -4.286  -1.487   3.968  0.00  0.00    +0.390 HD
ENDBRANCH  18  19
ENDBRANCH   5  18
TORSDOF 6
ENDMDL
MODEL      811
REMARK  Name = ZINC000043509424
REMARK                            x       y       z     vdW  Elec       q    Type
REMARK                         _______ _______ _______ _____ _____    ______ ____
ROOT
ATOM      1  C   LIG    1       -0.813   1.133  -0.298  0.00  0.00    +0.070 C 
ATOM      2  C   LIG    1       -0.486  -0.353  -0.140  0.00  0.00    +0.130 C 
ATOM      3  O   LIG    1       -1.695  -1.089   0.058  0.00  0.00    -0.360 OA
ATOM      4  C   LIG    1       -1.504  -2.499   0.192  0.00  0.00    +0.270 C 
ATOM      5  C   LIG    1       -0.628  -2.779   1.415  0.00  0.00    +0.150 C 
ATOM      6  C   LIG    1        0.706  -2.043   1.258  0.00  0.00    +0.170 C 
ATOM      7  C   LIG    1        1.449  -2.584   0.035  0.00  0.00    +0.050 C 
ATOM      8  C   LIG    1       -0.371  -4.284   1.526  0.00  0.00    +0.040 C 
ATOM      9  C   LIG    1        0.432  -0.547   1.070  0.00  0.00    +0.080 C 
ATOM     10  C   LIG    1        1.752   0.189   0.835  0.00  0.00    +0.020 C 
ENDROOT
BRANCH   6  11
ATOM     11  O   LIG    1        1.502  -2.241   2.428  0.00  0.00    -0.530 OA
ATOM     12  H   LIG    1        2.363  -1.802   2.397  0.00  0.00    +0.370 HD
ENDBRANCH   6  11
BRANCH   5  13
ATOM     13  O   LIG    1       -1.292  -2.320   2.594  0.00  0.00    -0.510 OA
ATOM     14  H   LIG    1       -2.147  -2.743   2.754  0.00  0.00    +0.360 HD
ENDBRANCH   5  13
BRANCH   4  15
ATOM     15  O   LIG    1       -0.864  -3.007  -0.980  0.00  0.00    -0.560 OA
ATOM     16  H   LIG    1       -1.363  -2.863  -1.795  0.00  0.00    +0.390 HD
ENDBRANCH   4  15
BRANCH   9  17
ATOM     17  O   LIG    1       -0.204  -0.028   2.240  0.00  0.00    -0.520 OA
ATOM     18  H   LIG    1       -0.407   0.916   2.190  0.00  0.00    +0.360 HD
ENDBRANCH   9  17
BRANCH   4  19
ATOM     19  C   LIG    1       -2.862  -3.182   0.369  0.00  0.00    +0.190 C 
BRANCH  19  20
ATOM     20  O   LIG    1       -3.680  -2.919  -0.773  0.00  0.00    -0.560 OA
ATOM     21  H   LIG    1       -4.557  -3.322  -0.729  0.00  0.00    +0.390 HD
ENDBRANCH  19  20
ENDBRANCH   4  19
TORSDOF 6
ENDMDL
MODEL      812
REMARK  Name = ZINC000043509318
REMARK                            x       y       z     vdW  Elec       q    Type
REMARK                         _______ _______ _______ _____ _____    ______ ____
ROOT
ATOM      1  C   LIG    1       -0.019   1.526   0.010  0.00  0.00    +0.060 C 
ATOM      2  C   LIG    1        0.002  -0.004   0.002  0.00  0.00    +0.120 C 
ATOM      3  C   LIG    1        0.613  -0.500  -1.311  0.00  0.00    +0.160 C 
ATOM      4  O   LIG    1        1.966  -0.050  -1.405  0.00  0.00    -0.380 OA
ATOM      5  C   LIG    1        2.816  -0.531  -0.362  0.00  0.00    +0.300 C 
ATOM      6  C   LIG    1        2.293  -0.036   0.989  0.00  0.00    +0.090 C 
ATOM      7  C   LIG    1        3.164  -0.601   2.113  0.00  0.00    +0.040 C 
ATOM      8  C   LIG    1        0.848  -0.511   1.174  0.00  0.00    +0.170 C 
ATOM      9  C   LIG    1        0.812  -2.040   1.207  0.00  0.00    +0.040 C 
ENDROOT
BRANCH   6  10
ATOM     10  O   LIG    1        2.336   1.392   1.024  0.00  0.00    -0.530 OA
ATOM     11  H   LIG    1        3.221   1.762   0.908  0.00  0.00    +0.380 HD
ENDBRANCH   6  10
BRANCH   5  12
ATOM     12  O   LIG    1        4.144  -0.045  -0.566  0.00  0.00    -0.540 OA
ATOM     13  H   LIG    1        4.539  -0.320  -1.405  0.00  0.00    +0.390 HD
ENDBRANCH   5  12
BRANCH   2  14
ATOM     14  O   LIG    1       -1.332  -0.500   0.127  0.00  0.00    -0.540 OA
ATOM     15  H   LIG    1       -1.924  -0.220  -0.585  0.00  0.00    +0.380 HD
ENDBRANCH   2  14
BRANCH   8  16
ATOM     16  O   LIG    1        0.327   0.008   2.399  0.00  0.00    -0.530 OA
ATOM     17  H   LIG    1        0.820  -0.268   3.184  0.00  0.00    +0.380 HD
ENDBRANCH   8  16
BRANCH   3  18
ATOM     18  C   LIG    1       -0.192   0.051  -2.489  0.00  0.00    +0.200 C 
BRANCH  18  19
ATOM     19  O   LIG    1        0.306  -0.504  -3.708  0.00  0.00    -0.560 OA
ATOM     20  H   LIG    1       -0.158  -0.198  -4.499  0.00  0.00    +0.380 HD
ENDBRANCH  18  19
ENDBRANCH   3  18
TORSDOF 6
ENDMDL
MODEL      813
REMARK  Name = ZINC000001708922
REMARK                            x       y       z     vdW  Elec       q    Type
REMARK                         _______ _______ _______ _____ _____    ______ ____
ROOT
ATOM      1  C   UNK A  1        0.702  -2.107   0.967  0.00  0.00    +0.270 C 
ATOM      2  N   UNK A  1        1.367  -2.519  -0.261  0.00  0.00    -0.710 N 
ATOM      3  H   UNK A  1        0.884  -2.443  -1.099  0.00  0.00    +0.420 HD
ATOM      4  C   UNK A  2        2.615  -2.998  -0.284  0.00  0.00    +0.520 C 
ATOM      5  C   UNK A  2        3.445  -3.156   0.955  0.00  0.00    +0.270 C 
ATOM      6  N   UNK A  2        2.612  -3.179   2.150  0.00  0.00    -0.700 N 
ATOM      7  H   UNK A  2        2.981  -3.554   2.965  0.00  0.00    +0.420 HD
ATOM      8  O   UNK A  2        3.096  -3.318  -1.351  0.00  0.00    -0.520 OA
ATOM      9  C   UNK A  1        1.364  -2.705   2.171  0.00  0.00    +0.520 C 
ATOM     10  O   UNK A  1        0.739  -2.761   3.209  0.00  0.00    -0.520 OA
ENDROOT
BRANCH   1  11
ATOM     11  C   UNK A  1        0.749  -0.581   1.075  0.00  0.00    +0.210 C 
BRANCH  11  12
ATOM     12  O   UNK A  1        0.002  -0.004   0.002  0.00  0.00    -0.240 OA
BRANCH  12  13
ATOM     13  N   UNK A  1       -0.018   1.459   0.010  0.00  0.00    -0.660 NA
ATOM     14  H   UNK A  1       -0.556   1.817  -0.764  0.00  0.00    +0.370 HD
ATOM     15  H   UNK A  1        0.919   1.833   0.003  0.00  0.00    +0.340 HD
ENDBRANCH  12  13
ENDBRANCH  11  12
ENDBRANCH   1  11
BRANCH   5  16
ATOM     16  C   UNK A  2        4.427  -1.987   1.052  0.00  0.00    +0.210 C 
BRANCH  16  17
ATOM     17  O   UNK A  2        5.300  -2.189   2.165  0.00  0.00    -0.240 OA
BRANCH  17  18
ATOM     18  N   UNK A  2        6.285  -1.124   2.351  0.00  0.00    -0.660 NA
ATOM     19  H   UNK A  2        6.876  -1.312   3.147  0.00  0.00    +0.370 HD
ATOM     20  H   UNK A  2        5.834  -0.226   2.440  0.00  0.00    +0.340 HD
ENDBRANCH  17  18
ENDBRANCH  16  17
ENDBRANCH   5  16
TORSDOF 6
ENDMDL
MODEL      814
REMARK  Name = ZINC000137233994
REMARK                            x       y       z     vdW  Elec       q    Type
REMARK                         _______ _______ _______ _____ _____    ______ ____
ROOT
ATOM      1  C   LIG    1       -0.018   1.503   0.010  0.00  0.00    +0.130 C 
ATOM      2  C   LIG    1        0.002  -0.004   0.002  0.00  0.00    -0.250 A 
ATOM      3  C   LIG    1       -1.153  -0.704   0.004  0.00  0.00    +0.350 A 
ATOM      4  N   LIG    1       -1.116  -2.072  -0.004  0.00  0.00    -0.520 N 
ATOM      5  C   LIG    1        0.060  -2.726  -0.013  0.00  0.00    +0.700 A 
ATOM      6  N   LIG    1        1.226  -2.053  -0.016  0.00  0.00    -0.660 N 
ATOM      7  H   LIG    1        2.064  -2.540  -0.023  0.00  0.00    +0.430 HD
ATOM      8  O   LIG    1        0.069  -3.942  -0.020  0.00  0.00    -0.520 OA
ATOM      9  C   LIG    1        1.232  -0.705  -0.013  0.00  0.00    +0.550 A 
ATOM     10  O   LIG    1        2.287  -0.095  -0.016  0.00  0.00    -0.510 OA
ENDROOT
BRANCH   4  11
ATOM     11  C   LIG    1       -2.369  -2.831  -0.002  0.00  0.00    +0.390 C 
ATOM     12  C   LIG    1       -2.495  -3.612  -1.313  0.00  0.00    +0.220 C 
ATOM     13  N   LIG    1       -3.715  -4.432  -1.273  0.00  0.00    -0.670 NA
ATOM     14  H   LIG    1       -4.540  -3.851  -1.243  0.00  0.00    +0.340 HD
ATOM     15  C   LIG    1       -3.682  -5.361  -0.134  0.00  0.00    +0.210 C 
ATOM     16  C   LIG    1       -3.544  -4.562   1.165  0.00  0.00    +0.140 C 
ATOM     17  O   LIG    1       -2.370  -3.747   1.096  0.00  0.00    -0.360 OA
BRANCH  16  18
ATOM     18  C   LIG    1       -3.429  -5.526   2.348  0.00  0.00    +0.220 C 
BRANCH  18  19
ATOM     19  O   LIG    1       -3.418  -4.783   3.568  0.00  0.00    -0.570 OA
ATOM     20  H   LIG    1       -3.347  -5.331   4.362  0.00  0.00    +0.380 HD
ENDBRANCH  18  19
ENDBRANCH  16  18
ENDBRANCH   4  11
TORSDOF 3
ENDMDL
MODEL      815
REMARK  Name = ZINC000045460981
REMARK                            x       y       z     vdW  Elec       q    Type
REMARK                         _______ _______ _______ _____ _____    ______ ____
ROOT
ATOM      1  C   LIG    1        0.657  -2.104  -1.120  0.00  0.00    +0.210 C 
ENDROOT
BRANCH   1   2
ATOM      2  N   LIG    1        0.902  -2.514  -2.509  0.00  0.00    -0.820 NA
ATOM      3  H   LIG    1        0.882  -3.518  -2.598  0.00  0.00    +0.350 HD
ATOM      4  H   LIG    1        1.775  -2.138  -2.848  0.00  0.00    +0.360 HD
ENDBRANCH   1   2
BRANCH   1   5
ATOM      5  C   LIG    1        0.598  -0.600  -1.043  0.00  0.00    +0.470 C 
ATOM      6  O   LIG    1        1.088   0.070  -1.921  0.00  0.00    -0.490 OA
BRANCH   5   8
ATOM      7  C   LIG    1       -0.018   1.448   0.010  0.00  0.00    +0.290 C 
ATOM      8  O   LIG    1        0.002  -0.004   0.002  0.00  0.00    -0.360 OA
ENDBRANCH   5   8
ENDBRANCH   1   5
BRANCH   1   9
ATOM      9  C   LIG    1        1.792  -2.615  -0.229  0.00  0.00    +0.280 C 
BRANCH   9  10
ATOM     10  N   LIG    1        1.927  -4.065  -0.396  0.00  0.00    -0.580 N 
ATOM     11  C   LIG    1        1.256  -4.946   0.357  0.00  0.00    +0.520 C 
ATOM     12  C   LIG    1        1.624  -6.349  -0.073  0.00  0.00    +0.090 C 
ATOM     13  C   LIG    1        2.634  -6.124  -1.217  0.00  0.00    +0.100 C 
ATOM     14  O   LIG    1        0.478  -4.664   1.243  0.00  0.00    -0.470 OA
ATOM     15  C   LIG    1        2.726  -4.617  -1.317  0.00  0.00    +0.520 C 
ATOM     16  O   LIG    1        3.420  -4.006  -2.101  0.00  0.00    -0.470 OA
ENDBRANCH   9  10
ENDBRANCH   1   9
TORSDOF 5
ENDMDL
MODEL      816
REMARK  Name = ZINC000003160501
REMARK                            x       y       z     vdW  Elec       q    Type
REMARK                         _______ _______ _______ _____ _____    ______ ____
ROOT
ATOM      1  C   LIG    1       -0.018   1.503   0.010  0.00  0.00    +0.160 C 
ATOM      2  C   LIG    1        0.002  -0.004   0.002  0.00  0.00    -0.220 A 
ATOM      3  C   LIG    1       -1.153  -0.704   0.004  0.00  0.00    +0.290 A 
ATOM      4  N   LIG    1       -1.116  -2.072  -0.004  0.00  0.00    -0.550 N 
ATOM      5  C   LIG    1        0.060  -2.726  -0.013  0.00  0.00    +0.690 A 
ATOM      6  N   LIG    1        1.226  -2.053  -0.016  0.00  0.00    -0.660 N 
ATOM      7  H   LIG    1        2.064  -2.540  -0.023  0.00  0.00    +0.440 HD
ATOM      8  O   LIG    1        0.069  -3.942  -0.020  0.00  0.00    -0.520 OA
ATOM      9  C   LIG    1        1.232  -0.705  -0.013  0.00  0.00    +0.550 A 
ATOM     10  O   LIG    1        2.287  -0.095  -0.016  0.00  0.00    -0.490 OA
ENDROOT
BRANCH   4  11
ATOM     11  C   LIG    1       -2.369  -2.831  -0.002  0.00  0.00    +0.370 C 
BRANCH  11  12
ATOM     12  CA  LIG    1       -2.812  -3.088  -1.444  0.00  0.00    +0.070 C 
BRANCH  12  13
ATOM     13  N   LIG    1       -2.902  -1.810  -2.163  0.00  0.00    -0.620 N 
ATOM     14  H1  LIG    1       -3.194  -1.979  -3.114  0.00  0.00    +0.440 HD
ATOM     15  H2  LIG    1       -1.999  -1.360  -2.164  0.00  0.00    +0.410 HD
ATOM     16  H3  LIG    1       -3.575  -1.214  -1.706  0.00  0.00    +0.430 HD
ENDBRANCH  12  13
BRANCH  12  17
ATOM     17  C   LIG    1       -4.160  -3.760  -1.443  0.00  0.00    +0.490 C 
ATOM     18  OXT LIG    1       -4.234  -4.977  -1.419  0.00  0.00    -0.620 OA
ATOM     19  O   LIG    1       -5.177  -3.088  -1.466  0.00  0.00    -0.660 OA
ENDBRANCH  12  17
ENDBRANCH  11  12
ENDBRANCH   4  11
TORSDOF 4
ENDMDL
MODEL      817
REMARK  Name = ZINC000003160502
REMARK                            x       y       z     vdW  Elec       q    Type
REMARK                         _______ _______ _______ _____ _____    ______ ____
ROOT
ATOM      1  C   LIG    1       -0.018   1.503   0.010  0.00  0.00    +0.150 C 
ATOM      2  C   LIG    1        0.002  -0.004   0.002  0.00  0.00    -0.240 A 
ATOM      3  C   LIG    1       -1.153  -0.704   0.004  0.00  0.00    +0.340 A 
ATOM      4  N   LIG    1       -1.116  -2.072  -0.004  0.00  0.00    -0.550 N 
ATOM      5  C   LIG    1        0.060  -2.726  -0.013  0.00  0.00    +0.680 A 
ATOM      6  N   LIG    1        1.226  -2.053  -0.016  0.00  0.00    -0.660 N 
ATOM      7  H   LIG    1        2.064  -2.540  -0.023  0.00  0.00    +0.440 HD
ATOM      8  O   LIG    1        0.069  -3.942  -0.020  0.00  0.00    -0.550 OA
ATOM      9  C   LIG    1        1.232  -0.705  -0.013  0.00  0.00    +0.550 A 
ATOM     10  O   LIG    1        2.287  -0.095  -0.016  0.00  0.00    -0.490 OA
ENDROOT
BRANCH   4  11
ATOM     11  C   LIG    1       -2.369  -2.831  -0.002  0.00  0.00    +0.380 C 
BRANCH  11  12
ATOM     12  CA  LIG    1       -2.812  -3.088  -1.444  0.00  0.00    +0.070 C 
BRANCH  12  13
ATOM     13  N   LIG    1       -1.726  -3.750  -2.179  0.00  0.00    -0.610 N 
ATOM     14  H1  LIG    1       -0.909  -3.158  -2.179  0.00  0.00    +0.400 HD
ATOM     15  H2  LIG    1       -2.018  -3.920  -3.130  0.00  0.00    +0.440 HD
ATOM     16  H3  LIG    1       -1.505  -4.628  -1.734  0.00  0.00    +0.440 HD
ENDBRANCH  12  13
BRANCH  12  17
ATOM     17  C   LIG    1       -4.032  -3.972  -1.445  0.00  0.00    +0.500 C 
ATOM     18  OXT LIG    1       -3.951  -5.122  -1.842  0.00  0.00    -0.660 OA
ATOM     19  O   LIG    1       -5.100  -3.538  -1.048  0.00  0.00    -0.630 OA
ENDBRANCH  12  17
ENDBRANCH  11  12
ENDBRANCH   4  11
TORSDOF 4
ENDMDL
MODEL      818
REMARK  Name = ZINC000045556509
REMARK                            x       y       z     vdW  Elec       q    Type
REMARK                         _______ _______ _______ _____ _____    ______ ____
ROOT
ATOM      1  C   LIG    1        0.679  -2.115   1.088  0.00  0.00    +0.250 C 
ENDROOT
BRANCH   1   2
ATOM      2  N   LIG    1        0.950  -2.540   2.468  0.00  0.00    -0.820 NA
ATOM      3  H   LIG    1        1.829  -2.168   2.795  0.00  0.00    +0.360 HD
ATOM      4  H   LIG    1        0.932  -3.546   2.547  0.00  0.00    +0.360 HD
ENDBRANCH   1   2
BRANCH   1   5
ATOM      5  C   LIG    1        0.618  -0.611   1.029  0.00  0.00    +0.470 C 
ATOM      6  O   LIG    1        1.124   0.049   1.905  0.00  0.00    -0.480 OA
BRANCH   5   8
ATOM      7  C   LIG    1       -0.018   1.448   0.010  0.00  0.00    +0.290 C 
ATOM      8  O   LIG    1        0.002  -0.004   0.002  0.00  0.00    -0.360 OA
ENDBRANCH   5   8
ENDBRANCH   1   5
BRANCH   1   9
ATOM      9  C   LIG    1        1.796  -2.618   0.171  0.00  0.00    +0.080 C 
BRANCH   9  10
ATOM     10  S   LIG    1        1.773  -4.427   0.128  0.00  0.00    +0.060 S 
BRANCH  10  11
ATOM     11  C   LIG    1        3.120  -4.724  -0.968  0.00  0.00    +0.210 A 
ATOM     12  N   LIG    1        3.877  -3.813  -1.540  0.00  0.00    -0.330 NA
ATOM     13  N   LIG    1        4.768  -4.369  -2.280  0.00  0.00    -0.030 NA
ATOM     14  N   LIG    1        4.650  -5.652  -2.236  0.00  0.00    -0.070 NA
ATOM     15  N   LIG    1        3.575  -5.932  -1.375  0.00  0.00    -0.360 N 
ATOM     16  C   LIG    1        3.053  -7.250  -1.005  0.00  0.00    +0.390 C 
ENDBRANCH  10  11
ENDBRANCH   9  10
ENDBRANCH   1   9
TORSDOF 6
ENDMDL
MODEL      819
REMARK  Name = ZINC000072232686
REMARK                            x       y       z     vdW  Elec       q    Type
REMARK                         _______ _______ _______ _____ _____    ______ ____
ROOT
ATOM      1  C   LIG    1       -0.846  -0.529  -1.450  0.00  0.00    -0.710 A 
ATOM      2  C   LIG    1       -0.141  -1.105  -2.464  0.00  0.00    +0.290 A 
ATOM      3  C   LIG    1       -0.856  -1.537  -3.664  0.00  0.00    -0.200 A 
ATOM      4  C   LIG    1       -0.487  -2.134  -4.845  0.00  0.00    +0.140 C 
ATOM      5  C   LIG    1       -1.755  -2.290  -5.635  0.00  0.00    +0.500 C 
ATOM      6  N   LIG    1       -2.762  -1.800  -4.915  0.00  0.00    -0.580 NA
ATOM      7  O   LIG    1       -1.847  -2.781  -6.744  0.00  0.00    -0.370 OA
ATOM      8  C   LIG    1       -2.320  -1.333  -3.733  0.00  0.00    +0.310 A 
ATOM      9  C   LIG    1       -2.954  -0.736  -2.647  0.00  0.00    +0.000 A 
ATOM     10  C   LIG    1       -2.225  -0.353  -1.537  0.00  0.00    +0.190 A 
ENDROOT
BRANCH   1  11
ATOM     11  S   LIG    1        0.002  -0.004   0.002  0.00  0.00    +2.710 S 
ATOM     12  O   LIG    1       -0.792  -0.422   1.104  0.00  0.00    -0.940 OA
ATOM     13  O   LIG    1        1.360  -0.386  -0.166  0.00  0.00    -0.950 OA
BRANCH  11  14
ATOM     14  N   LIG    1       -0.020   1.652   0.011  0.00  0.00    -1.240 NA
ATOM     15  H   LIG    1       -0.867   2.125   0.018  0.00  0.00    +0.420 HD
ATOM     16  H   LIG    1        0.813   2.148   0.006  0.00  0.00    +0.430 HD
ENDBRANCH  11  14
ENDBRANCH   1  11
TORSDOF 2
ENDMDL
MODEL      820
REMARK  Name = ZINC000238857041
REMARK                            x       y       z     vdW  Elec       q    Type
REMARK                         _______ _______ _______ _____ _____    ______ ____
ROOT
ATOM      1  C   LIG    1       -1.247  -2.105   0.003  0.00  0.00    -0.090 A 
ATOM      2  C   LIG    1       -2.386  -2.860   0.004  0.00  0.00    +0.320 A 
ATOM      3  N   LIG    1       -1.998  -4.151  -0.005  0.00  0.00    -0.330 N 
ATOM      4  N   LIG    1       -0.596  -4.154  -0.012  0.00  0.00    -0.050 NA
ATOM      5  N   LIG    1       -0.188  -2.933  -0.012  0.00  0.00    -0.180 NA
ENDROOT
BRANCH   3   6
ATOM      6  C   LIG    1       -2.874  -5.326  -0.008  0.00  0.00    +0.260 C 
ATOM      7  C   LIG    1       -4.188  -5.020  -0.760  0.00  0.00    +0.240 C 
ATOM      8  O   LIG    1       -5.210  -5.717  -0.016  0.00  0.00    -0.350 OA
ATOM      9  C   LIG    1       -4.870  -5.520   1.374  0.00  0.00    +0.200 C 
ATOM     10  C   LIG    1       -3.330  -5.664   1.429  0.00  0.00    +0.160 C 
BRANCH  10  11
ATOM     11  O   LIG    1       -2.773  -4.739   2.365  0.00  0.00    -0.550 OA
ATOM     12  H   LIG    1       -3.077  -4.868   3.273  0.00  0.00    +0.390 HD
ENDBRANCH  10  11
ENDBRANCH   3   6
BRANCH   1  13
ATOM     13  C   LIG    1       -1.190  -0.632   0.010  0.00  0.00    +0.560 C 
ATOM     14  O   LIG    1       -2.218   0.016   0.023  0.00  0.00    -0.510 OA
BRANCH  13  16
ATOM     15  C   LIG    1       -0.018   1.448   0.010  0.00  0.00    +0.290 C 
ATOM     16  O   LIG    1        0.002  -0.004   0.002  0.00  0.00    -0.340 OA
ENDBRANCH  13  16
ENDBRANCH   1  13
TORSDOF 4
ENDMDL
MODEL      821
REMARK  Name = ZINC000238857039
REMARK                            x       y       z     vdW  Elec       q    Type
REMARK                         _______ _______ _______ _____ _____    ______ ____
ROOT
ATOM      1  C   LIG    1       -1.247  -2.105   0.003  0.00  0.00    -0.090 A 
ATOM      2  C   LIG    1       -2.386  -2.860   0.004  0.00  0.00    +0.340 A 
ATOM      3  N   LIG    1       -1.998  -4.151  -0.005  0.00  0.00    -0.340 N 
ATOM      4  N   LIG    1       -0.596  -4.154  -0.012  0.00  0.00    -0.050 NA
ATOM      5  N   LIG    1       -0.188  -2.933  -0.012  0.00  0.00    -0.180 NA
ENDROOT
BRANCH   3   6
ATOM      6  C   LIG    1       -2.874  -5.326  -0.008  0.00  0.00    +0.260 C 
ATOM      7  C   LIG    1       -4.181  -5.029   0.760  0.00  0.00    +0.240 C 
ATOM      8  O   LIG    1       -5.121  -4.619  -0.257  0.00  0.00    -0.360 OA
ATOM      9  C   LIG    1       -4.883  -5.504  -1.374  0.00  0.00    +0.200 C 
ATOM     10  C   LIG    1       -3.343  -5.648  -1.444  0.00  0.00    +0.160 C 
BRANCH  10  11
ATOM     11  O   LIG    1       -2.795  -4.712  -2.375  0.00  0.00    -0.550 OA
ATOM     12  H   LIG    1       -3.107  -4.830  -3.282  0.00  0.00    +0.390 HD
ENDBRANCH  10  11
ENDBRANCH   3   6
BRANCH   1  13
ATOM     13  C   LIG    1       -1.190  -0.632   0.010  0.00  0.00    +0.560 C 
ATOM     14  O   LIG    1       -2.218   0.016   0.023  0.00  0.00    -0.500 OA
BRANCH  13  16
ATOM     15  C   LIG    1       -0.018   1.448   0.010  0.00  0.00    +0.290 C 
ATOM     16  O   LIG    1        0.002  -0.004   0.002  0.00  0.00    -0.340 OA
ENDBRANCH  13  16
ENDBRANCH   1  13
TORSDOF 4
ENDMDL
MODEL      822
REMARK  Name = ZINC000044563583
REMARK                            x       y       z     vdW  Elec       q    Type
REMARK                         _______ _______ _______ _____ _____    ______ ____
ROOT
ATOM      1  S   LIG    1        0.812  -2.615  -2.853  0.00  0.00    -0.170 S 
ENDROOT
BRANCH   1   2
ATOM      2  C   LIG    1        0.657  -2.104  -1.120  0.00  0.00    +0.300 C 
BRANCH   2   3
ATOM      3  C   LIG    1        0.598  -0.600  -1.043  0.00  0.00    +0.450 C 
ATOM      4  O   LIG    1        1.088   0.070  -1.921  0.00  0.00    -0.470 OA
BRANCH   3   6
ATOM      5  C   LIG    1       -0.018   1.448   0.010  0.00  0.00    +0.280 C 
ATOM      6  O   LIG    1        0.002  -0.004   0.002  0.00  0.00    -0.340 OA
ENDBRANCH   3   6
ENDBRANCH   2   3
BRANCH   2   7
ATOM      7  O   LIG    1       -0.538  -2.656  -0.565  0.00  0.00    -0.520 OA
ATOM      8  H   LIG    1       -1.346  -2.379  -1.017  0.00  0.00    +0.390 HD
ENDBRANCH   2   7
ENDBRANCH   1   2
BRANCH   1   9
ATOM      9  C   LIG    1        1.020  -4.413  -2.732  0.00  0.00    +0.300 C 
BRANCH   9  10
ATOM     10  C   LIG    1        1.042  -5.011  -4.115  0.00  0.00    +0.450 C 
ATOM     11  O   LIG    1        0.500  -4.436  -5.029  0.00  0.00    -0.470 OA
BRANCH  10  12
ATOM     12  O   LIG    1        1.662  -6.181  -4.330  0.00  0.00    -0.340 OA
ATOM     13  C   LIG    1        1.642  -6.697  -5.687  0.00  0.00    +0.280 C 
ENDBRANCH  10  12
ENDBRANCH   9  10
BRANCH   9  14
ATOM     14  O   LIG    1        2.251  -4.705  -2.067  0.00  0.00    -0.520 OA
ATOM     15  H   LIG    1        3.034  -4.357  -2.517  0.00  0.00    +0.390 HD
ENDBRANCH   9  14
ENDBRANCH   1   9
TORSDOF 8
ENDMDL
MODEL      823
REMARK  Name = ZINC000044563585
REMARK                            x       y       z     vdW  Elec       q    Type
REMARK                         _______ _______ _______ _____ _____    ______ ____
ROOT
ATOM      1  S   LIG    1        2.152  -2.605  -2.017  0.00  0.00    -0.170 S 
ENDROOT
BRANCH   1   2
ATOM      2  C   LIG    1        0.657  -2.104  -1.120  0.00  0.00    +0.300 C 
BRANCH   2   3
ATOM      3  C   LIG    1        0.598  -0.600  -1.043  0.00  0.00    +0.450 C 
ATOM      4  O   LIG    1        1.088   0.070  -1.921  0.00  0.00    -0.470 OA
BRANCH   3   6
ATOM      5  C   LIG    1       -0.018   1.448   0.010  0.00  0.00    +0.280 C 
ATOM      6  O   LIG    1        0.002  -0.004   0.002  0.00  0.00    -0.340 OA
ENDBRANCH   3   6
ENDBRANCH   2   3
BRANCH   2   7
ATOM      7  O   LIG    1        0.691  -2.647   0.202  0.00  0.00    -0.510 OA
ATOM      8  H   LIG    1        1.450  -2.358   0.727  0.00  0.00    +0.390 HD
ENDBRANCH   2   7
ENDBRANCH   1   2
BRANCH   1   9
ATOM      9  C   LIG    1        1.897  -4.383  -2.273  0.00  0.00    +0.300 C 
BRANCH   9  10
ATOM     10  C   LIG    1        3.013  -4.932  -3.124  0.00  0.00    +0.450 C 
ATOM     11  O   LIG    1        3.614  -4.203  -3.877  0.00  0.00    -0.470 OA
BRANCH  10  12
ATOM     12  O   LIG    1        3.339  -6.232  -3.046  0.00  0.00    -0.340 OA
ATOM     13  C   LIG    1        4.423  -6.692  -3.895  0.00  0.00    +0.280 C 
ENDBRANCH  10  12
ENDBRANCH   9  10
BRANCH   9  14
ATOM     14  O   LIG    1        1.890  -5.049  -1.009  0.00  0.00    -0.510 OA
ATOM     15  H   LIG    1        2.709  -4.948  -0.506  0.00  0.00    +0.390 HD
ENDBRANCH   9  14
ENDBRANCH   1   9
TORSDOF 8
ENDMDL
MODEL      824
REMARK  Name = ZINC000005273581
REMARK                            x       y       z     vdW  Elec       q    Type
REMARK                         _______ _______ _______ _____ _____    ______ ____
ROOT
ATOM      1  CA  PRO A  1       -1.330   1.951   0.019  0.00  0.00    +0.140 C 
ATOM      2  CB  PRO A  1       -1.816   2.177  -1.428  0.00  0.00    +0.080 C 
ATOM      3  CG  PRO A  1       -3.348   1.961  -1.318  0.00  0.00    +0.170 C 
ATOM      4  CD  PRO A  1       -3.428   0.835  -0.257  0.00  0.00    +0.220 C 
ATOM      5  N   PRO A  1       -2.349   1.143   0.704  0.00  0.00    -0.560 N 
ATOM      6  C   PRO A  1       -2.307   0.746   1.992  0.00  0.00    +0.520 C 
ATOM      7  O   PRO A  1       -1.368   1.059   2.692  0.00  0.00    -0.520 OA
ENDROOT
BRANCH   6   8
ATOM      8  CA  PRO A  1       -3.427  -0.086   2.561  0.00  0.00    +0.170 C 
ATOM      9  CB  PRO A  1       -4.752   0.704   2.499  0.00  0.00    +0.090 C 
ATOM     10  CG  PRO A  1       -5.450   0.320   3.830  0.00  0.00    +0.080 C 
ATOM     11  CD  PRO A  1       -4.244   0.208   4.795  0.00  0.00    +0.260 C 
ATOM     12  N   PRO A  1       -3.159  -0.386   3.979  0.00  0.00    -0.500 N 
ATOM     13  H1  PRO A  1       -2.274   0.017   4.247  0.00  0.00    +0.440 HD
ATOM     14  H2  PRO A  1       -3.136  -1.384   4.120  0.00  0.00    +0.430 HD
ENDBRANCH   6   8
BRANCH   1  16
ATOM     15  O   PRO A  1        0.002  -0.004   0.002  0.00  0.00    -0.680 OA
ATOM     16  C   PRO A  1       -0.015   1.215   0.009  0.00  0.00    +0.500 C 
ATOM     17  OXT PRO A  1        1.033   1.839   0.002  0.00  0.00    -0.680 OA
ENDBRANCH   1  16
BRANCH   3  18
ATOM     18  OD  PRO A  1       -3.896   1.530  -2.565  0.00  0.00    -0.550 OA
ATOM     19  HD  PRO A  1       -4.852   1.383  -2.545  0.00  0.00    +0.380 HD
ENDBRANCH   3  18
TORSDOF 3
ENDMDL
MODEL      825
REMARK  Name = ZINC000005386407
REMARK                            x       y       z     vdW  Elec       q    Type
REMARK                         _______ _______ _______ _____ _____    ______ ____
ROOT
ATOM      1  C   LIG    1       -0.019   1.526   0.010  0.00  0.00    +0.090 C 
ATOM      2  C   LIG    1        0.002  -0.004   0.002  0.00  0.00    +0.350 C 
ATOM      3  N   LIG    1        0.787  -0.500  -1.133  0.00  0.00    -0.700 N 
ATOM      4  H   LIG    1        0.585  -0.336  -2.067  0.00  0.00    +0.440 HD
ATOM      5  C   LIG    1        1.855  -1.232  -0.667  0.00  0.00    +0.650 A 
ATOM      6  N   LIG    1        2.788  -1.840  -1.386  0.00  0.00    -0.580 NA
ATOM      7  C   LIG    1        3.782  -2.526  -0.819  0.00  0.00    +0.320 A 
ATOM      8  C   LIG    1        3.855  -2.615   0.576  0.00  0.00    -0.140 A 
ATOM      9  C   LIG    1        2.859  -1.967   1.340  0.00  0.00    +0.610 A 
ATOM     10  O   LIG    1        2.878  -2.016   2.558  0.00  0.00    -0.510 OA
ATOM     11  N   LIG    1        4.946  -3.360   0.877  0.00  0.00    -0.420 NA
ATOM     12  C   LIG    1        5.535  -3.724  -0.224  0.00  0.00    +0.450 A 
ATOM     13  N   LIG    1        4.852  -3.233  -1.299  0.00  0.00    -0.560 N 
ATOM     14  H   LIG    1        5.082  -3.361  -2.232  0.00  0.00    +0.430 HD
ATOM     15  N   LIG    1        1.882  -1.290   0.692  0.00  0.00    -0.580 N 
ATOM     16  C   LIG    1        0.742  -0.538   1.240  0.00  0.00    +0.440 C 
ENDROOT
BRANCH   2  17
ATOM     17  O   LIG    1       -1.330  -0.520  -0.045  0.00  0.00    -0.520 OA
ATOM     18  H   LIG    1       -1.834  -0.237  -0.821  0.00  0.00    +0.390 HD
ENDBRANCH   2  17
BRANCH  16  19
ATOM     19  O   LIG    1       -0.108  -1.402   1.997  0.00  0.00    -0.530 OA
ATOM     20  H   LIG    1        0.324  -1.809   2.760  0.00  0.00    +0.400 HD
ENDBRANCH  16  19
TORSDOF 2
ENDMDL
MODEL      826
REMARK  Name = ZINC000043509369
REMARK                            x       y       z     vdW  Elec       q    Type
REMARK                         _______ _______ _______ _____ _____    ______ ____
ROOT
ATOM      1  C   LIG    1       -0.019   1.526   0.010  0.00  0.00    +0.040 C 
ATOM      2  C   LIG    1        0.002  -0.004   0.002  0.00  0.00    +0.100 C 
ATOM      3  C   LIG    1        0.615  -0.506  -1.303  0.00  0.00    +0.320 C 
ATOM      4  O   LIG    1        2.025  -0.270  -1.294  0.00  0.00    -0.380 OA
ATOM      5  C   LIG    1        2.695  -1.038  -0.292  0.00  0.00    +0.150 C 
ATOM      6  C   LIG    1        2.249  -0.573   1.092  0.00  0.00    +0.130 C 
ATOM      7  C   LIG    1        2.850   0.801   1.397  0.00  0.00    +0.040 C 
ATOM      8  C   LIG    1        0.732  -0.547   1.223  0.00  0.00    +0.170 C 
ATOM      9  C   LIG    1        0.357   0.312   2.444  0.00  0.00    +0.040 C 
ENDROOT
BRANCH   6  10
ATOM     10  O   LIG    1        2.768  -1.504   2.063  0.00  0.00    -0.540 OA
ATOM     11  H   LIG    1        3.733  -1.570   2.067  0.00  0.00    +0.370 HD
ENDBRANCH   6  10
BRANCH   3  12
ATOM     12  O   LIG    1        0.026   0.184  -2.407  0.00  0.00    -0.540 OA
ATOM     13  H   LIG    1        0.370  -0.086  -3.269  0.00  0.00    +0.390 HD
ENDBRANCH   3  12
BRANCH   2  14
ATOM     14  O   LIG    1       -1.365  -0.461   0.055  0.00  0.00    -0.560 OA
ATOM     15  H   LIG    1       -1.908  -0.162  -0.687  0.00  0.00    +0.390 HD
ENDBRANCH   2  14
BRANCH   8  16
ATOM     16  O   LIG    1        0.271  -1.887   1.475  0.00  0.00    -0.540 OA
ATOM     17  H   LIG    1       -0.689  -1.960   1.572  0.00  0.00    +0.380 HD
ENDBRANCH   8  16
BRANCH   5  18
ATOM     18  C   LIG    1        4.207  -0.850  -0.435  0.00  0.00    +0.200 C 
BRANCH  18  19
ATOM     19  O   LIG    1        4.639  -1.395  -1.683  0.00  0.00    -0.560 OA
ATOM     20  H   LIG    1        5.590  -1.311  -1.841  0.00  0.00    +0.380 HD
ENDBRANCH  18  19
ENDBRANCH   5  18
TORSDOF 6
ENDMDL
MODEL      827
REMARK  Name = ZINC000043509316
REMARK                            x       y       z     vdW  Elec       q    Type
REMARK                         _______ _______ _______ _____ _____    ______ ____
ROOT
ATOM      1  C   LIG    1       -0.063   1.695   0.934  0.00  0.00    +0.030 C 
ATOM      2  C   LIG    1       -0.070   0.207   0.578  0.00  0.00    +0.120 C 
ATOM      3  C   LIG    1        0.524   0.013  -0.820  0.00  0.00    +0.160 C 
ATOM      4  O   LIG    1        0.570  -1.382  -1.127  0.00  0.00    -0.380 OA
ATOM      5  C   LIG    1        1.384  -2.148  -0.238  0.00  0.00    +0.340 C 
ATOM      6  C   LIG    1        0.825  -2.041   1.184  0.00  0.00    +0.090 C 
ATOM      7  C   LIG    1       -0.586  -2.631   1.224  0.00  0.00    +0.040 C 
ATOM      8  C   LIG    1        0.775  -0.566   1.594  0.00  0.00    +0.170 C 
ATOM      9  C   LIG    1        0.145  -0.443   2.983  0.00  0.00    +0.040 C 
ENDROOT
BRANCH   6  10
ATOM     10  O   LIG    1        1.669  -2.761   2.084  0.00  0.00    -0.550 OA
ATOM     11  H   LIG    1        1.750  -3.703   1.880  0.00  0.00    +0.380 HD
ENDBRANCH   6  10
BRANCH   5  12
ATOM     12  O   LIG    1        2.721  -1.646  -0.263  0.00  0.00    -0.550 OA
ATOM     13  H   LIG    1        3.139  -1.683  -1.135  0.00  0.00    +0.380 HD
ENDBRANCH   5  12
BRANCH   2  14
ATOM     14  O   LIG    1       -1.412  -0.283   0.600  0.00  0.00    -0.540 OA
ATOM     15  H   LIG    1       -2.004   0.161  -0.022  0.00  0.00    +0.380 HD
ENDBRANCH   2  14
BRANCH   8  16
ATOM     16  O   LIG    1        2.100  -0.032   1.620  0.00  0.00    -0.540 OA
ATOM     17  H   LIG    1        2.693  -0.480   2.238  0.00  0.00    +0.390 HD
ENDBRANCH   8  16
BRANCH   3  18
ATOM     18  C   LIG    1       -0.349   0.734  -1.850  0.00  0.00    +0.200 C 
BRANCH  18  19
ATOM     19  O   LIG    1        0.266   0.651  -3.137  0.00  0.00    -0.560 OA
ATOM     20  H   LIG    1       -0.234   1.088  -3.840  0.00  0.00    +0.380 HD
ENDBRANCH  18  19
ENDBRANCH   3  18
TORSDOF 6
ENDMDL
MODEL      828
REMARK  Name = ZINC000005386405
REMARK                            x       y       z     vdW  Elec       q    Type
REMARK                         _______ _______ _______ _____ _____    ______ ____
ROOT
ATOM      1  C   LIG    1       -0.019   1.526   0.010  0.00  0.00    +0.070 C 
ATOM      2  C   LIG    1        0.002  -0.004   0.002  0.00  0.00    +0.350 C 
ATOM      3  N   LIG    1        0.787  -0.500  -1.133  0.00  0.00    -0.700 N 
ATOM      4  H   LIG    1        0.585  -0.336  -2.067  0.00  0.00    +0.440 HD
ATOM      5  C   LIG    1        1.855  -1.232  -0.667  0.00  0.00    +0.650 A 
ATOM      6  N   LIG    1        2.788  -1.840  -1.386  0.00  0.00    -0.580 NA
ATOM      7  C   LIG    1        3.782  -2.526  -0.819  0.00  0.00    +0.320 A 
ATOM      8  C   LIG    1        3.855  -2.615   0.576  0.00  0.00    -0.140 A 
ATOM      9  C   LIG    1        2.859  -1.967   1.340  0.00  0.00    +0.610 A 
ATOM     10  O   LIG    1        2.878  -2.016   2.558  0.00  0.00    -0.510 OA
ATOM     11  N   LIG    1        4.946  -3.360   0.877  0.00  0.00    -0.420 NA
ATOM     12  C   LIG    1        5.535  -3.724  -0.224  0.00  0.00    +0.450 A 
ATOM     13  N   LIG    1        4.852  -3.233  -1.299  0.00  0.00    -0.560 N 
ATOM     14  H   LIG    1        5.082  -3.361  -2.232  0.00  0.00    +0.430 HD
ATOM     15  N   LIG    1        1.882  -1.290   0.692  0.00  0.00    -0.570 N 
ATOM     16  C   LIG    1        0.742  -0.538   1.240  0.00  0.00    +0.440 C 
ENDROOT
BRANCH   2  17
ATOM     17  O   LIG    1       -1.330  -0.520  -0.045  0.00  0.00    -0.540 OA
ATOM     18  H   LIG    1       -1.834  -0.237  -0.821  0.00  0.00    +0.400 HD
ENDBRANCH   2  17
BRANCH  16  19
ATOM     19  O   LIG    1        1.202   0.542   2.054  0.00  0.00    -0.540 OA
ATOM     20  H   LIG    1        1.720   0.264   2.821  0.00  0.00    +0.410 HD
ENDBRANCH  16  19
TORSDOF 2
ENDMDL
MODEL      829
REMARK  Name = ZINC000257289315
REMARK                            x       y       z     vdW  Elec       q    Type
REMARK                         _______ _______ _______ _____ _____    ______ ____
ROOT
ATOM      1  C   LIG    1       -2.550  -2.680   0.012  0.00  0.00    +0.510 C 
ATOM      2  N   LIG    1       -2.778  -4.008   0.007  0.00  0.00    -0.710 N 
ATOM      3  H   LIG    1       -2.032  -4.629  -0.003  0.00  0.00    +0.410 HD
ATOM      4  O   LIG    1       -3.482  -1.905   0.025  0.00  0.00    -0.540 OA
ENDROOT
BRANCH   2   5
ATOM      5  C   LIG    1       -4.152  -4.516   0.018  0.00  0.00    +0.250 C 
ATOM      6  C   LIG    1       -4.660  -4.637   1.469  0.00  0.00    +0.030 C 
ATOM      7  C   LIG    1       -5.524  -5.923   1.463  0.00  0.00    +0.000 C 
ATOM      8  C   LIG    1       -4.729  -6.864   0.524  0.00  0.00    +0.140 C 
ATOM      9  C   LIG    1       -4.197  -5.931  -0.585  0.00  0.00    +0.180 C 
BRANCH   8  10
ATOM     10  O   LIG    1       -5.590  -7.861  -0.030  0.00  0.00    -0.560 OA
ATOM     11  H   LIG    1       -5.997  -8.439   0.630  0.00  0.00    +0.390 HD
ENDBRANCH   8  10
BRANCH   9  12
ATOM     12  O   LIG    1       -2.885  -6.337  -0.979  0.00  0.00    -0.560 OA
ATOM     13  H   LIG    1       -2.843  -7.231  -1.346  0.00  0.00    +0.390 HD
ENDBRANCH   9  12
ENDBRANCH   2   5
BRANCH   1  14
ATOM     14  C   LIG    1       -1.136  -2.159   0.001  0.00  0.00    +0.300 C 
BRANCH  14  17
ATOM     15  C   LIG    1       -0.018   1.503   0.010  0.00  0.00    +0.110 C 
ATOM     16  C   LIG    1        0.002  -0.004   0.002  0.00  0.00    +0.510 C 
ATOM     17  N   LIG    1       -1.156  -0.694   0.009  0.00  0.00    -0.720 N 
ATOM     18  H   LIG    1       -2.002  -0.220   0.020  0.00  0.00    +0.410 HD
ATOM     19  O   LIG    1        1.060  -0.596  -0.011  0.00  0.00    -0.550 OA
ENDBRANCH  14  17
ENDBRANCH   1  14
TORSDOF 5
ENDMDL
MODEL      830
REMARK  Name = ZINC000017466462
REMARK                            x       y       z     vdW  Elec       q    Type
REMARK                         _______ _______ _______ _____ _____    ______ ____
ROOT
ATOM      1  C   LIG    1        2.330  -5.820   3.781  0.00  0.00    +0.440 C 
ATOM      2  O   LIG    1        1.272  -6.296   4.615  0.00  0.00    -0.360 OA
ATOM      3  C   LIG    1        1.248  -5.711   5.918  0.00  0.00    +0.200 C 
ATOM      4  C   LIG    1        2.551  -6.043   6.650  0.00  0.00    +0.120 C 
ATOM      5  C   LIG    1        3.735  -5.532   5.824  0.00  0.00    +0.190 C 
ATOM      6  C   LIG    1        3.677  -6.157   4.426  0.00  0.00    +0.180 C 
ENDROOT
BRANCH   1   8
ATOM      7  C   LIG    1        1.573  -3.856   2.554  0.00  0.00    +0.660 C 
ATOM      8  N   LIG    1        2.213  -4.368   3.624  0.00  0.00    -0.710 N 
ATOM      9  H   LIG    1        2.596  -3.776   4.290  0.00  0.00    +0.410 HD
ATOM     10  O   LIG    1        1.093  -4.598   1.720  0.00  0.00    -0.560 OA
BRANCH   7  11
ATOM     11  O   LIG    1        1.465  -2.522   2.409  0.00  0.00    -0.370 OA
BRANCH  11  12
ATOM     12  C   LIG    1        0.763  -2.041   1.233  0.00  0.00    +0.230 C 
BRANCH  12  13
ATOM     13  C   LIG    1        0.742  -0.511   1.242  0.00  0.00    +0.030 C 
BRANCH  13  15
ATOM     14  C   LIG    1       -0.019   1.526   0.010  0.00  0.00    +0.030 C 
ATOM     15  C   LIG    1        0.002  -0.004   0.002  0.00  0.00    +0.020 C 
ENDBRANCH  13  15
ENDBRANCH  12  13
ENDBRANCH  11  12
ENDBRANCH   7  11
ENDBRANCH   1   8
BRANCH   5  16
ATOM     16  O   LIG    1        4.959  -5.900   6.463  0.00  0.00    -0.550 OA
ATOM     17  H   LIG    1        5.059  -5.542   7.356  0.00  0.00    +0.390 HD
ENDBRANCH   5  16
BRANCH   4  18
ATOM     18  O   LIG    1        2.554  -5.412   7.932  0.00  0.00    -0.560 OA
ATOM     19  H   LIG    1        1.827  -5.687   8.507  0.00  0.00    +0.390 HD
ENDBRANCH   4  18
BRANCH   6  20
ATOM     20  O   LIG    1        4.737  -5.632   3.624  0.00  0.00    -0.540 OA
ATOM     21  H   LIG    1        4.761  -5.985   2.724  0.00  0.00    +0.390 HD
ENDBRANCH   6  20
TORSDOF 8
ENDMDL
MODEL      831
REMARK  Name = ZINC000017466615
REMARK                            x       y       z     vdW  Elec       q    Type
REMARK                         _______ _______ _______ _____ _____    ______ ____
ROOT
ATOM      1  C   LIG    1        1.304  -2.596  -2.255  0.00  0.00    +0.440 C 
ATOM      2  O   LIG    1        0.322  -2.926  -3.240  0.00  0.00    -0.360 OA
ATOM      3  C   LIG    1       -0.711  -3.793  -2.767  0.00  0.00    +0.200 C 
ATOM      4  C   LIG    1       -0.094  -5.120  -2.316  0.00  0.00    +0.120 C 
ATOM      5  C   LIG    1        0.952  -4.846  -1.232  0.00  0.00    +0.190 C 
ATOM      6  C   LIG    1        2.001  -3.875  -1.784  0.00  0.00    +0.180 C 
ENDROOT
BRANCH   1   8
ATOM      7  C   LIG    1        0.600  -0.602  -1.046  0.00  0.00    +0.650 C 
ATOM      8  N   LIG    1        0.653  -1.946  -1.115  0.00  0.00    -0.710 N 
ATOM      9  H   LIG    1        0.260  -2.484  -0.409  0.00  0.00    +0.410 HD
ATOM     10  O   LIG    1        1.092   0.072  -1.930  0.00  0.00    -0.560 OA
BRANCH   7  12
ATOM     11  C   LIG    1       -0.018   1.448   0.010  0.00  0.00    +0.310 C 
ATOM     12  O   LIG    1        0.002  -0.004   0.002  0.00  0.00    -0.370 OA
ENDBRANCH   7  12
ENDBRANCH   1   8
BRANCH   5  13
ATOM     13  O   LIG    1        1.583  -6.072  -0.856  0.00  0.00    -0.550 OA
ATOM     14  H   LIG    1        0.975  -6.735  -0.503  0.00  0.00    +0.390 HD
ENDBRANCH   5  13
BRANCH   4  15
ATOM     15  O   LIG    1       -1.117  -5.968  -1.791  0.00  0.00    -0.560 OA
ATOM     16  H   LIG    1       -1.817  -6.179  -2.424  0.00  0.00    +0.390 HD
ENDBRANCH   4  15
BRANCH   6  17
ATOM     17  O   LIG    1        2.944  -3.557  -0.758  0.00  0.00    -0.540 OA
ATOM     18  H   LIG    1        3.638  -2.945  -1.038  0.00  0.00    +0.390 HD
ENDBRANCH   6  17
TORSDOF 5
ENDMDL
MODEL      832
REMARK  Name = ZINC000003870077
REMARK                            x       y       z     vdW  Elec       q    Type
REMARK                         _______ _______ _______ _____ _____    ______ ____
ROOT
ATOM      1  C   LIG    1       -1.136  -2.159   0.001  0.00  0.00    +0.260 C 
ATOM      2  C   LIG    1       -2.433  -2.692   0.618  0.00  0.00    +0.200 C 
ATOM      3  C   LIG    1       -2.435  -4.221   0.533  0.00  0.00    +0.130 C 
ATOM      4  C   LIG    1       -2.270  -4.644  -0.929  0.00  0.00    +0.150 C 
ATOM      5  O   LIG    1       -1.061  -4.089  -1.450  0.00  0.00    -0.390 OA
ATOM      6  C   LIG    1       -1.020  -2.661  -1.440  0.00  0.00    +0.320 C 
ENDROOT
BRANCH   1   9
ATOM      7  C   LIG    1       -0.018   1.503   0.010  0.00  0.00    +0.100 C 
ATOM      8  C   LIG    1        0.002  -0.004   0.002  0.00  0.00    +0.510 C 
ATOM      9  N   LIG    1       -1.156  -0.694   0.009  0.00  0.00    -0.720 N 
ATOM     10  H   LIG    1       -2.002  -0.220   0.020  0.00  0.00    +0.400 HD
ATOM     11  O   LIG    1        1.060  -0.596  -0.011  0.00  0.00    -0.520 OA
ENDBRANCH   1   9
BRANCH   3  12
ATOM     12  O   LIG    1       -1.353  -4.744   1.307  0.00  0.00    -0.550 OA
ATOM     13  H   LIG    1       -1.294  -5.709   1.299  0.00  0.00    +0.380 HD
ENDBRANCH   3  12
BRANCH   2  14
ATOM     14  O   LIG    1       -3.553  -2.170  -0.099  0.00  0.00    -0.550 OA
ATOM     15  H   LIG    1       -4.409  -2.467   0.238  0.00  0.00    +0.390 HD
ENDBRANCH   2  14
BRANCH   6  16
ATOM     16  O   LIG    1        0.215  -2.215  -2.005  0.00  0.00    -0.520 OA
ATOM     17  H   LIG    1        0.354  -2.498  -2.919  0.00  0.00    +0.380 HD
ENDBRANCH   6  16
BRANCH   4  18
ATOM     18  C   LIG    1       -2.211  -6.170  -1.015  0.00  0.00    +0.200 C 
BRANCH  18  19
ATOM     19  O   LIG    1       -2.175  -6.568  -2.387  0.00  0.00    -0.560 OA
ATOM     20  H   LIG    1       -2.137  -7.526  -2.518  0.00  0.00    +0.380 HD
ENDBRANCH  18  19
ENDBRANCH   4  18
TORSDOF 6
ENDMDL
MODEL      833
REMARK  Name = ZINC000256055550
REMARK                            x       y       z     vdW  Elec       q    Type
REMARK                         _______ _______ _______ _____ _____    ______ ____
ROOT
ATOM      1  O   LIG    1        0.002  -0.004   0.002  0.00  0.00    -0.460 OA
ATOM      2  C   LIG    1       -0.014   1.214   0.009  0.00  0.00    +0.590 A 
ATOM      3  C   LIG    1       -1.226   1.931   0.030  0.00  0.00    -0.370 A 
ATOM      4  S   LIG    1       -0.739   3.636   0.032  0.00  0.00    +0.170 S 
ATOM      5  C   LIG    1        0.994   3.278   0.005  0.00  0.00    +0.260 A 
ATOM      6  N   LIG    1        2.194   3.814  -0.010  0.00  0.00    -0.480 NA
ATOM      7  C   LIG    1        3.110   2.848  -0.028  0.00  0.00    +0.480 A 
ATOM      8  N   LIG    1        2.516   1.688  -0.025  0.00  0.00    -0.270 NA
ATOM      9  C   LIG    1       -2.488   1.428   0.046  0.00  0.00    +0.540 C 
ATOM     10  N   LIG    1        1.117   1.925   0.002  0.00  0.00    -0.400 N 
ENDROOT
BRANCH   9  11
ATOM     11  N   LIG    1       -3.561   2.276   0.066  0.00  0.00    -0.580 N 
ATOM     12  H   LIG    1       -3.421   3.235   0.069  0.00  0.00    +0.430 HD
BRANCH  11  13
ATOM     13  C   LIG    1       -4.858   1.759   0.082  0.00  0.00    +0.440 A 
ATOM     14  N   LIG    1       -5.173   0.485   0.085  0.00  0.00    -0.330 NA
ATOM     15  N   LIG    1       -6.576   0.415   0.103  0.00  0.00    -0.470 N 
ATOM     16  H   LIG    1       -7.117  -0.390   0.110  0.00  0.00    +0.450 HD
ATOM     17  C   LIG    1       -7.021   1.683   0.109  0.00  0.00    +0.540 A 
ATOM     18  N   LIG    1       -5.983   2.480   0.102  0.00  0.00    -0.550 NA
ENDBRANCH  11  13
ENDBRANCH   9  11
TORSDOF 2
ENDMDL
MODEL      834
REMARK  Name = ZINC000005758597
REMARK                            x       y       z     vdW  Elec       q    Type
REMARK                         _______ _______ _______ _____ _____    ______ ____
ROOT
ATOM      1  C   LIG    1        0.001  -4.173  -0.023  0.00  0.00    +0.390 C 
ATOM      2  O   LIG    1        1.345  -4.699   0.038  0.00  0.00    -0.350 OA
ATOM      3  C   LIG    1        1.201  -6.054   0.516  0.00  0.00    +0.200 C 
ATOM      4  C   LIG    1        0.118  -5.973   1.615  0.00  0.00    +0.150 C 
ATOM      5  C   LIG    1       -0.692  -4.706   1.251  0.00  0.00    +0.150 C 
ATOM      6  F   LIG    1       -0.618  -3.764   2.282  0.00  0.00    -0.180 F 
ENDROOT
BRANCH   1  10
ATOM      7  C   LIG    1        0.002  -0.004   0.002  0.00  0.00    +0.510 A 
ATOM      8  N   LIG    1       -1.135  -0.687   0.004  0.00  0.00    -0.610 NA
ATOM      9  C   LIG    1       -1.129  -2.018  -0.004  0.00  0.00    +0.670 A 
ATOM     10  N   LIG    1        0.026  -2.708  -0.014  0.00  0.00    -0.530 N 
ATOM     11  C   LIG    1        1.220  -2.050  -0.016  0.00  0.00    +0.390 A 
ATOM     12  O   LIG    1       -2.189  -2.623  -0.003  0.00  0.00    -0.550 OA
ATOM     13  C   LIG    1        1.230  -0.697  -0.013  0.00  0.00    -0.150 A 
BRANCH   7  14
ATOM     14  N   LIG    1       -0.017   1.371   0.010  0.00  0.00    -0.810 N 
ATOM     15  H   LIG    1       -0.863   1.845   0.016  0.00  0.00    +0.410 HD
ATOM     16  H   LIG    1        0.817   1.868   0.004  0.00  0.00    +0.420 HD
ENDBRANCH   7  14
ENDBRANCH   1  10
BRANCH   4  17
ATOM     17  O   LIG    1        0.721  -5.834   2.903  0.00  0.00    -0.540 OA
ATOM     18  H   LIG    1        0.087  -5.778   3.630  0.00  0.00    +0.390 HD
ENDBRANCH   4  17
BRANCH   3  19
ATOM     19  C   LIG    1        2.523  -6.554   1.103  0.00  0.00    +0.230 C 
BRANCH  19  20
ATOM     20  O   LIG    1        3.495  -6.664   0.062  0.00  0.00    -0.570 OA
ATOM     21  H   LIG    1        4.360  -6.976   0.363  0.00  0.00    +0.390 HD
ENDBRANCH  19  20
ENDBRANCH   3  19
TORSDOF 5
ENDMDL
MODEL      835
REMARK  Name = ZINC000005758598
REMARK                            x       y       z     vdW  Elec       q    Type
REMARK                         _______ _______ _______ _____ _____    ______ ____
ROOT
ATOM      1  C   LIG    1        0.001  -4.173  -0.023  0.00  0.00    +0.400 C 
ATOM      2  O   LIG    1        1.345  -4.699   0.038  0.00  0.00    -0.350 OA
ATOM      3  C   LIG    1        1.201  -6.054   0.516  0.00  0.00    +0.200 C 
ATOM      4  C   LIG    1        0.118  -5.973   1.615  0.00  0.00    +0.160 C 
ATOM      5  C   LIG    1       -0.692  -4.706   1.251  0.00  0.00    +0.140 C 
ATOM      6  F   LIG    1       -2.026  -5.036   0.989  0.00  0.00    -0.170 F 
ENDROOT
BRANCH   1  10
ATOM      7  C   LIG    1        0.002  -0.004   0.002  0.00  0.00    +0.510 A 
ATOM      8  N   LIG    1       -1.135  -0.687   0.004  0.00  0.00    -0.610 NA
ATOM      9  C   LIG    1       -1.129  -2.018  -0.004  0.00  0.00    +0.660 A 
ATOM     10  N   LIG    1        0.026  -2.708  -0.014  0.00  0.00    -0.540 N 
ATOM     11  C   LIG    1        1.220  -2.050  -0.016  0.00  0.00    +0.390 A 
ATOM     12  O   LIG    1       -2.189  -2.623  -0.003  0.00  0.00    -0.530 OA
ATOM     13  C   LIG    1        1.230  -0.697  -0.013  0.00  0.00    -0.150 A 
BRANCH   7  14
ATOM     14  N   LIG    1       -0.017   1.371   0.010  0.00  0.00    -0.810 N 
ATOM     15  H   LIG    1       -0.863   1.845   0.016  0.00  0.00    +0.410 HD
ATOM     16  H   LIG    1        0.817   1.868   0.004  0.00  0.00    +0.420 HD
ENDBRANCH   7  14
ENDBRANCH   1  10
BRANCH   4  17
ATOM     17  O   LIG    1        0.721  -5.834   2.903  0.00  0.00    -0.540 OA
ATOM     18  H   LIG    1        0.087  -5.778   3.630  0.00  0.00    +0.390 HD
ENDBRANCH   4  17
BRANCH   3  19
ATOM     19  C   LIG    1        2.523  -6.554   1.103  0.00  0.00    +0.230 C 
BRANCH  19  20
ATOM     20  O   LIG    1        3.495  -6.664   0.062  0.00  0.00    -0.570 OA
ATOM     21  H   LIG    1        4.360  -6.976   0.363  0.00  0.00    +0.390 HD
ENDBRANCH  19  20
ENDBRANCH   3  19
TORSDOF 5
ENDMDL
MODEL      836
REMARK  Name = ZINC000002395375
REMARK                            x       y       z     vdW  Elec       q    Type
REMARK                         _______ _______ _______ _____ _____    ______ ____
ROOT
ATOM      1  O   LIG    1        0.164   0.678  -0.504  0.00  0.00    -0.940 OA
ATOM      2  S   LIG    1        0.342   2.070  -0.286  0.00  0.00    +2.390 S 
ATOM      3  C   LIG    1       -0.226   2.498   1.404  0.00  0.00    -0.300 C 
ATOM      4  C   LIG    1        1.063   2.320   2.248  0.00  0.00    +0.200 C 
ATOM      5  C   LIG    1        2.213   2.934   1.430  0.00  0.00    +0.210 C 
ATOM      6  O   LIG    1       -0.188   3.006  -1.215  0.00  0.00    -0.930 OA
ATOM      7  C   LIG    1        2.118   2.420  -0.020  0.00  0.00    -0.350 C 
ENDROOT
BRANCH   5   8
ATOM      8  O   LIG    1        2.103   4.359   1.441  0.00  0.00    -0.540 OA
ATOM      9  H   LIG    1        2.798   4.811   0.943  0.00  0.00    +0.380 HD
ENDBRANCH   5   8
BRANCH   4  10
ATOM     10  N   LIG    1        0.925   3.022   3.530  0.00  0.00    -0.490 NA
BRANCH  10  11
ATOM     11  C   LIG    1        2.211   3.083   4.239  0.00  0.00    +0.230 C 
BRANCH  11  12
ATOM     12  C   LIG    1        2.639   1.669   4.638  0.00  0.00    +0.130 C 
BRANCH  12  13
ATOM     13  O   LIG    1        2.927   0.908   3.464  0.00  0.00    -0.570 OA
ATOM     14  H   LIG    1        3.132  -0.021   3.637  0.00  0.00    +0.380 HD
ENDBRANCH  12  13
ENDBRANCH  11  12
ENDBRANCH  10  11
BRANCH  10  15
ATOM     15  C   LIG    1       -0.107   2.395   4.366  0.00  0.00    +0.190 C 
BRANCH  15  16
ATOM     16  C   LIG    1       -0.495   3.348   5.499  0.00  0.00    +0.170 C 
BRANCH  16  17
ATOM     17  O   LIG    1       -1.114   4.513   4.950  0.00  0.00    -0.560 OA
ATOM     18  H   LIG    1       -1.386   5.162   5.613  0.00  0.00    +0.380 HD
ENDBRANCH  16  17
ENDBRANCH  15  16
ENDBRANCH  10  15
ENDBRANCH   4  10
TORSDOF 8
ENDMDL
MODEL      837
REMARK  Name = ZINC000002395374
REMARK                            x       y       z     vdW  Elec       q    Type
REMARK                         _______ _______ _______ _____ _____    ______ ____
ROOT
ATOM      1  O   LIG    1        0.486  -0.585   0.002  0.00  0.00    -0.930 OA
ATOM      2  S   LIG    1        0.133   0.792   0.007  0.00  0.00    +2.400 S 
ATOM      3  C   LIG    1       -0.487   1.253   1.669  0.00  0.00    -0.340 C 
ATOM      4  C   LIG    1        0.806   1.702   2.398  0.00  0.00    +0.210 C 
ATOM      5  C   LIG    1        1.605   2.552   1.395  0.00  0.00    +0.200 C 
ATOM      6  O   LIG    1       -0.748   1.300  -0.985  0.00  0.00    -0.930 OA
ATOM      7  C   LIG    1        1.654   1.808   0.046  0.00  0.00    -0.310 C 
ENDROOT
BRANCH   4   8
ATOM      8  O   LIG    1        0.473   2.484   3.547  0.00  0.00    -0.520 OA
ATOM      9  H   LIG    1       -0.049   2.009   4.208  0.00  0.00    +0.380 HD
ENDBRANCH   4   8
BRANCH   5  10
ATOM     10  N   LIG    1        2.971   2.752   1.895  0.00  0.00    -0.510 NA
BRANCH  10  11
ATOM     11  C   LIG    1        2.963   3.464   3.180  0.00  0.00    +0.250 C 
BRANCH  11  12
ATOM     12  C   LIG    1        2.451   4.890   2.970  0.00  0.00    +0.130 C 
BRANCH  12  13
ATOM     13  O   LIG    1        1.069   4.852   2.607  0.00  0.00    -0.550 OA
ATOM     14  H   LIG    1        0.696   5.716   2.384  0.00  0.00    +0.370 HD
ENDBRANCH  12  13
ENDBRANCH  11  12
ENDBRANCH  10  11
BRANCH  10  15
ATOM     15  C   LIG    1        3.796   3.460   0.907  0.00  0.00    +0.190 C 
BRANCH  15  16
ATOM     16  C   LIG    1        5.262   3.414   1.339  0.00  0.00    +0.170 C 
BRANCH  16  17
ATOM     17  O   LIG    1        5.716   2.059   1.341  0.00  0.00    -0.560 OA
ATOM     18  H   LIG    1        6.641   1.955   1.605  0.00  0.00    +0.380 HD
ENDBRANCH  16  17
ENDBRANCH  15  16
ENDBRANCH  10  15
ENDBRANCH   5  10
TORSDOF 8
ENDMDL
MODEL      838
REMARK  Name = ZINC000023471669
REMARK                            x       y       z     vdW  Elec       q    Type
REMARK                         _______ _______ _______ _____ _____    ______ ____
ROOT
ATOM      1  O   LIG    1        0.241   0.098  -0.153  0.00  0.00    -0.930 OA
ATOM      2  S   LIG    1        0.556   1.484  -0.162  0.00  0.00    +2.390 S 
ATOM      3  C   LIG    1       -0.071   2.275   1.374  0.00  0.00    -0.280 C 
ATOM      4  C   LIG    1        0.974   1.855   2.427  0.00  0.00    +0.140 C 
ATOM      5  C   LIG    1        2.329   1.543   1.805  0.00  0.00    +0.130 C 
ATOM      6  O   LIG    1        0.224   2.285  -1.288  0.00  0.00    -0.930 OA
ATOM      7  C   LIG    1        2.325   1.724   0.273  0.00  0.00    -0.290 C 
ENDROOT
BRANCH   5   8
ATOM      8  N   LIG    1        3.338   2.440   2.385  0.00  0.00    -0.420 NA
ATOM      9  C   LIG    1        4.291   1.692   3.217  0.00  0.00    +0.140 C 
ATOM     10  C   LIG    1        4.666   2.177   1.815  0.00  0.00    +0.150 C 
ENDBRANCH   5   8
BRANCH   4  11
ATOM     11  N   LIG    1        1.138   2.945   3.398  0.00  0.00    -0.410 NA
ATOM     12  C   LIG    1        0.332   2.704   4.602  0.00  0.00    +0.130 C 
ATOM     13  C   LIG    1        1.846   2.480   4.598  0.00  0.00    +0.160 C 
ENDBRANCH   4  11
TORSDOF 2
ENDMDL
MODEL      839
REMARK  Name = ZINC000004011267
REMARK                            x       y       z     vdW  Elec       q    Type
REMARK                         _______ _______ _______ _____ _____    ______ ____
ROOT
ATOM      1  C   LIG    1       -0.018   1.503   0.010  0.00  0.00    +0.130 C 
ATOM      2  C   LIG    1        0.002  -0.004   0.002  0.00  0.00    -0.240 A 
ATOM      3  C   LIG    1       -1.147  -0.711   0.004  0.00  0.00    +0.330 A 
ATOM      4  N   LIG    1       -1.100  -2.077  -0.004  0.00  0.00    -0.530 N 
ATOM      5  C   LIG    1        0.083  -2.734  -0.018  0.00  0.00    +0.590 A 
ATOM      6  O   LIG    1       -0.067  -4.076  -0.033  0.00  0.00    -0.240 OA
ATOM      7  C   LIG    1       -1.476  -4.422  -0.047  0.00  0.00    +0.220 C 
ATOM      8  C   LIG    1       -1.853  -5.116   1.282  0.00  0.00    +0.180 C 
ATOM      9  C   LIG    1       -3.173  -4.353   1.661  0.00  0.00    +0.150 C 
ATOM     10  O   LIG    1       -2.898  -2.994   1.260  0.00  0.00    -0.340 OA
ATOM     11  N   LIG    1        1.220  -2.050  -0.019  0.00  0.00    -0.580 NA
ATOM     12  C   LIG    1       -2.201  -3.056   0.004  0.00  0.00    +0.400 C 
ATOM     13  C   LIG    1        1.230  -0.714  -0.013  0.00  0.00    +0.530 A 
ATOM     14  O   LIG    1        2.290  -0.107  -0.012  0.00  0.00    -0.500 OA
ENDROOT
BRANCH   8  15
ATOM     15  O   LIG    1       -0.853  -4.933   2.287  0.00  0.00    -0.530 OA
ATOM     16  H   LIG    1       -1.103  -5.272   3.157  0.00  0.00    +0.390 HD
ENDBRANCH   8  15
BRANCH   9  17
ATOM     17  C   LIG    1       -3.421  -4.429   3.169  0.00  0.00    +0.210 C 
BRANCH  17  18
ATOM     18  O   LIG    1       -4.627  -3.734   3.489  0.00  0.00    -0.560 OA
ATOM     19  H   LIG    1       -4.847  -3.741   4.431  0.00  0.00    +0.390 HD
ENDBRANCH  17  18
ENDBRANCH   9  17
TORSDOF 3
ENDMDL
MODEL      840
REMARK  Name = ZINC000217421119
REMARK                            x       y       z     vdW  Elec       q    Type
REMARK                         _______ _______ _______ _____ _____    ______ ____
ROOT
ATOM      1  O   LIG    1        0.002  -0.004   0.002  0.00  0.00    -0.470 OA
ATOM      2  C   LIG    1       -0.014   1.208   0.009  0.00  0.00    +0.680 C 
ATOM      3  N   LIG    1        1.143   1.898   0.001  0.00  0.00    -0.590 N 
ATOM      4  C   LIG    1        2.370   1.358  -0.019  0.00  0.00    +0.690 C 
ATOM      5  N   LIG    1        3.360   2.261  -0.022  0.00  0.00    -0.720 N 
ATOM      6  H   LIG    1        4.308   2.057  -0.036  0.00  0.00    +0.440 HD
ATOM      7  C   LIG    1        2.778   3.612  -0.002  0.00  0.00    +0.260 C 
ATOM      8  C   LIG    1        3.267   4.357   1.255  0.00  0.00    -0.300 C 
ATOM      9  S   LIG    1        1.765   5.257   1.813  0.00  0.00    +2.400 S 
ATOM     10  C   LIG    1        0.610   3.921   1.306  0.00  0.00    -0.300 C 
ATOM     11  O   LIG    1        1.562   6.405   1.000  0.00  0.00    -0.910 OA
ATOM     12  O   LIG    1        1.772   5.376   3.229  0.00  0.00    -0.920 OA
ATOM     13  O   LIG    1        2.566   0.159  -0.034  0.00  0.00    -0.520 OA
ATOM     14  C   LIG    1        1.264   3.364   0.008  0.00  0.00    +0.260 C 
ENDROOT
TORSDOF 0
ENDMDL
MODEL      841
REMARK  Name = ZINC000218766983
REMARK                            x       y       z     vdW  Elec       q    Type
REMARK                         _______ _______ _______ _____ _____    ______ ____
ROOT
ATOM      1  N   THR A  1       -1.416  -1.997  -0.116  0.00  0.00    -0.480 N 
ATOM      2  H1  THR A  1       -0.977  -2.401   0.697  0.00  0.00    +0.430 HD
ATOM      3  H2  THR A  1       -0.898  -2.256  -0.942  0.00  0.00    +0.410 HD
ENDROOT
BRANCH   1   4
ATOM      4  CA  THR A  1       -1.433  -0.534   0.013  0.00  0.00    +0.050 C 
BRANCH   4   5
ATOM      5  C   THR A  1       -2.100  -0.151   1.309  0.00  0.00    +0.490 C 
ATOM      6  OXT THR A  1       -2.034  -0.896   2.272  0.00  0.00    -0.660 OA
ATOM      7  O   THR A  1       -2.705   0.904   1.395  0.00  0.00    -0.630 OA
ENDBRANCH   4   5
BRANCH   4   9
ATOM      8  CG2 THR A  1       -0.019   1.526   0.010  0.00  0.00    +0.040 C 
ATOM      9  CB  THR A  1        0.002  -0.004   0.002  0.00  0.00    +0.210 C 
BRANCH   9  10
ATOM     10  OG1 THR A  1        0.693  -0.477   1.160  0.00  0.00    -0.560 OA
ATOM     11  HG1 THR A  1        0.294  -0.202   1.996  0.00  0.00    +0.400 HD
ENDBRANCH   9  10
ENDBRANCH   4   9
ENDBRANCH   1   4
BRANCH   1  12
ATOM     12  C   UNK A  0       -2.794  -2.495  -0.226  0.00  0.00    +0.340 C 
BRANCH  12  13
ATOM     13  C   UNK A  0       -2.777  -3.996  -0.358  0.00  0.00    -0.330 A 
ATOM     14  C   UNK A  0       -2.706  -4.596  -1.605  0.00  0.00    +0.400 A 
ATOM     15  N   UNK A  0       -2.692  -5.916  -1.686  0.00  0.00    -0.570 NA
ATOM     16  C   UNK A  0       -2.745  -6.662  -0.592  0.00  0.00    +0.580 A 
ATOM     17  N   UNK A  0       -2.812  -6.120   0.615  0.00  0.00    -0.570 NA
ATOM     18  C   UNK A  0       -2.825  -4.806   0.766  0.00  0.00    +0.420 A 
BRANCH  16  19
ATOM     19  N   UNK A  0       -2.728  -8.041  -0.714  0.00  0.00    -0.810 N 
ATOM     20  H   UNK A  0       -2.767  -8.598   0.079  0.00  0.00    +0.420 HD
ATOM     21  H   UNK A  0       -2.679  -8.450  -1.592  0.00  0.00    +0.420 HD
ENDBRANCH  16  19
ENDBRANCH  12  13
ENDBRANCH   1  12
TORSDOF 7
ENDMDL
MODEL      842
REMARK  Name = ZINC000218765516
REMARK                            x       y       z     vdW  Elec       q    Type
REMARK                         _______ _______ _______ _____ _____    ______ ____
ROOT
ATOM      1  C   ACE A  0        0.059  -4.188  -0.023  0.00  0.00    +0.350 C 
ENDROOT
BRANCH   1   5
ATOM      2  C   LIG    1        0.002  -0.004   0.002  0.00  0.00    +0.580 A 
ATOM      3  N   LIG    1       -1.145  -0.666   0.004  0.00  0.00    -0.570 NA
ATOM      4  C   LIG    1       -1.163  -1.989  -0.004  0.00  0.00    +0.420 A 
ATOM      5  C   LIG    1        0.038  -2.681  -0.014  0.00  0.00    -0.330 A 
ATOM      6  C   LIG    1        1.220  -1.957  -0.015  0.00  0.00    +0.390 A 
ATOM      7  N   LIG    1        1.167  -0.635  -0.013  0.00  0.00    -0.570 NA
BRANCH   2   8
ATOM      8  N   LIG    1       -0.017   1.380   0.010  0.00  0.00    -0.810 N 
ATOM      9  H   LIG    1       -0.863   1.853   0.016  0.00  0.00    +0.420 HD
ATOM     10  H   LIG    1        0.817   1.876   0.004  0.00  0.00    +0.420 HD
ENDBRANCH   2   8
ENDBRANCH   1   5
BRANCH   1  11
ATOM     11  N   LIG    1        0.059  -4.669  -1.411  0.00  0.00    -0.480 N 
ATOM     12  H1  LIG    1        0.876  -4.319  -1.888  0.00  0.00    +0.400 HD
ATOM     13  H2  LIG    1       -0.772  -4.341  -1.881  0.00  0.00    +0.430 HD
BRANCH  11  14
ATOM     14  CA  LIG    1        0.079  -6.138  -1.420  0.00  0.00    +0.080 C 
BRANCH  14  15
ATOM     15  C   LIG    1       -1.199  -6.661  -0.817  0.00  0.00    +0.500 C 
ATOM     16  OXT LIG    1       -1.311  -7.848  -0.561  0.00  0.00    -0.640 OA
ATOM     17  O   LIG    1       -2.121  -5.898  -0.584  0.00  0.00    -0.660 OA
ENDBRANCH  14  15
BRANCH  14  18
ATOM     18  CB  LIG    1        0.204  -6.637  -2.861  0.00  0.00    +0.220 C 
BRANCH  18  19
ATOM     19  O   LIG    1       -0.965  -6.270  -3.596  0.00  0.00    -0.570 OA
ATOM     20  H   LIG    1       -0.954  -6.556  -4.520  0.00  0.00    +0.390 HD
ENDBRANCH  18  19
ENDBRANCH  14  18
ENDBRANCH  11  14
ENDBRANCH   1  11
TORSDOF 7
ENDMDL
MODEL      843
REMARK  Name = ZINC000218767056
REMARK                            x       y       z     vdW  Elec       q    Type
REMARK                         _______ _______ _______ _____ _____    ______ ____
ROOT
ATOM      1  N   THR A  1       -2.157   0.036   1.157  0.00  0.00    -0.480 N 
ATOM      2  H1  THR A  1       -2.100   1.043   1.124  0.00  0.00    +0.400 HD
ATOM      3  H2  THR A  1       -1.743  -0.296   2.016  0.00  0.00    +0.420 HD
ENDROOT
BRANCH   1   4
ATOM      4  CA  THR A  1       -1.433  -0.534   0.013  0.00  0.00    +0.050 C 
BRANCH   4   5
ATOM      5  C   THR A  1       -1.414  -2.036   0.129  0.00  0.00    +0.500 C 
ATOM      6  OXT THR A  1       -1.024  -2.714  -0.807  0.00  0.00    -0.630 OA
ATOM      7  O   THR A  1       -1.787  -2.573   1.157  0.00  0.00    -0.670 OA
ENDBRANCH   4   5
BRANCH   4   9
ATOM      8  CG2 THR A  1       -0.019   1.526   0.010  0.00  0.00    +0.020 C 
ATOM      9  CB  THR A  1        0.002  -0.004   0.002  0.00  0.00    +0.240 C 
BRANCH   9  10
ATOM     10  OG1 THR A  1        0.693  -0.477   1.160  0.00  0.00    -0.530 OA
ATOM     11  HG1 THR A  1        0.294  -0.202   1.996  0.00  0.00    +0.360 HD
ENDBRANCH   9  10
ENDBRANCH   4   9
ENDBRANCH   1   4
BRANCH   1  12
ATOM     12  C   UNK A  0       -3.566  -0.377   1.101  0.00  0.00    +0.350 C 
BRANCH  12  13
ATOM     13  C   UNK A  0       -4.308   0.208   2.275  0.00  0.00    -0.330 A 
ATOM     14  C   UNK A  0       -4.394  -0.483   3.473  0.00  0.00    +0.420 A 
ATOM     15  N   UNK A  0       -5.052   0.058   4.485  0.00  0.00    -0.570 NA
ATOM     16  C   UNK A  0       -5.625   1.246   4.361  0.00  0.00    +0.580 A 
ATOM     17  N   UNK A  0       -5.561   1.933   3.230  0.00  0.00    -0.570 NA
ATOM     18  C   UNK A  0       -4.914   1.451   2.182  0.00  0.00    +0.390 A 
BRANCH  16  19
ATOM     19  N   UNK A  0       -6.307   1.783   5.440  0.00  0.00    -0.810 N 
ATOM     20  H   UNK A  0       -6.730   2.652   5.362  0.00  0.00    +0.420 HD
ATOM     21  H   UNK A  0       -6.360   1.291   6.273  0.00  0.00    +0.420 HD
ENDBRANCH  16  19
ENDBRANCH  12  13
ENDBRANCH   1  12
TORSDOF 7
ENDMDL
MODEL      844
REMARK  Name = ZINC000245189567
REMARK                            x       y       z     vdW  Elec       q    Type
REMARK                         _______ _______ _______ _____ _____    ______ ____
ROOT
ATOM      1  C   LIG    1        0.673  -0.582   1.123  0.00  0.00    +0.180 C 
ATOM      2  C   LIG    1        2.156  -0.773   0.790  0.00  0.00    +0.130 C 
ATOM      3  C   LIG    1        2.287  -1.758  -0.374  0.00  0.00    +0.170 C 
ATOM      4  O   LIG    1        1.664  -2.995  -0.022  0.00  0.00    -0.390 OA
ATOM      5  C   LIG    1        0.266  -2.886   0.254  0.00  0.00    +0.330 C 
ATOM      6  C   LIG    1        0.053  -1.945   1.445  0.00  0.00    +0.250 C 
ENDROOT
BRANCH   6   7
ATOM      7  N   LIG    1        0.695  -2.508   2.635  0.00  0.00    -0.720 N 
ATOM      8  H   LIG    1        1.593  -2.234   2.877  0.00  0.00    +0.400 HD
ATOM      9  C   LIG    1        0.037  -3.407   3.394  0.00  0.00    +0.520 C 
ATOM     10  O   LIG    1       -1.087  -3.750   3.092  0.00  0.00    -0.520 OA
ATOM     11  C   LIG    1        0.697  -3.986   4.619  0.00  0.00    +0.100 C 
ENDBRANCH   6   7
BRANCH   1  13
ATOM     12  C   LIG    1       -0.017   1.425   0.010  0.00  0.00    +0.220 C 
ATOM     13  O   LIG    1        0.002  -0.004   0.002  0.00  0.00    -0.370 OA
ENDBRANCH   1  13
BRANCH   5  14
ATOM     14  O   LIG    1       -0.260  -4.178   0.567  0.00  0.00    -0.520 OA
ATOM     15  H   LIG    1       -0.159  -4.826  -0.143  0.00  0.00    +0.380 HD
ENDBRANCH   5  14
BRANCH   2  16
ATOM     16  O   LIG    1        2.728   0.483   0.420  0.00  0.00    -0.550 OA
ATOM     17  H   LIG    1        3.667   0.437   0.196  0.00  0.00    +0.380 HD
ENDBRANCH   2  16
BRANCH   3  18
ATOM     18  C   LIG    1        3.768  -2.000  -0.674  0.00  0.00    +0.200 C 
BRANCH  18  19
ATOM     19  O   LIG    1        3.890  -2.827  -1.833  0.00  0.00    -0.560 OA
ATOM     20  H   LIG    1        4.804  -3.022  -2.082  0.00  0.00    +0.380 HD
ENDBRANCH  18  19
ENDBRANCH   3  18
TORSDOF 6
ENDMDL
MODEL      845
REMARK  Name = ZINC000218765473
REMARK                            x       y       z     vdW  Elec       q    Type
REMARK                         _______ _______ _______ _____ _____    ______ ____
ROOT
ATOM      1  C   ACE A  0        0.059  -4.188  -0.023  0.00  0.00    +0.340 C 
ENDROOT
BRANCH   1   5
ATOM      2  C   LIG    1        0.002  -0.004   0.002  0.00  0.00    +0.580 A 
ATOM      3  N   LIG    1       -1.145  -0.666   0.004  0.00  0.00    -0.570 NA
ATOM      4  C   LIG    1       -1.163  -1.989  -0.004  0.00  0.00    +0.400 A 
ATOM      5  C   LIG    1        0.038  -2.681  -0.014  0.00  0.00    -0.330 A 
ATOM      6  C   LIG    1        1.220  -1.957  -0.015  0.00  0.00    +0.420 A 
ATOM      7  N   LIG    1        1.167  -0.635  -0.013  0.00  0.00    -0.570 NA
BRANCH   2   8
ATOM      8  N   LIG    1       -0.017   1.380   0.010  0.00  0.00    -0.810 N 
ATOM      9  H   LIG    1       -0.863   1.853   0.016  0.00  0.00    +0.420 HD
ATOM     10  H   LIG    1        0.817   1.876   0.004  0.00  0.00    +0.420 HD
ENDBRANCH   2   8
ENDBRANCH   1   5
BRANCH   1  11
ATOM     11  N   LIG    1        0.059  -4.669  -1.411  0.00  0.00    -0.480 N 
ATOM     12  H1  LIG    1        0.876  -4.319  -1.888  0.00  0.00    +0.430 HD
ATOM     13  H2  LIG    1       -0.772  -4.341  -1.881  0.00  0.00    +0.400 HD
BRANCH  11  14
ATOM     14  CA  LIG    1        0.079  -6.138  -1.420  0.00  0.00    +0.080 C 
BRANCH  14  15
ATOM     15  C   LIG    1        1.376  -6.626  -0.829  0.00  0.00    +0.500 C 
ATOM     16  OXT LIG    1        2.387  -5.953  -0.936  0.00  0.00    -0.650 OA
ATOM     17  O   LIG    1        1.415  -7.695  -0.243  0.00  0.00    -0.640 OA
ENDBRANCH  14  15
BRANCH  14  18
ATOM     18  CB  LIG    1       -0.047  -6.641  -2.859  0.00  0.00    +0.220 C 
BRANCH  18  19
ATOM     19  O   LIG    1        1.105  -6.242  -3.605  0.00  0.00    -0.560 OA
ATOM     20  H   LIG    1        1.093  -6.528  -4.529  0.00  0.00    +0.390 HD
ENDBRANCH  18  19
ENDBRANCH  14  18
ENDBRANCH  11  14
ENDBRANCH   1  11
TORSDOF 7
ENDMDL
MODEL      846
REMARK  Name = ZINC000013513054
REMARK                            x       y       z     vdW  Elec       q    Type
REMARK                         _______ _______ _______ _____ _____    ______ ____
ROOT
ATOM      1  C   LIG    1       -1.432  -1.925   0.005  0.00  0.00    +0.310 C 
ATOM      2  O   LIG    1       -0.907  -2.431  -1.224  0.00  0.00    -0.380 OA
ATOM      3  C   LIG    1       -0.929  -3.856  -1.325  0.00  0.00    +0.150 C 
ATOM      4  C   LIG    1       -2.376  -4.350  -1.241  0.00  0.00    +0.130 C 
ATOM      5  C   LIG    1       -2.997  -3.868   0.074  0.00  0.00    +0.200 C 
ATOM      6  C   LIG    1       -2.899  -2.341   0.142  0.00  0.00    +0.260 C 
ENDROOT
BRANCH   6   7
ATOM      7  N   LIG    1       -3.424  -1.874   1.428  0.00  0.00    -0.720 N 
ATOM      8  H   LIG    1       -3.422  -2.466   2.196  0.00  0.00    +0.400 HD
ATOM      9  C   LIG    1       -3.909  -0.622   1.543  0.00  0.00    +0.510 C 
ATOM     10  O   LIG    1       -3.912   0.118   0.582  0.00  0.00    -0.520 OA
ATOM     11  C   LIG    1       -4.449  -0.142   2.865  0.00  0.00    +0.080 C 
ENDBRANCH   6   7
BRANCH   5  12
ATOM     12  O   LIG    1       -2.292  -4.444   1.175  0.00  0.00    -0.550 OA
ATOM     13  H   LIG    1       -2.308  -5.410   1.190  0.00  0.00    +0.390 HD
ENDBRANCH   5  12
BRANCH   4  14
ATOM     14  O   LIG    1       -3.123  -3.829  -2.343  0.00  0.00    -0.550 OA
ATOM     15  H   LIG    1       -2.781  -4.091  -3.208  0.00  0.00    +0.380 HD
ENDBRANCH   4  14
BRANCH   1  16
ATOM     16  O   LIG    1       -1.339  -0.499   0.012  0.00  0.00    -0.340 OA
BRANCH  16  18
ATOM     17  C   LIG    1       -0.019   1.526   0.010  0.00  0.00    +0.040 C 
ATOM     18  C   LIG    1        0.002  -0.004   0.002  0.00  0.00    +0.160 C 
ENDBRANCH  16  18
ENDBRANCH   1  16
BRANCH   3  19
ATOM     19  C   LIG    1       -0.321  -4.282  -2.662  0.00  0.00    +0.200 C 
BRANCH  19  20
ATOM     20  O   LIG    1        1.062  -3.923  -2.692  0.00  0.00    -0.560 OA
ATOM     21  H   LIG    1        1.513  -4.164  -3.513  0.00  0.00    +0.380 HD
ENDBRANCH  19  20
ENDBRANCH   3  19
TORSDOF 7
ENDMDL
MODEL      847
REMARK  Name = ZINC000014638256
REMARK                            x       y       z     vdW  Elec       q    Type
REMARK                         _______ _______ _______ _____ _____    ______ ____
ROOT
ATOM      1  C   LIG    1        0.059  -4.184  -0.075  0.00  0.00    +0.270 C 
ENDROOT
BRANCH   1   6
ATOM      2  C   LIG    1       -0.018   1.503   0.010  0.00  0.00    +0.140 C 
ATOM      3  C   LIG    1        0.002  -0.004   0.002  0.00  0.00    +0.080 A 
ATOM      4  C   LIG    1        0.006  -0.689  -1.200  0.00  0.00    +0.220 A 
ATOM      5  N   LIG    1        0.024  -2.011  -1.207  0.00  0.00    -0.400 NA
ATOM      6  C   LIG    1        0.038  -2.677  -0.067  0.00  0.00    +0.030 A 
ATOM      7  C   LIG    1        0.034  -1.992   1.136  0.00  0.00    +0.240 A 
ATOM      8  N   LIG    1        0.022  -0.671   1.143  0.00  0.00    -0.440 NA
ENDBRANCH   1   6
BRANCH   1   9
ATOM      9  O   LIG    1        1.284  -4.640  -0.653  0.00  0.00    -0.540 OA
ATOM     10  H   LIG    1        1.422  -4.348  -1.564  0.00  0.00    +0.380 HD
ENDBRANCH   1   9
BRANCH   1  11
ATOM     11  C   LIG    1       -1.119  -4.706  -0.900  0.00  0.00    +0.160 C 
BRANCH  11  12
ATOM     12  O   LIG    1       -1.079  -4.128  -2.206  0.00  0.00    -0.530 OA
ATOM     13  H   LIG    1       -0.273  -4.330  -2.701  0.00  0.00    +0.380 HD
ENDBRANCH  11  12
BRANCH  11  14
ATOM     14  C   LIG    1       -1.028  -6.229  -1.013  0.00  0.00    +0.190 C 
BRANCH  14  15
ATOM     15  O   LIG    1       -1.068  -6.807   0.294  0.00  0.00    -0.540 OA
ATOM     16  H   LIG    1       -1.874  -6.605   0.788  0.00  0.00    +0.370 HD
ENDBRANCH  14  15
BRANCH  14  17
ATOM     17  C   LIG    1       -2.206  -6.751  -1.837  0.00  0.00    +0.160 C 
BRANCH  17  18
ATOM     18  O   LIG    1       -2.059  -8.158  -2.042  0.00  0.00    -0.570 OA
ATOM     19  H   LIG    1       -2.772  -8.557  -2.558  0.00  0.00    +0.380 HD
ENDBRANCH  17  18
ENDBRANCH  14  17
ENDBRANCH  11  14
ENDBRANCH   1  11
TORSDOF 8
ENDMDL
MODEL      848
REMARK  Name = ZINC000004536644
REMARK                            x       y       z     vdW  Elec       q    Type
REMARK                         _______ _______ _______ _____ _____    ______ ____
ROOT
ATOM      1  C   LIG    1       -1.136  -2.159   0.001  0.00  0.00    +0.190 C 
ATOM      2  C   LIG    1       -1.094  -2.679  -1.421  0.00  0.00    +0.470 C 
ATOM      3  O   LIG    1       -1.914  -3.742  -1.502  0.00  0.00    -0.340 OA
ATOM      4  C   LIG    1       -3.037  -3.528  -0.595  0.00  0.00    +0.180 C 
ATOM      5  O   LIG    1       -0.438  -2.218  -2.325  0.00  0.00    -0.420 OA
ATOM      6  C   LIG    1       -2.452  -2.718   0.585  0.00  0.00    +0.180 C 
ENDROOT
BRANCH   1   9
ATOM      7  C   LIG    1       -0.018   1.503   0.010  0.00  0.00    +0.110 C 
ATOM      8  C   LIG    1        0.002  -0.004   0.002  0.00  0.00    +0.520 C 
ATOM      9  N   LIG    1       -1.156  -0.694   0.009  0.00  0.00    -0.720 N 
ATOM     10  H   LIG    1       -2.002  -0.220   0.020  0.00  0.00    +0.410 HD
ATOM     11  O   LIG    1        1.060  -0.596  -0.011  0.00  0.00    -0.530 OA
ENDBRANCH   1   9
BRANCH   6  12
ATOM     12  O   LIG    1       -2.195  -3.570   1.703  0.00  0.00    -0.510 OA
ATOM     13  H   LIG    1       -1.827  -3.111   2.471  0.00  0.00    +0.380 HD
ENDBRANCH   6  12
BRANCH   4  14
ATOM     14  C   LIG    1       -3.584  -4.869  -0.101  0.00  0.00    +0.260 C 
BRANCH  14  15
ATOM     15  O   LIG    1       -2.580  -5.541   0.661  0.00  0.00    -0.520 OA
ATOM     16  H   LIG    1       -1.770  -5.728   0.167  0.00  0.00    +0.370 HD
ENDBRANCH  14  15
BRANCH  14  17
ATOM     17  C   LIG    1       -3.977  -5.733  -1.302  0.00  0.00    +0.150 C 
BRANCH  17  18
ATOM     18  O   LIG    1       -4.595  -6.936  -0.841  0.00  0.00    -0.560 OA
ATOM     19  H   LIG    1       -4.870  -7.533  -1.549  0.00  0.00    +0.380 HD
ENDBRANCH  17  18
ENDBRANCH  14  17
ENDBRANCH   4  14
TORSDOF 6
ENDMDL
MODEL      849
REMARK  Name = ZINC000225507083
REMARK                            x       y       z     vdW  Elec       q    Type
REMARK                         _______ _______ _______ _____ _____    ______ ____
ROOT
ATOM      1  C   LIG    1        0.633  -2.108   1.011  0.00  0.00    +0.020 C 
ATOM      2  C   LIG    1        1.506  -2.587  -0.175  0.00  0.00    +0.050 C 
ATOM      3  C   LIG    1        1.841  -4.048   0.216  0.00  0.00    +0.260 C 
ATOM      4  C   LIG    1        2.054  -3.992   1.742  0.00  0.00    +0.130 C 
ATOM      5  C   LIG    1        1.282  -2.758   2.250  0.00  0.00    +0.150 C 
ENDROOT
BRANCH   3   6
ATOM      6  N   LIG    1        3.063  -4.492  -0.459  0.00  0.00    -0.730 N 
ATOM      7  H   LIG    1        3.723  -3.841  -0.745  0.00  0.00    +0.400 HD
ATOM      8  C   LIG    1        3.271  -5.805  -0.682  0.00  0.00    +0.510 C 
ATOM      9  O   LIG    1        2.446  -6.619  -0.324  0.00  0.00    -0.530 OA
ATOM     10  C   LIG    1        4.529  -6.261  -1.376  0.00  0.00    +0.090 C 
ENDBRANCH   3   6
BRANCH   4  11
ATOM     11  O   LIG    1        1.536  -5.176   2.353  0.00  0.00    -0.540 OA
ATOM     12  H   LIG    1        1.640  -5.200   3.314  0.00  0.00    +0.370 HD
ENDBRANCH   4  11
BRANCH   5  13
ATOM     13  O   LIG    1        0.277  -3.159   3.183  0.00  0.00    -0.550 OA
ATOM     14  H   LIG    1        0.625  -3.593   3.973  0.00  0.00    +0.380 HD
ENDBRANCH   5  13
BRANCH   1  15
ATOM     15  C   LIG    1        0.673  -0.582   1.123  0.00  0.00    +0.180 C 
BRANCH  15  17
ATOM     16  C   LIG    1       -0.017   1.425   0.010  0.00  0.00    +0.200 C 
ATOM     17  O   LIG    1        0.002  -0.004   0.002  0.00  0.00    -0.390 OA
ENDBRANCH  15  17
ENDBRANCH   1  15
TORSDOF 5
ENDMDL
MODEL      850
REMARK  Name = ZINC000006490943
REMARK                            x       y       z     vdW  Elec       q    Type
REMARK                         _______ _______ _______ _____ _____    ______ ____
ROOT
ATOM      1  C   LIG    1       -0.019   1.526   0.010  0.00  0.00    +0.070 C 
ATOM      2  C   LIG    1        0.002  -0.004   0.002  0.00  0.00    +0.140 C 
ATOM      3  O   LIG    1        0.734  -0.491  -1.144  0.00  0.00    -0.360 OA
ATOM      4  C   LIG    1        1.116  -1.842  -0.806  0.00  0.00    +0.440 C 
ATOM      5  C   LIG    1        1.531  -1.775   0.681  0.00  0.00    +0.170 C 
ATOM      6  C   LIG    1        0.779  -0.538   1.226  0.00  0.00    +0.130 C 
ENDROOT
BRANCH   4   7
ATOM      7  N   LIG    1        2.244  -2.276  -1.634  0.00  0.00    -0.530 N 
ATOM      8  C   LIG    1        3.381  -1.516  -1.681  0.00  0.00    +0.350 A 
ATOM      9  C   LIG    1        4.421  -1.916  -2.444  0.00  0.00    -0.110 A 
ATOM     10  C   LIG    1        4.311  -3.120  -3.182  0.00  0.00    +0.550 A 
ATOM     11  N   LIG    1        3.174  -3.840  -3.108  0.00  0.00    -0.660 N 
ATOM     12  H   LIG    1        3.091  -4.666  -3.610  0.00  0.00    +0.430 HD
ATOM     13  O   LIG    1        5.236  -3.501  -3.876  0.00  0.00    -0.510 OA
ATOM     14  C   LIG    1        2.154  -3.420  -2.335  0.00  0.00    +0.710 A 
ATOM     15  O   LIG    1        1.135  -4.080  -2.278  0.00  0.00    -0.530 OA
ENDBRANCH   4   7
BRANCH   5  16
ATOM     16  O   LIG    1        1.118  -2.957   1.370  0.00  0.00    -0.530 OA
ATOM     17  H   LIG    1        1.353  -2.968   2.308  0.00  0.00    +0.390 HD
ENDBRANCH   5  16
BRANCH   6  18
ATOM     18  O   LIG    1       -0.120  -0.918   2.270  0.00  0.00    -0.540 OA
ATOM     19  H   LIG    1       -0.618  -0.181   2.648  0.00  0.00    +0.390 HD
ENDBRANCH   6  18
TORSDOF 3
ENDMDL
MODEL      851
REMARK  Name = ZINC000197761489
REMARK                            x       y       z     vdW  Elec       q    Type
REMARK                         _______ _______ _______ _____ _____    ______ ____
ROOT
ATOM      1  N   LIG    1       -1.005  -2.212  -0.000  0.00  0.00    -0.520 N 
ATOM      2  C   LIG    1       -0.856  -2.977  -1.098  0.00  0.00    +0.700 A 
ATOM      3  N   LIG    1       -0.600  -4.248  -0.733  0.00  0.00    -0.520 N 
ATOM      4  C   LIG    1       -0.583  -4.310   0.659  0.00  0.00    +0.100 A 
ATOM      5  C   LIG    1       -0.374  -5.340   1.563  0.00  0.00    +0.030 A 
ATOM      6  C   LIG    1       -0.421  -5.084   2.919  0.00  0.00    +0.020 A 
ATOM      7  C   LIG    1       -0.676  -3.804   3.380  0.00  0.00    +0.020 A 
ATOM      8  C   LIG    1       -0.886  -2.771   2.487  0.00  0.00    +0.030 A 
ATOM      9  O   LIG    1       -0.939  -2.581  -2.245  0.00  0.00    -0.550 OA
ATOM     10  C   LIG    1       -0.835  -3.017   1.123  0.00  0.00    +0.100 A 
ENDROOT
BRANCH   1  11
ATOM     11  C   LIG    1       -1.293  -0.775   0.010  0.00  0.00    +0.360 C 
BRANCH  11  15
ATOM     12  N   LIG    1       -0.016   1.344   0.009  0.00  0.00    -0.850 N 
ATOM     13  H   LIG    1       -0.863   1.817   0.016  0.00  0.00    +0.400 HD
ATOM     14  H   LIG    1        0.817   1.840   0.004  0.00  0.00    +0.410 HD
ATOM     15  C   LIG    1        0.002  -0.004   0.002  0.00  0.00    +0.490 C 
ATOM     16  O   LIG    1        1.060  -0.596  -0.011  0.00  0.00    -0.520 OA
ENDBRANCH  11  15
ENDBRANCH   1  11
BRANCH   3  17
ATOM     17  C   LIG    1       -0.377  -5.373  -1.644  0.00  0.00    +0.360 C 
BRANCH  17  18
ATOM     18  C   LIG    1        1.093  -5.479  -1.960  0.00  0.00    +0.490 C 
ATOM     19  O   LIG    1        1.877  -4.693  -1.473  0.00  0.00    -0.520 OA
ATOM     20  N   LIG    1        1.536  -6.449  -2.785  0.00  0.00    -0.850 N 
ATOM     21  H   LIG    1        2.482  -6.517  -2.989  0.00  0.00    +0.410 HD
ATOM     22  H   LIG    1        0.909  -7.078  -3.175  0.00  0.00    +0.400 HD
ENDBRANCH  17  18
ENDBRANCH   3  17
TORSDOF 4
ENDMDL
MODEL      852
REMARK  Name = ZINC000217397038
REMARK                            x       y       z     vdW  Elec       q    Type
REMARK                         _______ _______ _______ _____ _____    ______ ____
ROOT
ATOM      1  O   LIG    1        0.002  -0.004   0.002  0.00  0.00    -0.540 OA
ATOM      2  C   LIG    1       -0.014   1.209   0.009  0.00  0.00    +0.640 C 
ATOM      3  N   LIG    1        1.143   1.898   0.001  0.00  0.00    -0.630 N 
ATOM      4  C   LIG    1        1.158   3.371   0.015  0.00  0.00    +0.300 C 
ATOM      5  C   LIG    1        1.872   3.829   1.288  0.00  0.00    +0.270 C 
ATOM      6  N   LIG    1        3.112   3.089   1.481  0.00  0.00    -0.590 N 
ATOM      7  C   LIG    1        3.374   1.898   0.940  0.00  0.00    +0.510 C 
ATOM      8  O   LIG    1        4.411   1.344   1.238  0.00  0.00    -0.530 OA
ATOM      9  C   LIG    1        2.443   1.211  -0.015  0.00  0.00    +0.340 C 
ENDROOT
BRANCH   6  10
ATOM     10  C   LIG    1        4.142   3.695   2.328  0.00  0.00    +0.270 C 
ATOM     11  C   LIG    1        5.449   3.858   1.532  0.00  0.00    +0.070 C 
ATOM     12  C   LIG    1        6.593   4.170   2.518  0.00  0.00    -0.310 C 
ATOM     13  S   LIG    1        6.088   3.390   4.094  0.00  0.00    +2.390 S 
ATOM     14  O   LIG    1        5.888   4.398   5.075  0.00  0.00    -0.940 OA
ATOM     15  O   LIG    1        6.947   2.292   4.372  0.00  0.00    -0.930 OA
ATOM     16  C   LIG    1        4.463   2.762   3.524  0.00  0.00    -0.310 C 
ENDBRANCH   6  10
TORSDOF 1
ENDMDL
MODEL      853
REMARK  Name = ZINC000247713223
REMARK                            x       y       z     vdW  Elec       q    Type
REMARK                         _______ _______ _______ _____ _____    ______ ____
ROOT
ATOM      1  C   LIG    1       -1.293  -0.775   0.010  0.00  0.00    +0.260 C 
ATOM      2  O   LIG    1       -2.006  -0.522  -1.202  0.00  0.00    -0.410 OA
ATOM      3  C   LIG    1       -3.243  -1.229  -1.309  0.00  0.00    +0.320 C 
ATOM      4  C   LIG    1       -4.173  -0.803  -0.170  0.00  0.00    +0.150 C 
ATOM      5  C   LIG    1       -3.482  -1.076   1.170  0.00  0.00    +0.210 C 
ATOM      6  C   LIG    1       -2.143  -0.332   1.203  0.00  0.00    +0.210 C 
ENDROOT
BRANCH   1  10
ATOM      7  N   LIG    1       -0.016   1.344   0.009  0.00  0.00    -0.840 N 
ATOM      8  H   LIG    1       -0.863   1.817   0.016  0.00  0.00    +0.410 HD
ATOM      9  H   LIG    1        0.817   1.840   0.004  0.00  0.00    +0.410 HD
ATOM     10  C   LIG    1        0.002  -0.004   0.002  0.00  0.00    +0.510 C 
ATOM     11  O   LIG    1        1.060  -0.596  -0.011  0.00  0.00    -0.510 OA
ENDBRANCH   1  10
BRANCH   5  12
ATOM     12  O   LIG    1       -3.254  -2.479   1.314  0.00  0.00    -0.520 OA
ATOM     13  H   LIG    1       -4.061  -3.013   1.296  0.00  0.00    +0.380 HD
ENDBRANCH   5  12
BRANCH   4  14
ATOM     14  O   LIG    1       -4.462   0.591  -0.284  0.00  0.00    -0.550 OA
ATOM     15  H   LIG    1       -4.896   0.836  -1.113  0.00  0.00    +0.390 HD
ENDBRANCH   4  14
BRANCH   3  16
ATOM     16  O   LIG    1       -3.858  -0.926  -2.564  0.00  0.00    -0.540 OA
ATOM     17  H   LIG    1       -3.323  -1.169  -3.332  0.00  0.00    +0.400 HD
ENDBRANCH   3  16
BRANCH   1  18
ATOM     18  O   LIG    1       -1.014  -2.173   0.117  0.00  0.00    -0.510 OA
ATOM     19  H   LIG    1       -0.478  -2.523  -0.607  0.00  0.00    +0.380 HD
ENDBRANCH   1  18
BRANCH   6  20
ATOM     20  O   LIG    1       -1.458  -0.635   2.420  0.00  0.00    -0.530 OA
ATOM     21  H   LIG    1       -0.601  -0.197   2.508  0.00  0.00    +0.380 HD
ENDBRANCH   6  20
TORSDOF 6
ENDMDL
MODEL      854
REMARK  Name = ZINC000247865032
REMARK                            x       y       z     vdW  Elec       q    Type
REMARK                         _______ _______ _______ _____ _____    ______ ____
ROOT
ATOM      1  O   LIG    1        0.002  -0.004   0.002  0.00  0.00    -0.510 OA
ATOM      2  C   LIG    1       -0.014   1.211   0.009  0.00  0.00    +0.650 C 
ATOM      3  N   LIG    1       -1.149   1.934   0.029  0.00  0.00    -0.720 N 
ATOM      4  H   LIG    1       -2.046   1.591   0.163  0.00  0.00    +0.440 HD
ATOM      5  C   LIG    1       -0.776   3.355  -0.192  0.00  0.00    +0.410 C 
ATOM      6  O   LIG    1       -0.948   3.621  -1.583  0.00  0.00    -0.360 OA
ATOM      7  C   LIG    1       -0.317   4.816  -2.042  0.00  0.00    +0.150 C 
ATOM      8  C   LIG    1        1.196   4.634  -1.927  0.00  0.00    +0.120 C 
ATOM      9  C   LIG    1        1.582   4.336  -0.490  0.00  0.00    +0.210 C 
ATOM     10  C   LIG    1        0.698   3.347   0.219  0.00  0.00    +0.160 C 
ATOM     11  O   LIG    1        1.100   1.965   0.002  0.00  0.00    -0.290 OA
ENDROOT
BRANCH   9  12
ATOM     12  O   LIG    1        2.920   3.834  -0.478  0.00  0.00    -0.530 OA
ATOM     13  H   LIG    1        3.574   4.448  -0.838  0.00  0.00    +0.380 HD
ENDBRANCH   9  12
BRANCH   8  14
ATOM     14  O   LIG    1        1.607   3.547  -2.759  0.00  0.00    -0.530 OA
ATOM     15  H   LIG    1        1.403   3.671  -3.697  0.00  0.00    +0.380 HD
ENDBRANCH   8  14
BRANCH   7  16
ATOM     16  C   LIG    1       -0.697   5.070  -3.502  0.00  0.00    +0.210 C 
BRANCH  16  17
ATOM     17  O   LIG    1       -2.100   5.328  -3.591  0.00  0.00    -0.560 OA
ATOM     18  H   LIG    1       -2.412   5.499  -4.491  0.00  0.00    +0.390 HD
ENDBRANCH  16  17
ENDBRANCH   7  16
TORSDOF 4
ENDMDL
MODEL      855
REMARK  Name = ZINC000083831645
REMARK                            x       y       z     vdW  Elec       q    Type
REMARK                         _______ _______ _______ _____ _____    ______ ____
ROOT
ATOM      1  C   LIG    1        0.657  -2.104  -1.120  0.00  0.00    +0.290 C 
ENDROOT
BRANCH   1   2
ATOM      2  N   LIG    1        1.724  -2.504  -2.041  0.00  0.00    -0.710 N 
ATOM      3  H   LIG    1        2.460  -3.050  -1.722  0.00  0.00    +0.410 HD
ATOM      4  C   LIG    1        1.683  -2.113  -3.330  0.00  0.00    +0.530 C 
ATOM      5  O   LIG    1        0.764  -1.430  -3.728  0.00  0.00    -0.530 OA
ATOM      6  C   LIG    1        2.781  -2.525  -4.277  0.00  0.00    +0.100 C 
ENDBRANCH   1   2
BRANCH   1   7
ATOM      7  C   LIG    1        0.598  -0.600  -1.043  0.00  0.00    +0.450 C 
ATOM      8  O   LIG    1        1.088   0.070  -1.921  0.00  0.00    -0.460 OA
BRANCH   7  10
ATOM      9  C   LIG    1       -0.018   1.448   0.010  0.00  0.00    +0.280 C 
ATOM     10  O   LIG    1        0.002  -0.004   0.002  0.00  0.00    -0.360 OA
ENDBRANCH   7  10
ENDBRANCH   1   7
BRANCH   1  11
ATOM     11  C   LIG    1       -0.682  -2.641  -1.627  0.00  0.00    +0.360 C 
BRANCH  11  12
ATOM     12  N   LIG    1       -0.666  -4.106  -1.588  0.00  0.00    -0.380 N 
ATOM     13  C   LIG    1       -1.554  -4.905  -0.973  0.00  0.00    +0.480 A 
ATOM     14  N   LIG    1       -1.191  -6.146  -1.173  0.00  0.00    -0.540 NA
ATOM     15  C   LIG    1       -0.081  -6.178  -1.909  0.00  0.00    +0.420 A 
ATOM     16  N   LIG    1        0.276  -4.954  -2.193  0.00  0.00    -0.310 NA
ENDBRANCH  11  12
ENDBRANCH   1  11
TORSDOF 5
ENDMDL
MODEL      856
REMARK  Name = ZINC000217451745
REMARK                            x       y       z     vdW  Elec       q    Type
REMARK                         _______ _______ _______ _____ _____    ______ ____
ROOT
ATOM      1  O   LIG    1        0.002  -0.004   0.002  0.00  0.00    -0.930 OA
ATOM      2  S   LIG    1       -0.017   1.417   0.010  0.00  0.00    +2.360 S 
ATOM      3  C   LIG    1       -0.423   2.020   1.706  0.00  0.00    -0.280 C 
ATOM      4  C   LIG    1        0.785   2.866   2.053  0.00  0.00    +0.000 C 
ATOM      5  C   LIG    1        1.628   2.819   3.295  0.00  0.00    +0.040 C 
ATOM      6  C   LIG    1        2.764   3.095   2.252  0.00  0.00    +0.050 C 
ATOM      7  C   LIG    1        2.007   2.041   1.498  0.00  0.00    +0.000 C 
ATOM      8  O   LIG    1       -0.793   2.123  -0.949  0.00  0.00    -0.930 OA
ATOM      9  C   LIG    1        1.716   2.059  -0.003  0.00  0.00    -0.280 C 
ENDROOT
BRANCH   6  10
ATOM     10  C   LIG    1        4.158   2.655   2.703  0.00  0.00    +0.190 C 
BRANCH  10  11
ATOM     11  O   LIG    1        4.748   3.684   3.499  0.00  0.00    -0.560 OA
ATOM     12  H   LIG    1        5.635   3.473   3.820  0.00  0.00    +0.380 HD
ENDBRANCH  10  11
ENDBRANCH   6  10
BRANCH   5  13
ATOM     13  C   LIG    1        1.374   3.964   4.277  0.00  0.00    +0.190 C 
BRANCH  13  14
ATOM     14  O   LIG    1        2.143   3.752   5.464  0.00  0.00    -0.570 OA
ATOM     15  H   LIG    1        2.031   4.441   6.133  0.00  0.00    +0.380 HD
ENDBRANCH  13  14
ENDBRANCH   5  13
TORSDOF 4
ENDMDL
MODEL      857
REMARK  Name = ZINC000000001253
REMARK                            x       y       z     vdW  Elec       q    Type
REMARK                         _______ _______ _______ _____ _____    ______ ____
ROOT
ATOM      1  C   LIG    1        0.002  -0.004   0.002  0.00  0.00    +0.630 A 
ATOM      2  N   LIG    1       -1.139  -0.678   0.004  0.00  0.00    -0.640 NA
ATOM      3  C   LIG    1       -1.126  -2.014  -0.004  0.00  0.00    +0.650 A 
ATOM      4  N   LIG    1        0.054  -2.668  -0.013  0.00  0.00    -0.560 N 
ATOM      5  C   LIG    1        1.207  -1.963  -0.014  0.00  0.00    +0.670 A 
ATOM      6  O   LIG    1       -2.173  -2.638  -0.002  0.00  0.00    -0.480 OA
ATOM      7  N   LIG    1        1.174  -0.654  -0.013  0.00  0.00    -0.600 NA
ENDROOT
BRANCH   4   8
ATOM      8  C1* LIG    1        0.085  -4.133  -0.021  0.00  0.00    +0.400 C 
ATOM      9  C2* LIG    1        0.768  -4.656  -1.310  0.00  0.00    +0.000 C 
ATOM     10  C3* LIG    1        0.158  -6.073  -1.448  0.00  0.00    +0.170 C 
ATOM     11  C4* LIG    1       -1.136  -6.009  -0.613  0.00  0.00    +0.180 C 
ATOM     12  O4* LIG    1       -1.253  -4.669  -0.103  0.00  0.00    -0.310 OA
BRANCH  10  13
ATOM     13  O3* LIG    1        1.050  -7.055  -0.919  0.00  0.00    -0.550 OA
ATOM     14  H3* LIG    1        1.903  -7.097  -1.373  0.00  0.00    +0.390 HD
ENDBRANCH  10  13
BRANCH  11  15
ATOM     15  C5* LIG    1       -2.341  -6.343  -1.494  0.00  0.00    +0.190 C 
BRANCH  15  16
ATOM     16  O5* LIG    1       -3.520  -6.396  -0.688  0.00  0.00    -0.560 OA
ATOM     17  H5* LIG    1       -4.325  -6.604  -1.182  0.00  0.00    +0.380 HD
ENDBRANCH  15  16
ENDBRANCH  11  15
ENDBRANCH   4   8
BRANCH   1  18
ATOM     18  N   LIG    1       -0.017   1.368   0.010  0.00  0.00    -0.790 N 
ATOM     19  H   LIG    1       -0.863   1.842   0.016  0.00  0.00    +0.420 HD
ATOM     20  H   LIG    1        0.817   1.865   0.004  0.00  0.00    +0.420 HD
ENDBRANCH   1  18
TORSDOF 5
ENDMDL
MODEL      858
REMARK  Name = ZINC000000967756
REMARK                            x       y       z     vdW  Elec       q    Type
REMARK                         _______ _______ _______ _____ _____    ______ ____
ROOT
ATOM      1  C1* LIG    1        0.085  -4.133  -0.021  0.00  0.00    +0.410 C 
ATOM      2  O4* LIG    1       -1.256  -4.663  -0.088  0.00  0.00    -0.300 OA
ATOM      3  C4* LIG    1       -1.107  -6.012  -0.582  0.00  0.00    +0.140 C 
ATOM      4  C3* LIG    1       -0.025  -5.913  -1.680  0.00  0.00    +0.140 C 
ATOM      5  C2* LIG    1        0.781  -4.648  -1.301  0.00  0.00    +0.160 C 
ENDROOT
BRANCH   1   9
ATOM      6  C   LIG    1        0.002  -0.004   0.002  0.00  0.00    +0.630 A 
ATOM      7  N   LIG    1       -1.139  -0.678   0.004  0.00  0.00    -0.640 NA
ATOM      8  C   LIG    1       -1.126  -2.014  -0.004  0.00  0.00    +0.650 A 
ATOM      9  N   LIG    1        0.054  -2.668  -0.013  0.00  0.00    -0.560 N 
ATOM     10  C   LIG    1        1.207  -1.963  -0.014  0.00  0.00    +0.670 A 
ATOM     11  O   LIG    1       -2.173  -2.638  -0.002  0.00  0.00    -0.490 OA
ATOM     12  N   LIG    1        1.174  -0.654  -0.013  0.00  0.00    -0.600 NA
BRANCH   6  13
ATOM     13  N   LIG    1       -0.017   1.368   0.010  0.00  0.00    -0.790 N 
ATOM     14  H   LIG    1       -0.863   1.842   0.016  0.00  0.00    +0.420 HD
ATOM     15  H   LIG    1        0.817   1.865   0.004  0.00  0.00    +0.420 HD
ENDBRANCH   6  13
ENDBRANCH   1   9
BRANCH   4  16
ATOM     16  O3* LIG    1        0.817  -7.068  -1.659  0.00  0.00    -0.540 OA
ATOM     17  H3* LIG    1        0.350  -7.898  -1.831  0.00  0.00    +0.390 HD
ENDBRANCH   4  16
BRANCH   5  18
ATOM     18  O2* LIG    1        2.144  -4.983  -1.037  0.00  0.00    -0.540 OA
ATOM     19  H2* LIG    1        2.609  -5.367  -1.793  0.00  0.00    +0.400 HD
ENDBRANCH   5  18
BRANCH   3  20
ATOM     20  C5* LIG    1       -2.427  -6.511  -1.176  0.00  0.00    +0.210 C 
BRANCH  20  21
ATOM     21  O5* LIG    1       -3.399  -6.636  -0.136  0.00  0.00    -0.560 OA
ATOM     22  H5* LIG    1       -4.262  -6.949  -0.441  0.00  0.00    +0.380 HD
ENDBRANCH  20  21
ENDBRANCH   3  20
TORSDOF 6
ENDMDL
MODEL      859
REMARK  Name = ZINC000004578653
REMARK                            x       y       z     vdW  Elec       q    Type
REMARK                         _______ _______ _______ _____ _____    ______ ____
ROOT
ATOM      1  C   LIG    1       -1.136  -2.159   0.001  0.00  0.00    +0.430 C 
ATOM      2  O   LIG    1       -1.377  -2.631  -1.326  0.00  0.00    -0.360 OA
ATOM      3  C   LIG    1       -2.622  -2.203  -1.881  0.00  0.00    +0.190 C 
ATOM      4  C   LIG    1       -3.772  -2.735  -1.022  0.00  0.00    +0.180 C 
ATOM      5  C   LIG    1       -3.596  -2.240   0.417  0.00  0.00    +0.160 C 
ATOM      6  C   LIG    1       -2.226  -2.689   0.936  0.00  0.00    +0.130 C 
ENDROOT
BRANCH   1  11
ATOM      7  N   LIG    1       -0.016   1.343   0.024  0.00  0.00    -0.860 N 
ATOM      8  H   LIG    1       -0.863   1.817   0.020  0.00  0.00    +0.400 HD
ATOM      9  H   LIG    1        0.817   1.840   0.030  0.00  0.00    +0.420 HD
ATOM     10  C   LIG    1        0.002  -0.004   0.017  0.00  0.00    +0.710 C 
ATOM     11  N   LIG    1       -1.156  -0.694   0.009  0.00  0.00    -0.740 N 
ATOM     12  H   LIG    1       -2.002  -0.220   0.009  0.00  0.00    +0.410 HD
ATOM     13  O   LIG    1        1.063  -0.598   0.017  0.00  0.00    -0.600 OA
ENDBRANCH   1  11
BRANCH   5  14
ATOM     14  O   LIG    1       -3.675  -0.813   0.445  0.00  0.00    -0.550 OA
ATOM     15  H   LIG    1       -3.571  -0.431   1.327  0.00  0.00    +0.390 HD
ENDBRANCH   5  14
BRANCH   4  16
ATOM     16  O   LIG    1       -5.016  -2.262  -1.542  0.00  0.00    -0.540 OA
ATOM     17  H   LIG    1       -5.789  -2.561  -1.045  0.00  0.00    +0.390 HD
ENDBRANCH   4  16
BRANCH   6  18
ATOM     18  O   LIG    1       -2.021  -2.172   2.253  0.00  0.00    -0.550 OA
ATOM     19  H   LIG    1       -1.172  -2.418   2.644  0.00  0.00    +0.390 HD
ENDBRANCH   6  18
BRANCH   3  20
ATOM     20  C   LIG    1       -2.757  -2.742  -3.306  0.00  0.00    +0.210 C 
BRANCH  20  21
ATOM     21  O   LIG    1       -1.752  -2.155  -4.135  0.00  0.00    -0.560 OA
ATOM     22  H   LIG    1       -1.779  -2.452  -5.055  0.00  0.00    +0.380 HD
ENDBRANCH  20  21
ENDBRANCH   3  20
TORSDOF 6
ENDMDL
MODEL      860
REMARK  Name = ZINC000004557110
REMARK                            x       y       z     vdW  Elec       q    Type
REMARK                         _______ _______ _______ _____ _____    ______ ____
ROOT
ATOM      1  C   LIG    1        0.877  -0.392  -1.539  0.00  0.00    +0.160 C 
ATOM      2  O   LIG    1        2.254  -0.033  -1.409  0.00  0.00    -0.330 OA
ATOM      3  C   LIG    1        3.033  -0.274  -2.583  0.00  0.00    +0.180 C 
ATOM      4  C   LIG    1        3.010  -1.769  -2.910  0.00  0.00    +0.160 C 
ATOM      5  C   LIG    1        1.558  -2.221  -3.095  0.00  0.00    +0.160 C 
ATOM      6  C   LIG    1        0.767  -1.892  -1.825  0.00  0.00    +0.140 C 
ENDROOT
BRANCH   1   8
ATOM      7  C   LIG    1       -0.022   1.810   0.012  0.00  0.00    +0.160 C 
ATOM      8  S   LIG    1        0.002  -0.004   0.002  0.00  0.00    -0.210 S 
ENDBRANCH   1   8
BRANCH   5   9
ATOM      9  O   LIG    1        1.522  -3.630  -3.331  0.00  0.00    -0.550 OA
ATOM     10  H   LIG    1        0.631  -3.985  -3.457  0.00  0.00    +0.390 HD
ENDBRANCH   5   9
BRANCH   4  11
ATOM     11  O   LIG    1        3.607  -2.502  -1.839  0.00  0.00    -0.530 OA
ATOM     12  H   LIG    1        3.626  -3.459  -1.979  0.00  0.00    +0.380 HD
ENDBRANCH   4  11
BRANCH   6  13
ATOM     13  O   LIG    1        1.302  -2.629  -0.724  0.00  0.00    -0.520 OA
ATOM     14  H   LIG    1        0.848  -2.469   0.114  0.00  0.00    +0.380 HD
ENDBRANCH   6  13
BRANCH   3  15
ATOM     15  C   LIG    1        4.476   0.173  -2.337  0.00  0.00    +0.220 C 
BRANCH  15  16
ATOM     16  O   LIG    1        4.510   1.588  -2.146  0.00  0.00    -0.570 OA
ATOM     17  H   LIG    1        5.395   1.942  -1.985  0.00  0.00    +0.380 HD
ENDBRANCH  15  16
ENDBRANCH   3  15
TORSDOF 6
ENDMDL
MODEL      861
REMARK  Name = ZINC000004533051
REMARK                            x       y       z     vdW  Elec       q    Type
REMARK                         _______ _______ _______ _____ _____    ______ ____
ROOT
ATOM      1  C   LIG    1       -0.090  -4.658  -2.408  0.00  0.00    +0.170 C 
ENDROOT
BRANCH   1   2
ATOM      2  O   LIG    1       -0.716  -4.091  -3.560  0.00  0.00    -0.540 OA
ATOM      3  H   LIG    1       -0.269  -4.296  -4.392  0.00  0.00    +0.370 HD
ENDBRANCH   1   2
BRANCH   1   4
ATOM      4  C   LIG    1        1.341  -4.130  -2.293  0.00  0.00    +0.190 C 
BRANCH   4   7
ATOM      5  N   LIG    1        0.738  -1.962  -1.265  0.00  0.00    -0.730 N 
ATOM      6  H   LIG    1        0.332  -2.457  -0.536  0.00  0.00    +0.400 HD
ATOM      7  C   LIG    1        1.321  -2.623  -2.285  0.00  0.00    +0.490 C 
ATOM      8  O   LIG    1        1.829  -2.004  -3.196  0.00  0.00    -0.530 OA
BRANCH   5   9
ATOM      9  C   LIG    1        0.718  -0.497  -1.257  0.00  0.00    +0.260 C 
BRANCH   9  11
ATOM     10  C   LIG    1       -0.019   1.526   0.010  0.00  0.00    +0.030 C 
ATOM     11  C   LIG    1        0.002  -0.004   0.002  0.00  0.00    +0.000 C 
ENDBRANCH   9  11
ENDBRANCH   5   9
ENDBRANCH   4   7
BRANCH   4  12
ATOM     12  O   LIG    1        2.110  -4.589  -3.407  0.00  0.00    -0.510 OA
ATOM     13  H   LIG    1        1.768  -4.304  -4.265  0.00  0.00    +0.380 HD
ENDBRANCH   4  12
ENDBRANCH   1   4
BRANCH   1  14
ATOM     14  C   LIG    1       -0.061  -6.182  -2.542  0.00  0.00    +0.160 C 
BRANCH  14  15
ATOM     15  O   LIG    1        0.772  -6.548  -3.644  0.00  0.00    -0.530 OA
ATOM     16  H   LIG    1        0.478  -6.192  -4.494  0.00  0.00    +0.370 HD
ENDBRANCH  14  15
BRANCH  14  17
ATOM     17  C   LIG    1       -1.481  -6.700  -2.782  0.00  0.00    +0.190 C 
BRANCH  17  18
ATOM     18  O   LIG    1       -2.313  -6.334  -1.679  0.00  0.00    -0.540 OA
ATOM     19  H   LIG    1       -2.020  -6.690  -0.830  0.00  0.00    +0.370 HD
ENDBRANCH  17  18
BRANCH  17  20
ATOM     20  C   LIG    1       -1.452  -8.224  -2.916  0.00  0.00    +0.160 C 
BRANCH  20  21
ATOM     21  O   LIG    1       -2.757  -8.697  -3.255  0.00  0.00    -0.570 OA
ATOM     22  H   LIG    1       -2.814  -9.657  -3.356  0.00  0.00    +0.380 HD
ENDBRANCH  20  21
ENDBRANCH  17  20
ENDBRANCH  14  17
ENDBRANCH   1  14
TORSDOF 12
ENDMDL
MODEL      862
REMARK  Name = ZINC000004533052
REMARK                            x       y       z     vdW  Elec       q    Type
REMARK                         _______ _______ _______ _____ _____    ______ ____
ROOT
ATOM      1  C   LIG    1        2.187  -4.635  -1.122  0.00  0.00    +0.180 C 
ENDROOT
BRANCH   1   2
ATOM      2  O   LIG    1        1.623  -4.173   0.107  0.00  0.00    -0.540 OA
ATOM      3  H   LIG    1        0.716  -4.471   0.260  0.00  0.00    +0.370 HD
ENDBRANCH   1   2
BRANCH   1   4
ATOM      4  C   LIG    1        1.341  -4.130  -2.293  0.00  0.00    +0.200 C 
BRANCH   4   7
ATOM      5  N   LIG    1        0.738  -1.962  -1.265  0.00  0.00    -0.720 N 
ATOM      6  H   LIG    1        0.332  -2.457  -0.536  0.00  0.00    +0.400 HD
ATOM      7  C   LIG    1        1.321  -2.623  -2.285  0.00  0.00    +0.490 C 
ATOM      8  O   LIG    1        1.829  -2.004  -3.196  0.00  0.00    -0.530 OA
BRANCH   5   9
ATOM      9  C   LIG    1        0.718  -0.497  -1.257  0.00  0.00    +0.260 C 
BRANCH   9  11
ATOM     10  C   LIG    1       -0.019   1.526   0.010  0.00  0.00    +0.030 C 
ATOM     11  C   LIG    1        0.002  -0.004   0.002  0.00  0.00    +0.000 C 
ENDBRANCH   9  11
ENDBRANCH   5   9
ENDBRANCH   4   7
BRANCH   4  12
ATOM     12  O   LIG    1        1.906  -4.592  -3.522  0.00  0.00    -0.520 OA
ATOM     13  H   LIG    1        2.812  -4.293  -3.675  0.00  0.00    +0.390 HD
ENDBRANCH   4  12
ENDBRANCH   1   4
BRANCH   1  14
ATOM     14  C   LIG    1        2.208  -6.165  -1.131  0.00  0.00    +0.170 C 
BRANCH  14  15
ATOM     15  O   LIG    1        0.867  -6.659  -1.121  0.00  0.00    -0.540 OA
ATOM     16  H   LIG    1        0.353  -6.385  -0.349  0.00  0.00    +0.370 HD
ENDBRANCH  14  15
BRANCH  14  17
ATOM     17  C   LIG    1        2.948  -6.671   0.109  0.00  0.00    +0.190 C 
BRANCH  17  18
ATOM     18  O   LIG    1        4.288  -6.177   0.099  0.00  0.00    -0.540 OA
ATOM     19  H   LIG    1        4.803  -6.451  -0.673  0.00  0.00    +0.370 HD
ENDBRANCH  17  18
BRANCH  17  20
ATOM     20  C   LIG    1        2.969  -8.201   0.101  0.00  0.00    +0.150 C 
BRANCH  20  21
ATOM     21  O   LIG    1        3.556  -8.676   1.313  0.00  0.00    -0.570 OA
ATOM     22  H   LIG    1        3.602  -9.640   1.377  0.00  0.00    +0.380 HD
ENDBRANCH  20  21
ENDBRANCH  17  20
ENDBRANCH  14  17
ENDBRANCH   1  14
TORSDOF 12
ENDMDL
MODEL      863
REMARK  Name = ZINC000004557112
REMARK                            x       y       z     vdW  Elec       q    Type
REMARK                         _______ _______ _______ _____ _____    ______ ____
ROOT
ATOM      1  C   LIG    1        0.810  -0.265  -1.528  0.00  0.00    +0.170 C 
ATOM      2  O   LIG    1        0.063   0.116  -2.685  0.00  0.00    -0.340 OA
ATOM      3  C   LIG    1        0.711  -0.184  -3.923  0.00  0.00    +0.220 C 
ATOM      4  C   LIG    1        0.926  -1.696  -4.031  0.00  0.00    +0.190 C 
ATOM      5  C   LIG    1        1.752  -2.173  -2.833  0.00  0.00    +0.160 C 
ATOM      6  C   LIG    1        1.030  -1.780  -1.540  0.00  0.00    +0.150 C 
ENDROOT
BRANCH   1   8
ATOM      7  C   LIG    1       -0.135   2.013  -0.121  0.00  0.00    +0.160 C 
ATOM      8  S   LIG    1       -0.108   0.201  -0.034  0.00  0.00    -0.220 S 
ENDBRANCH   1   8
BRANCH   5   9
ATOM      9  O   LIG    1        3.042  -1.560  -2.866  0.00  0.00    -0.540 OA
ATOM     10  H   LIG    1        3.620  -1.818  -2.135  0.00  0.00    +0.380 HD
ENDBRANCH   5   9
BRANCH   4  11
ATOM     11  O   LIG    1        1.625  -1.993  -5.242  0.00  0.00    -0.550 OA
ATOM     12  H   LIG    1        1.796  -2.935  -5.376  0.00  0.00    +0.380 HD
ENDBRANCH   4  11
BRANCH   6  13
ATOM     13  O   LIG    1       -0.232  -2.447  -1.476  0.00  0.00    -0.540 OA
ATOM     14  H   LIG    1       -0.745  -2.244  -0.682  0.00  0.00    +0.390 HD
ENDBRANCH   6  13
BRANCH   3  15
ATOM     15  C   LIG    1        2.063   0.530  -3.977  0.00  0.00    +0.190 C 
BRANCH  15  16
ATOM     16  O   LIG    1        1.854   1.942  -4.029  0.00  0.00    -0.570 OA
ATOM     17  H   LIG    1        2.671   2.460  -4.065  0.00  0.00    +0.380 HD
ENDBRANCH  15  16
ENDBRANCH   3  15
TORSDOF 6
ENDMDL
MODEL      864
REMARK  Name = ZINC000004611596
REMARK                            x       y       z     vdW  Elec       q    Type
REMARK                         _______ _______ _______ _____ _____    ______ ____
ROOT
ATOM      1  O   LIG    1        0.002  -0.004   0.002  0.00  0.00    -0.490 OA
ATOM      2  C   LIG    1       -0.014   1.211   0.009  0.00  0.00    +0.650 C 
ATOM      3  N   LIG    1       -1.153   1.956   0.029  0.00  0.00    -0.720 N 
ATOM      4  H   LIG    1       -2.063   1.619   0.061  0.00  0.00    +0.440 HD
ATOM      5  C   LIG    1       -0.749   3.342  -0.006  0.00  0.00    +0.350 C 
ATOM      6  O   LIG    1       -1.425   4.308  -0.770  0.00  0.00    -0.340 OA
ATOM      7  C   LIG    1       -0.861   5.615  -0.536  0.00  0.00    +0.150 C 
ATOM      8  C   LIG    1        0.629   5.661  -0.860  0.00  0.00    +0.140 C 
ATOM      9  C   LIG    1        1.397   4.513  -0.177  0.00  0.00    +0.220 C 
ATOM     10  C   LIG    1        0.686   3.235  -0.594  0.00  0.00    +0.160 C 
ATOM     11  O   LIG    1        1.106   1.988   0.002  0.00  0.00    -0.310 OA
ENDROOT
BRANCH   9  12
ATOM     12  O   LIG    1        2.752   4.492  -0.630  0.00  0.00    -0.530 OA
ATOM     13  H   LIG    1        3.241   5.306  -0.445  0.00  0.00    +0.390 HD
ENDBRANCH   9  12
BRANCH   8  14
ATOM     14  O   LIG    1        0.802   5.558  -2.275  0.00  0.00    -0.540 OA
ATOM     15  H   LIG    1        0.375   6.267  -2.776  0.00  0.00    +0.380 HD
ENDBRANCH   8  14
BRANCH   7  16
ATOM     16  C   LIG    1       -1.591   6.636  -1.412  0.00  0.00    +0.220 C 
BRANCH  16  17
ATOM     17  O   LIG    1       -2.956   6.727  -1.001  0.00  0.00    -0.560 OA
ATOM     18  H   LIG    1       -3.480   7.358  -1.514  0.00  0.00    +0.390 HD
ENDBRANCH  16  17
ENDBRANCH   7  16
TORSDOF 4
ENDMDL
MODEL      865
REMARK  Name = ZINC000217399121
REMARK                            x       y       z     vdW  Elec       q    Type
REMARK                         _______ _______ _______ _____ _____    ______ ____
ROOT
ATOM      1  C   LIG    1        4.311   3.818  -1.973  0.00  0.00    +0.170 C 
ATOM      2  C   LIG    1        5.719   3.252  -1.699  0.00  0.00    -0.290 C 
ATOM      3  S   LIG    1        6.816   4.667  -2.116  0.00  0.00    +2.390 S 
ATOM      4  C   LIG    1        5.639   5.938  -1.500  0.00  0.00    -0.320 C 
ATOM      5  O   LIG    1        6.949   4.774  -3.526  0.00  0.00    -0.920 OA
ATOM      6  O   LIG    1        7.972   4.640  -1.289  0.00  0.00    -0.930 OA
ATOM      7  C   LIG    1        4.268   5.337  -1.859  0.00  0.00    +0.210 C 
ENDROOT
BRANCH   1  13
ATOM      8  O   LIG    1        0.368  -0.287   0.190  0.00  0.00    -0.550 OA
ATOM      9  C   LIG    1        0.197   0.903   0.032  0.00  0.00    +0.620 C 
ATOM     10  N   LIG    1        1.253   1.740   0.013  0.00  0.00    -0.630 N 
ATOM     11  C   LIG    1        2.623   1.229   0.177  0.00  0.00    +0.290 C 
ATOM     12  C   LIG    1        3.486   1.776  -0.966  0.00  0.00    +0.190 C 
ATOM     13  N   LIG    1        3.369   3.240  -1.005  0.00  0.00    -0.530 NA
ATOM     14  C   LIG    1        1.991   3.657  -1.299  0.00  0.00    +0.170 C 
ATOM     15  C   LIG    1        1.067   3.186  -0.177  0.00  0.00    +0.290 C 
ENDBRANCH   1  13
BRANCH   7  16
ATOM     16  O   LIG    1        3.838   5.877  -3.109  0.00  0.00    -0.560 OA
ATOM     17  H   LIG    1        3.721   6.837  -3.103  0.00  0.00    +0.390 HD
ENDBRANCH   7  16
TORSDOF 2
ENDMDL
MODEL      866
REMARK  Name = ZINC000217399196
REMARK                            x       y       z     vdW  Elec       q    Type
REMARK                         _______ _______ _______ _____ _____    ______ ____
ROOT
ATOM      1  C   LIG    1        4.311   3.818  -1.973  0.00  0.00    +0.200 C 
ATOM      2  C   LIG    1        3.932   3.336  -3.388  0.00  0.00    -0.340 C 
ATOM      3  S   LIG    1        5.565   3.183  -4.219  0.00  0.00    +2.390 S 
ATOM      4  C   LIG    1        6.437   2.622  -2.702  0.00  0.00    -0.340 C 
ATOM      5  O   LIG    1        6.035   4.470  -4.598  0.00  0.00    -0.920 OA
ATOM      6  O   LIG    1        5.525   2.128  -5.170  0.00  0.00    -0.930 OA
ATOM      7  C   LIG    1        5.728   3.411  -1.587  0.00  0.00    +0.210 C 
ENDROOT
BRANCH   1  13
ATOM      8  O   LIG    1       -0.041   0.036  -0.017  0.00  0.00    -0.550 OA
ATOM      9  C   LIG    1       -0.038   1.248   0.010  0.00  0.00    +0.620 C 
ATOM     10  N   LIG    1        1.131   1.919   0.002  0.00  0.00    -0.620 N 
ATOM     11  C   LIG    1        2.414   1.200  -0.044  0.00  0.00    +0.280 C 
ATOM     12  C   LIG    1        3.259   1.786  -1.180  0.00  0.00    +0.180 C 
ATOM     13  N   LIG    1        3.369   3.240  -1.005  0.00  0.00    -0.500 NA
ATOM     14  C   LIG    1        2.054   3.889  -1.100  0.00  0.00    +0.160 C 
ATOM     15  C   LIG    1        1.159   3.389   0.033  0.00  0.00    +0.290 C 
ENDBRANCH   1  13
BRANCH   7  16
ATOM     16  O   LIG    1        5.670   2.602  -0.410  0.00  0.00    -0.530 OA
ATOM     17  H   LIG    1        6.537   2.356  -0.059  0.00  0.00    +0.380 HD
ENDBRANCH   7  16
TORSDOF 2
ENDMDL
MODEL      867
REMARK  Name = ZINC000005082137
REMARK                            x       y       z     vdW  Elec       q    Type
REMARK                         _______ _______ _______ _____ _____    ______ ____
ROOT
ATOM      1  C   LIG    1        0.002  -0.004   0.002  0.00  0.00    +0.440 A 
ATOM      2  C   LIG    1       -1.185  -0.718   0.004  0.00  0.00    -0.240 A 
ATOM      3  C   LIG    1       -1.122  -2.118  -0.004  0.00  0.00    +0.530 A 
ATOM      4  N   LIG    1        0.089  -2.713  -0.013  0.00  0.00    -0.540 N 
ATOM      5  C   LIG    1        1.213  -1.968  -0.014  0.00  0.00    +0.620 A 
ATOM      6  O   LIG    1       -2.143  -2.786  -0.003  0.00  0.00    -0.500 OA
ATOM      7  N   LIG    1        1.171  -0.664  -0.013  0.00  0.00    -0.570 NA
ENDROOT
BRANCH   4   8
ATOM      8  C1* LIG    1        0.183  -4.175  -0.022  0.00  0.00    +0.390 C 
ATOM      9  C2* LIG    1        0.888  -4.668  -1.311  0.00  0.00    +0.000 C 
ATOM     10  C3* LIG    1        0.340  -6.109  -1.449  0.00  0.00    +0.160 C 
ATOM     11  C4* LIG    1       -0.955  -6.102  -0.614  0.00  0.00    +0.170 C 
ATOM     12  O4* LIG    1       -1.130  -4.768  -0.104  0.00  0.00    -0.310 OA
BRANCH  10  13
ATOM     13  O3* LIG    1        1.274  -7.053  -0.920  0.00  0.00    -0.550 OA
ATOM     14  H3* LIG    1        2.128  -7.058  -1.373  0.00  0.00    +0.390 HD
ENDBRANCH  10  13
BRANCH  11  15
ATOM     15  C5* LIG    1       -2.145  -6.488  -1.496  0.00  0.00    +0.200 C 
BRANCH  15  16
ATOM     16  O5* LIG    1       -3.321  -6.592  -0.690  0.00  0.00    -0.560 OA
ATOM     17  H5* LIG    1       -4.116  -6.834  -1.184  0.00  0.00    +0.380 HD
ENDBRANCH  15  16
ENDBRANCH  11  15
ENDBRANCH   4   8
BRANCH   1  18
ATOM     18  N   LIG    1       -0.017   1.376   0.010  0.00  0.00    -0.830 N 
ATOM     19  H   LIG    1       -0.863   1.849   0.016  0.00  0.00    +0.420 HD
ATOM     20  H   LIG    1        0.817   1.872   0.004  0.00  0.00    +0.410 HD
ENDBRANCH   1  18
TORSDOF 5
ENDMDL
MODEL      868
REMARK  Name = ZINC000004831425
REMARK                            x       y       z     vdW  Elec       q    Type
REMARK                         _______ _______ _______ _____ _____    ______ ____
ROOT
ATOM      1  C   LIG    1        0.633  -2.108   1.011  0.00  0.00    +0.210 C 
ATOM      2  O   LIG    1       -0.720  -2.557   1.108  0.00  0.00    -0.370 OA
ATOM      3  C   LIG    1       -0.875  -3.972   0.989  0.00  0.00    +0.330 C 
ATOM      4  C   LIG    1       -0.112  -4.665   2.121  0.00  0.00    +0.150 C 
ATOM      5  C   LIG    1        1.362  -4.252   2.060  0.00  0.00    +0.170 C 
ATOM      6  C   LIG    1        1.457  -2.725   2.143  0.00  0.00    +0.160 C 
ENDROOT
BRANCH   5   7
ATOM      7  O   LIG    1        1.934  -4.701   0.830  0.00  0.00    -0.540 OA
ATOM      8  H   LIG    1        1.901  -5.660   0.708  0.00  0.00    +0.390 HD
ENDBRANCH   5   7
BRANCH   4   9
ATOM      9  O   LIG    1       -0.219  -6.082   1.972  0.00  0.00    -0.550 OA
ATOM     10  H   LIG    1       -1.127  -6.413   1.996  0.00  0.00    +0.390 HD
ENDBRANCH   4   9
BRANCH   3  11
ATOM     11  O   LIG    1       -0.356  -4.404  -0.270  0.00  0.00    -0.550 OA
ATOM     12  H   LIG    1       -0.793  -4.004  -1.034  0.00  0.00    +0.380 HD
ENDBRANCH   3  11
BRANCH   6  13
ATOM     13  O   LIG    1        0.946  -2.283   3.403  0.00  0.00    -0.370 OA
ATOM     14  C   LIG    1        1.931  -2.206   4.435  0.00  0.00    +0.200 C 
ENDBRANCH   6  13
BRANCH   1  15
ATOM     15  C   LIG    1        0.673  -0.582   1.123  0.00  0.00    +0.200 C 
BRANCH  15  17
ATOM     16  C   LIG    1       -0.017   1.425   0.010  0.00  0.00    +0.200 C 
ATOM     17  O   LIG    1        0.002  -0.004   0.002  0.00  0.00    -0.380 OA
ENDBRANCH  15  17
ENDBRANCH   1  15
TORSDOF 6
ENDMDL
MODEL      869
REMARK  Name = ZINC000004831423
REMARK                            x       y       z     vdW  Elec       q    Type
REMARK                         _______ _______ _______ _____ _____    ______ ____
ROOT
ATOM      1  C   LIG    1        0.633  -2.108   1.011  0.00  0.00    +0.200 C 
ATOM      2  O   LIG    1       -0.720  -2.557   1.108  0.00  0.00    -0.380 OA
ATOM      3  C   LIG    1       -0.875  -3.972   0.989  0.00  0.00    +0.330 C 
ATOM      4  C   LIG    1       -0.112  -4.665   2.121  0.00  0.00    +0.130 C 
ATOM      5  C   LIG    1        1.362  -4.252   2.060  0.00  0.00    +0.160 C 
ATOM      6  C   LIG    1        1.457  -2.725   2.143  0.00  0.00    +0.160 C 
ENDROOT
BRANCH   5   7
ATOM      7  O   LIG    1        1.934  -4.701   0.830  0.00  0.00    -0.530 OA
ATOM      8  H   LIG    1        1.901  -5.660   0.708  0.00  0.00    +0.380 HD
ENDBRANCH   5   7
BRANCH   4   9
ATOM      9  O   LIG    1       -0.219  -6.082   1.972  0.00  0.00    -0.550 OA
ATOM     10  H   LIG    1       -1.127  -6.413   1.996  0.00  0.00    +0.390 HD
ENDBRANCH   4   9
BRANCH   3  11
ATOM     11  O   LIG    1       -0.356  -4.404  -0.270  0.00  0.00    -0.550 OA
ATOM     12  H   LIG    1       -0.793  -4.004  -1.034  0.00  0.00    +0.380 HD
ENDBRANCH   3  11
BRANCH   6  13
ATOM     13  O   LIG    1        2.822  -2.324   2.016  0.00  0.00    -0.360 OA
ATOM     14  C   LIG    1        3.522  -2.241   3.259  0.00  0.00    +0.200 C 
ENDBRANCH   6  13
BRANCH   1  15
ATOM     15  C   LIG    1        0.673  -0.582   1.123  0.00  0.00    +0.190 C 
BRANCH  15  17
ATOM     16  C   LIG    1       -0.017   1.425   0.010  0.00  0.00    +0.200 C 
ATOM     17  O   LIG    1        0.002  -0.004   0.002  0.00  0.00    -0.380 OA
ENDBRANCH  15  17
ENDBRANCH   1  15
TORSDOF 6
ENDMDL
MODEL      870
REMARK  Name = ZINC000004894881
REMARK                            x       y       z     vdW  Elec       q    Type
REMARK                         _______ _______ _______ _____ _____    ______ ____
ROOT
ATOM      1  C   LIG    1        1.720  -2.237  -2.998  0.00  0.00    +0.250 C 
ENDROOT
BRANCH   1   2
ATOM      2  C   LIG    1        1.716  -3.728  -3.216  0.00  0.00    +0.510 C 
ATOM      3  O   LIG    1        2.765  -4.333  -3.289  0.00  0.00    -0.530 OA
ATOM      4  N   LIG    1        0.547  -4.390  -3.329  0.00  0.00    -0.850 N 
ATOM      5  H   LIG    1        0.545  -5.350  -3.470  0.00  0.00    +0.410 HD
ATOM      6  H   LIG    1       -0.291  -3.906  -3.270  0.00  0.00    +0.400 HD
ENDBRANCH   1   2
BRANCH   1   7
ATOM      7  N   LIG    1        3.102  -1.760  -2.908  0.00  0.00    -0.710 N 
ATOM      8  H   LIG    1        3.523  -1.654  -2.041  0.00  0.00    +0.410 HD
ATOM      9  C   LIG    1        3.788  -1.467  -4.031  0.00  0.00    +0.520 C 
ATOM     10  O   LIG    1        3.261  -1.599  -5.115  0.00  0.00    -0.530 OA
BRANCH   9  11
ATOM     11  C   LIG    1        5.210  -0.976  -3.939  0.00  0.00    +0.300 C 
BRANCH  11  12
ATOM     12  N   LIG    1        5.730  -0.731  -5.286  0.00  0.00    -0.720 N 
ATOM     13  H   LIG    1        5.167  -0.890  -6.060  0.00  0.00    +0.410 HD
ATOM     14  C   LIG    1        6.990  -0.284  -5.451  0.00  0.00    +0.510 C 
ATOM     15  O   LIG    1        7.694  -0.085  -4.484  0.00  0.00    -0.550 OA
ATOM     16  C   LIG    1        7.525  -0.031  -6.837  0.00  0.00    +0.110 C 
ENDBRANCH  11  12
ENDBRANCH   9  11
ENDBRANCH   1   7
BRANCH   1  17
ATOM     17  C   LIG    1        0.982  -1.910  -1.698  0.00  0.00    +0.080 C 
BRANCH  17  18
ATOM     18  C   LIG    1        0.877  -0.392  -1.539  0.00  0.00    +0.090 C 
BRANCH  18  20
ATOM     19  C   LIG    1       -0.022   1.810   0.012  0.00  0.00    +0.140 C 
ATOM     20  S   LIG    1        0.002  -0.004   0.002  0.00  0.00    -0.260 S 
ENDBRANCH  18  20
ENDBRANCH  17  18
ENDBRANCH   1  17
TORSDOF 7
ENDMDL
MODEL      871
REMARK  Name = ZINC000022606402
REMARK                            x       y       z     vdW  Elec       q    Type
REMARK                         _______ _______ _______ _____ _____    ______ ____
ROOT
ATOM      1  C   LIG    1       -1.384  -0.909   1.776  0.00  0.00    +0.490 C 
ATOM      2  N   LIG    1       -1.610  -1.563   2.933  0.00  0.00    -0.730 N 
ATOM      3  H   LIG    1       -0.866  -1.926   3.438  0.00  0.00    +0.400 HD
ATOM      4  O   LIG    1       -2.315  -0.455   1.145  0.00  0.00    -0.520 OA
ENDROOT
BRANCH   1   5
ATOM      5  C   LIG    1        0.024  -0.743   1.267  0.00  0.00    +0.330 C 
BRANCH   5   7
ATOM      6  C   LIG    1       -0.018   1.461   0.010  0.00  0.00    +0.320 C 
ATOM      7  N   LIG    1        0.002  -0.004   0.002  0.00  0.00    -0.990 NA
BRANCH   7   8
ATOM      8  S   LIG    1       -0.000  -0.824  -1.437  0.00  0.00    +2.610 S 
ATOM      9  O   LIG    1       -0.626   0.068  -2.348  0.00  0.00    -0.950 OA
ATOM     10  O   LIG    1       -0.586  -2.081  -1.123  0.00  0.00    -0.950 OA
ATOM     11  C   LIG    1        1.755  -1.025  -1.846  0.00  0.00    -0.280 C 
ENDBRANCH   7   8
ENDBRANCH   5   7
ENDBRANCH   1   5
BRANCH   2  12
ATOM     12  C   LIG    1       -2.979  -1.724   3.429  0.00  0.00    +0.280 C 
BRANCH  12  13
ATOM     13  C   LIG    1       -2.956  -2.496   4.749  0.00  0.00    +0.170 C 
BRANCH  13  14
ATOM     14  O   LIG    1       -2.284  -1.720   5.743  0.00  0.00    -0.570 OA
ATOM     15  H   LIG    1       -2.231  -2.149   6.608  0.00  0.00    +0.380 HD
ENDBRANCH  13  14
ENDBRANCH  12  13
ENDBRANCH   2  12
TORSDOF 6
ENDMDL
MODEL      872
REMARK  Name = ZINC000022606403
REMARK                            x       y       z     vdW  Elec       q    Type
REMARK                         _______ _______ _______ _____ _____    ______ ____
ROOT
ATOM      1  C   LIG    1       -1.384  -0.909   1.776  0.00  0.00    +0.500 C 
ATOM      2  N   LIG    1       -1.610  -1.563   2.933  0.00  0.00    -0.730 N 
ATOM      3  H   LIG    1       -0.866  -1.926   3.438  0.00  0.00    +0.400 HD
ATOM      4  O   LIG    1       -2.315  -0.455   1.145  0.00  0.00    -0.520 OA
ENDROOT
BRANCH   1   5
ATOM      5  C   LIG    1        0.024  -0.743   1.267  0.00  0.00    +0.330 C 
BRANCH   5   7
ATOM      6  C   LIG    1       -0.018   1.461   0.010  0.00  0.00    +0.320 C 
ATOM      7  N   LIG    1        0.002  -0.004   0.002  0.00  0.00    -0.990 NA
BRANCH   7   8
ATOM      8  S   LIG    1       -0.000  -0.824  -1.437  0.00  0.00    +2.610 S 
ATOM      9  O   LIG    1       -0.626   0.068  -2.348  0.00  0.00    -0.950 OA
ATOM     10  O   LIG    1       -0.586  -2.081  -1.123  0.00  0.00    -0.950 OA
ATOM     11  C   LIG    1        1.755  -1.025  -1.846  0.00  0.00    -0.280 C 
ENDBRANCH   7   8
ENDBRANCH   5   7
ENDBRANCH   1   5
BRANCH   2  12
ATOM     12  C   LIG    1       -2.979  -1.724   3.429  0.00  0.00    +0.260 C 
BRANCH  12  13
ATOM     13  C   LIG    1       -2.956  -2.496   4.749  0.00  0.00    +0.030 C 
BRANCH  13  14
ATOM     14  C   LIG    1       -4.386  -2.664   5.267  0.00  0.00    +0.180 C 
BRANCH  14  15
ATOM     15  O   LIG    1       -4.365  -3.385   6.500  0.00  0.00    -0.580 OA
ATOM     16  H   LIG    1       -5.239  -3.529   6.887  0.00  0.00    +0.380 HD
ENDBRANCH  14  15
ENDBRANCH  13  14
ENDBRANCH  12  13
ENDBRANCH   2  12
TORSDOF 7
ENDMDL
MODEL      873
REMARK  Name = ZINC000004831422
REMARK                            x       y       z     vdW  Elec       q    Type
REMARK                         _______ _______ _______ _____ _____    ______ ____
ROOT
ATOM      1  C   LIG    1        0.633  -2.108   1.011  0.00  0.00    +0.190 C 
ATOM      2  O   LIG    1        1.383  -2.522  -0.133  0.00  0.00    -0.380 OA
ATOM      3  C   LIG    1        1.389  -3.934  -0.347  0.00  0.00    +0.300 C 
ATOM      4  C   LIG    1        2.028  -4.629   0.858  0.00  0.00    +0.130 C 
ATOM      5  C   LIG    1        1.252  -4.254   2.124  0.00  0.00    +0.170 C 
ATOM      6  C   LIG    1        1.241  -2.729   2.271  0.00  0.00    +0.150 C 
ENDROOT
BRANCH   5   7
ATOM      7  O   LIG    1        1.884  -4.840   3.264  0.00  0.00    -0.540 OA
ATOM      8  H   LIG    1        1.931  -5.806   3.234  0.00  0.00    +0.380 HD
ENDBRANCH   5   7
BRANCH   4   9
ATOM      9  O   LIG    1        3.387  -4.207   0.987  0.00  0.00    -0.520 OA
ATOM     10  H   LIG    1        3.936  -4.410   0.217  0.00  0.00    +0.380 HD
ENDBRANCH   4   9
BRANCH   3  11
ATOM     11  O   LIG    1        2.140  -4.235  -1.525  0.00  0.00    -0.540 OA
ATOM     12  H   LIG    1        1.792  -3.826  -2.329  0.00  0.00    +0.390 HD
ENDBRANCH   3  11
BRANCH   6  13
ATOM     13  O   LIG    1        2.579  -2.256   2.439  0.00  0.00    -0.340 OA
ATOM     14  C   LIG    1        3.004  -2.188   3.802  0.00  0.00    +0.200 C 
ENDBRANCH   6  13
BRANCH   1  15
ATOM     15  C   LIG    1        0.673  -0.582   1.123  0.00  0.00    +0.210 C 
BRANCH  15  17
ATOM     16  C   LIG    1       -0.017   1.425   0.010  0.00  0.00    +0.200 C 
ATOM     17  O   LIG    1        0.002  -0.004   0.002  0.00  0.00    -0.390 OA
ENDBRANCH  15  17
ENDBRANCH   1  15
TORSDOF 6
ENDMDL
MODEL      874
REMARK  Name = ZINC000020313019
REMARK                            x       y       z     vdW  Elec       q    Type
REMARK                         _______ _______ _______ _____ _____    ______ ____
ROOT
ATOM      1  C   LIG    1       -0.194  -0.349   2.511  0.00  0.00    +0.620 C 
ATOM      2  N   LIG    1       -0.393   0.956   2.783  0.00  0.00    -0.730 N 
ATOM      3  H   LIG    1       -0.530   1.587   2.060  0.00  0.00    +0.410 HD
ATOM      4  O   LIG    1       -0.115  -1.155   3.418  0.00  0.00    -0.540 OA
ENDROOT
BRANCH   1  10
ATOM      5  C   LIG    1        0.064  -3.272   1.548  0.00  0.00    +0.370 C 
ATOM      6  N   LIG    1        0.045  -2.091   0.681  0.00  0.00    -0.270 N 
ATOM      7  N   LIG    1        0.129  -2.116  -0.601  0.00  0.00    -0.220 NA
ATOM      8  C   LIG    1        0.083  -0.891  -1.091  0.00  0.00    -0.010 A 
ATOM      9  C   LIG    1       -0.045  -0.005  -0.001  0.00  0.00    +0.020 A 
ATOM     10  C   LIG    1       -0.072  -0.799   1.114  0.00  0.00    -0.090 A 
BRANCH   8  11
ATOM     11  C   LIG    1        0.151  -0.517  -2.515  0.00  0.00    +0.560 C 
ATOM     12  O   LIG    1        0.097   0.660  -2.842  0.00  0.00    -0.680 OA
ATOM     13  O   LIG    1        0.263  -1.385  -3.370  0.00  0.00    -0.660 OA
ENDBRANCH   8  11
ENDBRANCH   1  10
BRANCH   2  14
ATOM     14  C   LIG    1       -0.403   1.421   4.173  0.00  0.00    +0.280 C 
BRANCH  14  15
ATOM     15  C   LIG    1       -0.647   2.931   4.203  0.00  0.00    +0.260 C 
BRANCH  15  16
ATOM     16  N   LIG    1       -0.656   3.397   5.596  0.00  0.00    -0.630 N 
ATOM     17  H   LIG    1       -1.392   2.927   6.103  0.00  0.00    +0.440 HD
ATOM     18  H   LIG    1       -0.817   4.393   5.616  0.00  0.00    +0.440 HD
ATOM     19  H   LIG    1        0.233   3.191   6.026  0.00  0.00    +0.440 HD
ENDBRANCH  15  16
ENDBRANCH  14  15
ENDBRANCH   2  14
TORSDOF 5
ENDMDL
MODEL      875
REMARK  Name = ZINC000100128265
REMARK                            x       y       z     vdW  Elec       q    Type
REMARK                         _______ _______ _______ _____ _____    ______ ____
ROOT
ATOM      1  C   LIG    1       -3.013   0.921  -0.010  0.00  0.00    +0.160 C 
ATOM      2  C   LIG    1       -2.517  -0.502  -0.007  0.00  0.00    -0.100 A 
ATOM      3  N   LIG    1       -2.483  -1.197  -1.125  0.00  0.00    -0.130 NA
ATOM      4  N   LIG    1       -2.064  -2.412  -1.145  0.00  0.00    -0.350 NA
ATOM      5  C   LIG    1       -1.647  -3.026  -0.048  0.00  0.00    +0.460 A 
ATOM      6  N   LIG    1       -1.167  -4.283   0.184  0.00  0.00    -0.610 NA
ATOM      7  C   LIG    1       -0.881  -4.393   1.519  0.00  0.00    +0.430 A 
ATOM      8  N   LIG    1       -1.165  -3.262   2.107  0.00  0.00    -0.330 NA
ATOM      9  N   LIG    1       -1.652  -2.377   1.140  0.00  0.00    -0.370 N 
ATOM     10  C   LIG    1       -2.081  -1.100   1.188  0.00  0.00    +0.520 A 
ATOM     11  O   LIG    1       -2.093  -0.480   2.241  0.00  0.00    -0.520 OA
ENDROOT
BRANCH   7  12
ATOM     12  N   LIG    1       -0.373  -5.521   2.145  0.00  0.00    -0.580 N 
ATOM     13  H   LIG    1       -0.276  -5.538   3.110  0.00  0.00    +0.450 HD
ATOM     14  C   LIG    1       -0.006  -6.612   1.399  0.00  0.00    +0.760 C 
BRANCH  14  15
ATOM     15  N   LIG    1        0.357  -7.741   2.005  0.00  0.00    -0.790 N 
ATOM     16  H   LIG    1        0.616  -8.513   1.478  0.00  0.00    +0.440 HD
ATOM     17  H   LIG    1        0.362  -7.791   2.974  0.00  0.00    +0.440 HD
ENDBRANCH  14  15
BRANCH  14  18
ATOM     18  N   LIG    1       -0.014  -6.543   0.069  0.00  0.00    -0.770 N 
ATOM     19  H   LIG    1       -0.152  -7.346  -0.457  0.00  0.00    +0.430 HD
ATOM     20  H   LIG    1        0.118  -5.690  -0.373  0.00  0.00    +0.450 HD
ENDBRANCH  14  18
ENDBRANCH   7  12
TORSDOF 3
ENDMDL
MODEL      876
REMARK  Name = ZINC000001668424
REMARK                            x       y       z     vdW  Elec       q    Type
REMARK                         _______ _______ _______ _____ _____    ______ ____
ROOT
ATOM      1  C   LIG    1       -0.018   1.461   0.010  0.00  0.00    +0.340 C 
ATOM      2  N   LIG    1        0.002  -0.004   0.002  0.00  0.00    -0.550 N 
ATOM      3  C   LIG    1       -1.159  -0.687   0.004  0.00  0.00    +0.560 A 
ATOM      4  C   LIG    1       -1.138  -2.094  -0.004  0.00  0.00    -0.060 A 
ATOM      5  C   LIG    1        0.069  -2.739  -0.014  0.00  0.00    +0.380 A 
ATOM      6  N   LIG    1        1.230  -1.999  -0.016  0.00  0.00    -0.530 N 
ATOM      7  C   LIG    1        2.527  -2.680  -0.026  0.00  0.00    +0.340 C 
ATOM      8  O   LIG    1       -2.223  -0.090   0.012  0.00  0.00    -0.520 OA
ATOM      9  C   LIG    1        1.180  -0.654  -0.013  0.00  0.00    +0.700 A 
ATOM     10  O   LIG    1        2.215  -0.017  -0.015  0.00  0.00    -0.540 OA
ENDROOT
BRANCH   5  11
ATOM     11  N   LIG    1        0.121  -4.114  -0.023  0.00  0.00    -0.850 N 
ATOM     12  H   LIG    1        0.979  -4.567  -0.030  0.00  0.00    +0.400 HD
ATOM     13  H   LIG    1       -0.700  -4.631  -0.022  0.00  0.00    +0.420 HD
ENDBRANCH   5  11
BRANCH   4  14
ATOM     14  N   LIG    1       -2.345  -2.830  -0.003  0.00  0.00    -0.730 N 
ATOM     15  H   LIG    1       -2.322  -3.800  -0.009  0.00  0.00    +0.390 HD
BRANCH  14  16
ATOM     16  C   LIG    1       -3.631  -2.128   0.007  0.00  0.00    +0.290 C 
BRANCH  16  17
ATOM     17  C   LIG    1       -4.770  -3.150   0.006  0.00  0.00    +0.170 C 
BRANCH  17  18
ATOM     18  O   LIG    1       -4.739  -3.899   1.223  0.00  0.00    -0.570 OA
ATOM     19  H   LIG    1       -5.434  -4.567   1.291  0.00  0.00    +0.380 HD
ENDBRANCH  17  18
ENDBRANCH  16  17
ENDBRANCH  14  16
ENDBRANCH   4  14
TORSDOF 5
ENDMDL
MODEL      877
REMARK  Name = ZINC000001666763
REMARK                            x       y       z     vdW  Elec       q    Type
REMARK                         _______ _______ _______ _____ _____    ______ ____
ROOT
ATOM      1  C   LIG    1        0.799  -2.346  -1.366  0.00  0.00    -0.370 A 
ATOM      2  C   LIG    1        1.908  -3.034  -1.020  0.00  0.00    +0.050 A 
ATOM      3  C   LIG    1        1.841  -4.446  -0.926  0.00  0.00    +0.540 A 
ATOM      4  N   LIG    1        0.675  -5.071  -1.183  0.00  0.00    -0.650 N 
ATOM      5  H   LIG    1        0.621  -6.038  -1.121  0.00  0.00    +0.440 HD
ATOM      6  C   LIG    1       -0.416  -4.360  -1.526  0.00  0.00    +0.700 A 
ATOM      7  O   LIG    1       -1.461  -4.938  -1.754  0.00  0.00    -0.530 OA
ATOM      8  O   LIG    1        2.828  -5.088  -0.616  0.00  0.00    -0.490 OA
ATOM      9  N   LIG    1       -0.367  -3.018  -1.613  0.00  0.00    -0.600 N 
ATOM     10  H   LIG    1       -1.163  -2.524  -1.862  0.00  0.00    +0.440 HD
ENDROOT
BRANCH   1  11
ATOM     11  S   LIG    1        0.851  -0.589  -1.490  0.00  0.00    +2.480 S 
ATOM     12  O   LIG    1        2.236  -0.275  -1.432  0.00  0.00    -0.900 OA
ATOM     13  O   LIG    1        0.082  -0.297  -2.649  0.00  0.00    -0.910 OA
BRANCH  11  15
ATOM     14  C   LIG    1       -0.019   1.526   0.010  0.00  0.00    +0.100 C 
ATOM     15  C   LIG    1        0.002  -0.004   0.002  0.00  0.00    -0.310 C 
ENDBRANCH  11  15
ENDBRANCH   1  11
TORSDOF 2
ENDMDL
MODEL      878
REMARK  Name = ZINC000248048424
REMARK                            x       y       z     vdW  Elec       q    Type
REMARK                         _______ _______ _______ _____ _____    ______ ____
ROOT
ATOM      1  C   LIG    1       -0.019   1.526   0.010  0.00  0.00    +0.100 C 
ATOM      2  C   LIG    1        0.002  -0.004   0.002  0.00  0.00    +0.290 C 
ATOM      3  O   LIG    1       -1.339  -0.498   0.011  0.00  0.00    -0.380 OA
ATOM      4  C   LIG    1       -1.430  -1.926   0.037  0.00  0.00    +0.250 C 
ATOM      5  C   LIG    1       -0.695  -2.446   1.279  0.00  0.00    +0.130 C 
ATOM      6  O   LIG    1       -1.381  -1.993   2.448  0.00  0.00    -0.380 OA
ATOM      7  C   LIG    1       -0.778  -2.397   3.678  0.00  0.00    +0.300 C 
ATOM      8  C   LIG    1        0.634  -1.812   3.765  0.00  0.00    +0.140 C 
ATOM      9  C   LIG    1        1.449  -2.292   2.560  0.00  0.00    +0.210 C 
ATOM     10  C   LIG    1        0.738  -1.903   1.261  0.00  0.00    +0.150 C 
ATOM     11  O   LIG    1        0.694  -0.477   1.160  0.00  0.00    -0.350 OA
ENDROOT
BRANCH   9  12
ATOM     12  O   LIG    1        1.577  -3.714   2.608  0.00  0.00    -0.550 OA
ATOM     13  H   LIG    1        2.022  -4.043   3.401  0.00  0.00    +0.390 HD
ENDBRANCH   9  12
BRANCH   8  14
ATOM     14  O   LIG    1        0.562  -0.385   3.758  0.00  0.00    -0.530 OA
ATOM     15  H   LIG    1        0.054  -0.013   4.492  0.00  0.00    +0.380 HD
ENDBRANCH   8  14
BRANCH   7  16
ATOM     16  O   LIG    1       -1.562  -1.918   4.773  0.00  0.00    -0.540 OA
ATOM     17  H   LIG    1       -2.471  -2.248   4.779  0.00  0.00    +0.390 HD
ENDBRANCH   7  16
TORSDOF 3
ENDMDL
MODEL      879
REMARK  Name = ZINC000248048420
REMARK                            x       y       z     vdW  Elec       q    Type
REMARK                         _______ _______ _______ _____ _____    ______ ____
ROOT
ATOM      1  C   LIG    1       -0.019   1.526   0.010  0.00  0.00    +0.100 C 
ATOM      2  C   LIG    1        0.002  -0.004   0.002  0.00  0.00    +0.290 C 
ATOM      3  O   LIG    1       -1.339  -0.498   0.011  0.00  0.00    -0.380 OA
ATOM      4  C   LIG    1       -1.430  -1.926   0.037  0.00  0.00    +0.250 C 
ATOM      5  C   LIG    1       -0.695  -2.446   1.279  0.00  0.00    +0.120 C 
ATOM      6  O   LIG    1       -1.381  -1.993   2.448  0.00  0.00    -0.380 OA
ATOM      7  C   LIG    1       -0.778  -2.397   3.678  0.00  0.00    +0.300 C 
ATOM      8  C   LIG    1        0.634  -1.812   3.765  0.00  0.00    +0.130 C 
ATOM      9  C   LIG    1        1.449  -2.292   2.560  0.00  0.00    +0.200 C 
ATOM     10  C   LIG    1        0.738  -1.903   1.261  0.00  0.00    +0.150 C 
ATOM     11  O   LIG    1        0.694  -0.477   1.160  0.00  0.00    -0.340 OA
ENDROOT
BRANCH   9  12
ATOM     12  O   LIG    1        2.747  -1.695   2.593  0.00  0.00    -0.540 OA
ATOM     13  H   LIG    1        3.258  -1.908   3.386  0.00  0.00    +0.380 HD
ENDBRANCH   9  12
BRANCH   8  14
ATOM     14  O   LIG    1        0.562  -0.385   3.758  0.00  0.00    -0.520 OA
ATOM     15  H   LIG    1        0.054  -0.013   4.492  0.00  0.00    +0.380 HD
ENDBRANCH   8  14
BRANCH   7  16
ATOM     16  O   LIG    1       -1.562  -1.918   4.773  0.00  0.00    -0.540 OA
ATOM     17  H   LIG    1       -2.471  -2.248   4.779  0.00  0.00    +0.390 HD
ENDBRANCH   7  16
TORSDOF 3
ENDMDL
MODEL      880
REMARK  Name = ZINC000248048421
REMARK                            x       y       z     vdW  Elec       q    Type
REMARK                         _______ _______ _______ _____ _____    ______ ____
ROOT
ATOM      1  C   LIG    1       -0.019   1.526   0.010  0.00  0.00    +0.010 C 
ATOM      2  C   LIG    1        0.002  -0.004   0.002  0.00  0.00    +0.390 C 
ATOM      3  O   LIG    1       -1.339  -0.496   0.006  0.00  0.00    -0.380 OA
ATOM      4  C   LIG    1       -2.093  -0.148   1.174  0.00  0.00    +0.250 C 
ATOM      5  C   LIG    1       -1.347  -0.670   2.402  0.00  0.00    +0.120 C 
ATOM      6  O   LIG    1       -1.990  -0.264   3.608  0.00  0.00    -0.390 OA
ATOM      7  C   LIG    1       -1.354  -0.767   4.788  0.00  0.00    +0.310 C 
ATOM      8  C   LIG    1        0.087  -0.259   4.862  0.00  0.00    +0.140 C 
ATOM      9  C   LIG    1        0.841  -0.653   3.586  0.00  0.00    +0.200 C 
ATOM     10  C   LIG    1        0.077  -0.098   2.384  0.00  0.00    +0.150 C 
ATOM     11  O   LIG    1        0.700  -0.476   1.160  0.00  0.00    -0.370 OA
ENDROOT
BRANCH   9  12
ATOM     12  O   LIG    1        2.159  -0.103   3.618  0.00  0.00    -0.540 OA
ATOM     13  H   LIG    1        2.693  -0.403   4.367  0.00  0.00    +0.380 HD
ENDBRANCH   9  12
BRANCH   8  14
ATOM     14  O   LIG    1        0.083   1.165   4.990  0.00  0.00    -0.540 OA
ATOM     15  H   LIG    1       -0.375   1.488   5.779  0.00  0.00    +0.390 HD
ENDBRANCH   8  14
BRANCH   7  16
ATOM     16  O   LIG    1       -2.072  -0.322   5.940  0.00  0.00    -0.540 OA
ATOM     17  H   LIG    1       -2.994  -0.614   5.966  0.00  0.00    +0.400 HD
ENDBRANCH   7  16
TORSDOF 3
ENDMDL
MODEL      881
REMARK  Name = ZINC000020635910
REMARK                            x       y       z     vdW  Elec       q    Type
REMARK                         _______ _______ _______ _____ _____    ______ ____
ROOT
ATOM      1  C   LIG    1       -1.247  -2.114   0.003  0.00  0.00    +0.070 A 
ATOM      2  C   LIG    1       -2.453  -2.782   0.108  0.00  0.00    -0.020 A 
ATOM      3  C   LIG    1       -2.468  -4.192   0.097  0.00  0.00    +0.550 A 
ATOM      4  N   LIG    1       -1.336  -4.908  -0.015  0.00  0.00    -0.610 N 
ATOM      5  H   LIG    1       -1.387  -5.876  -0.019  0.00  0.00    +0.430 HD
ATOM      6  C   LIG    1       -0.124  -4.309  -0.121  0.00  0.00    +0.480 A 
ATOM      7  N   LIG    1        1.026  -5.045  -0.233  0.00  0.00    -0.630 N 
ATOM      8  H   LIG    1        0.976  -6.013  -0.233  0.00  0.00    +0.440 HD
ATOM      9  C   LIG    1        2.224  -4.444  -0.332  0.00  0.00    +0.720 A 
ATOM     10  O   LIG    1        3.218  -5.138  -0.424  0.00  0.00    -0.510 OA
ATOM     11  N   LIG    1        2.368  -3.108  -0.338  0.00  0.00    -0.650 N 
ATOM     12  H   LIG    1        3.255  -2.723  -0.415  0.00  0.00    +0.440 HD
ATOM     13  C   LIG    1        1.292  -2.296  -0.238  0.00  0.00    +0.580 A 
ATOM     14  O   LIG    1        1.419  -1.086  -0.243  0.00  0.00    -0.480 OA
ATOM     15  O   LIG    1       -3.534  -4.776   0.190  0.00  0.00    -0.500 OA
ATOM     16  C   LIG    1       -0.032  -2.915  -0.122  0.00  0.00    -0.290 A 
ENDROOT
BRANCH   1  17
ATOM     17  C   LIG    1       -1.189  -0.632   0.010  0.00  0.00    +0.520 C 
ATOM     18  O   LIG    1       -1.076  -0.023  -1.034  0.00  0.00    -0.470 OA
BRANCH  17  20
ATOM     19  C   LIG    1       -1.200   1.488   1.107  0.00  0.00    +0.290 C 
ATOM     20  O   LIG    1       -1.262   0.039   1.175  0.00  0.00    -0.350 OA
ENDBRANCH  17  20
ENDBRANCH   1  17
TORSDOF 2
ENDMDL
MODEL      882
REMARK  Name = ZINC000005748657
REMARK                            x       y       z     vdW  Elec       q    Type
REMARK                         _______ _______ _______ _____ _____    ______ ____
ROOT
ATOM      1  C   LIG    1       -0.018   1.503   0.010  0.00  0.00    +0.150 C 
ATOM      2  C   LIG    1        0.002  -0.004   0.002  0.00  0.00    -0.210 A 
ATOM      3  C   LIG    1       -1.153  -0.704   0.004  0.00  0.00    +0.330 A 
ATOM      4  N   LIG    1       -1.116  -2.072  -0.004  0.00  0.00    -0.880 N 
ATOM      5  C   LIG    1        0.060  -2.726  -0.013  0.00  0.00    +0.710 A 
ATOM      6  N   LIG    1        1.226  -2.053  -0.016  0.00  0.00    -0.650 N 
ATOM      7  H   LIG    1        2.064  -2.540  -0.023  0.00  0.00    +0.440 HD
ATOM      8  O   LIG    1        0.069  -3.942  -0.020  0.00  0.00    -0.490 OA
ATOM      9  C   LIG    1        1.232  -0.705  -0.013  0.00  0.00    +0.550 A 
ATOM     10  O   LIG    1        2.287  -0.095  -0.016  0.00  0.00    -0.490 OA
ENDROOT
BRANCH   4  11
ATOM     11  S   LIG    1       -2.532  -2.930  -0.002  0.00  0.00    +2.760 S 
ATOM     12  O   LIG    1       -3.521  -2.072   0.552  0.00  0.00    -0.940 OA
ATOM     13  O   LIG    1       -2.225  -4.210   0.534  0.00  0.00    -0.910 OA
BRANCH  11  14
ATOM     14  N   LIG    1       -2.959  -3.176  -1.583  0.00  0.00    -1.000 NA
ATOM     15  C   LIG    1       -3.805  -2.200  -2.273  0.00  0.00    +0.320 C 
ATOM     16  C   LIG    1       -2.490  -4.369  -2.291  0.00  0.00    +0.320 C 
ENDBRANCH  11  14
ENDBRANCH   4  11
TORSDOF 2
ENDMDL
MODEL      883
REMARK  Name = ZINC000005613307
REMARK                            x       y       z     vdW  Elec       q    Type
REMARK                         _______ _______ _______ _____ _____    ______ ____
ROOT
ATOM      1  C   LIG    1        0.042  -1.900   3.606  0.00  0.00    +0.010 C 
ENDROOT
BRANCH   1   2
ATOM      2  C   LIG    1       -0.078  -1.696   5.094  0.00  0.00    +0.540 C 
ATOM      3  O   LIG    1        0.195  -0.620   5.582  0.00  0.00    -0.520 OA
ATOM      4  N   LIG    1       -0.487  -2.710   5.882  0.00  0.00    -0.840 N 
ATOM      5  H   LIG    1       -0.565  -2.579   6.840  0.00  0.00    +0.410 HD
ATOM      6  H   LIG    1       -0.705  -3.571   5.492  0.00  0.00    +0.410 HD
ENDBRANCH   1   2
BRANCH   1   7
ATOM      7  C   LIG    1        1.335  -2.612   3.299  0.00  0.00    +0.540 C 
ATOM      8  O   LIG    1        1.333  -3.591   2.583  0.00  0.00    -0.490 OA
ATOM      9  N   LIG    1        2.493  -2.159   3.819  0.00  0.00    -0.850 N 
ATOM     10  H   LIG    1        3.325  -2.617   3.621  0.00  0.00    +0.410 HD
ATOM     11  H   LIG    1        2.494  -1.376   4.391  0.00  0.00    +0.410 HD
ENDBRANCH   1   7
BRANCH   1  12
ATOM     12  S   LIG    1        0.025  -0.293   2.773  0.00  0.00    +0.090 S 
BRANCH  12  18
ATOM     13  C   LIG    1       -0.018   1.461   0.010  0.00  0.00    +0.330 C 
ATOM     14  N   LIG    1        0.002  -0.004   0.002  0.00  0.00    -0.450 N 
ATOM     15  C   LIG    1        0.009  -0.817  -1.109  0.00  0.00    +0.140 A 
ATOM     16  C   LIG    1        0.028  -2.086  -0.667  0.00  0.00    +0.170 A 
ATOM     17  N   LIG    1        0.033  -2.065   0.677  0.00  0.00    -0.460 NA
ATOM     18  C   LIG    1        0.024  -0.820   1.092  0.00  0.00    +0.150 A 
ENDBRANCH  12  18
ENDBRANCH   1  12
TORSDOF 4
ENDMDL
MODEL      884
REMARK  Name = ZINC000256030323
REMARK                            x       y       z     vdW  Elec       q    Type
REMARK                         _______ _______ _______ _____ _____    ______ ____
ROOT
ATOM      1  N   LIG    1        1.552  -2.292   2.563  0.00  0.00    -0.430 N 
ATOM      2  C   LIG    1        2.900  -2.280   2.784  0.00  0.00    +0.720 C 
ATOM      3  N   LIG    1        3.268  -3.078   3.833  0.00  0.00    -0.720 N 
ATOM      4  H   LIG    1        4.123  -3.095   4.291  0.00  0.00    +0.440 HD
ATOM      5  C   LIG    1        2.117  -3.885   4.107  0.00  0.00    +0.210 C 
ATOM      6  C   LIG    1        1.738  -4.518   5.414  0.00  0.00    -0.270 C 
ATOM      7  S   LIG    1       -0.093  -4.689   5.276  0.00  0.00    +2.400 S 
ATOM      8  C   LIG    1       -0.270  -3.769   3.684  0.00  0.00    -0.290 C 
ATOM      9  O   LIG    1       -0.716  -3.955   6.322  0.00  0.00    -0.910 OA
ATOM     10  O   LIG    1       -0.427  -6.055   5.072  0.00  0.00    -0.910 OA
ATOM     11  O   LIG    1        3.687  -1.631   2.122  0.00  0.00    -0.530 OA
ATOM     12  C   LIG    1        0.972  -2.879   3.749  0.00  0.00    +0.220 C 
ENDROOT
BRANCH   1  14
ATOM     13  C   LIG    1        0.731  -0.503   1.223  0.00  0.00    +0.510 C 
ATOM     14  N   LIG    1        0.874  -1.828   1.428  0.00  0.00    -0.490 N 
ATOM     15  H   LIG    1        0.508  -2.459   0.789  0.00  0.00    +0.420 HD
ATOM     16  O   LIG    1        1.189   0.287   2.021  0.00  0.00    -0.510 OA
BRANCH  13  18
ATOM     17  C   LIG    1       -0.019   1.526   0.010  0.00  0.00    +0.050 C 
ATOM     18  C   LIG    1        0.002  -0.004   0.002  0.00  0.00    +0.070 C 
ENDBRANCH  13  18
ENDBRANCH   1  14
TORSDOF 2
ENDMDL
MODEL      885
REMARK  Name = ZINC000256030322
REMARK                            x       y       z     vdW  Elec       q    Type
REMARK                         _______ _______ _______ _____ _____    ______ ____
ROOT
ATOM      1  N   LIG    1        1.552  -2.292   2.563  0.00  0.00    -0.430 N 
ATOM      2  C   LIG    1        2.879  -2.262   2.742  0.00  0.00    +0.710 C 
ATOM      3  N   LIG    1        3.279  -2.768   3.917  0.00  0.00    -0.720 N 
ATOM      4  H   LIG    1        4.199  -2.829   4.219  0.00  0.00    +0.440 HD
ATOM      5  C   LIG    1        2.100  -3.215   4.674  0.00  0.00    +0.270 C 
ATOM      6  C   LIG    1        2.224  -4.723   4.964  0.00  0.00    -0.300 C 
ATOM      7  S   LIG    1        0.510  -5.335   4.709  0.00  0.00    +2.400 S 
ATOM      8  C   LIG    1        0.154  -4.172   3.331  0.00  0.00    -0.300 C 
ATOM      9  O   LIG    1       -0.291  -5.008   5.836  0.00  0.00    -0.910 OA
ATOM     10  O   LIG    1        0.543  -6.668   4.218  0.00  0.00    -0.920 OA
ATOM     11  O   LIG    1        3.651  -1.817   1.914  0.00  0.00    -0.560 OA
ATOM     12  C   LIG    1        0.919  -2.884   3.752  0.00  0.00    +0.270 C 
ENDROOT
BRANCH   1  14
ATOM     13  C   LIG    1        0.731  -0.503   1.223  0.00  0.00    +0.510 C 
ATOM     14  N   LIG    1        0.874  -1.828   1.428  0.00  0.00    -0.490 N 
ATOM     15  H   LIG    1        0.508  -2.459   0.789  0.00  0.00    +0.420 HD
ATOM     16  O   LIG    1        1.189   0.287   2.021  0.00  0.00    -0.510 OA
BRANCH  13  18
ATOM     17  C   LIG    1       -0.019   1.526   0.010  0.00  0.00    +0.050 C 
ATOM     18  C   LIG    1        0.002  -0.004   0.002  0.00  0.00    +0.070 C 
ENDBRANCH  13  18
ENDBRANCH   1  14
TORSDOF 2
ENDMDL
MODEL      886
REMARK  Name = ZINC000005801262
REMARK                            x       y       z     vdW  Elec       q    Type
REMARK                         _______ _______ _______ _____ _____    ______ ____
ROOT
ATOM      1  N   LIG    1        0.002  -0.004   0.002  0.00  0.00    -0.400 N 
ATOM      2  C   LIG    1        1.177  -0.661  -0.007  0.00  0.00    +0.660 A 
ATOM      3  N   LIG    1        1.219  -2.005  -0.014  0.00  0.00    -0.530 N 
ATOM      4  H   LIG    1        2.077  -2.457  -0.021  0.00  0.00    +0.460 HD
ATOM      5  N   LIG    1        0.041  -2.761  -0.013  0.00  0.00    -0.120 NA
ATOM      6  C   LIG    1       -1.117  -2.159  -0.005  0.00  0.00    +0.030 A 
ATOM      7  O   LIG    1        2.216  -0.029  -0.009  0.00  0.00    -0.530 OA
ATOM      8  C   LIG    1       -1.157  -0.694   0.009  0.00  0.00    +0.520 A 
ATOM      9  O   LIG    1       -2.224  -0.107   0.018  0.00  0.00    -0.440 OA
ENDROOT
BRANCH   1  10
ATOM     10  N   LIG    1       -0.016   1.362   0.009  0.00  0.00    -0.580 N 
ATOM     11  H   LIG    1       -0.555   1.720  -0.765  0.00  0.00    +0.370 HD
ATOM     12  H   LIG    1        0.920   1.736   0.003  0.00  0.00    +0.380 HD
ENDBRANCH   1  10
BRANCH   6  13
ATOM     13  C   LIG    1       -2.394  -2.959  -0.004  0.00  0.00    +0.310 C 
BRANCH  13  14
ATOM     14  O   LIG    1       -3.160  -2.635  -1.165  0.00  0.00    -0.520 OA
ATOM     15  H   LIG    1       -2.708  -2.821  -1.999  0.00  0.00    +0.370 HD
ENDBRANCH  13  14
BRANCH  13  16
ATOM     16  C   LIG    1       -2.060  -4.452  -0.013  0.00  0.00    +0.170 C 
BRANCH  16  17
ATOM     17  O   LIG    1       -1.207  -4.743  -1.122  0.00  0.00    -0.530 OA
ATOM     18  H   LIG    1       -1.595  -4.532  -1.982  0.00  0.00    +0.370 HD
ENDBRANCH  16  17
BRANCH  16  19
ATOM     19  C   LIG    1       -3.352  -5.263  -0.138  0.00  0.00    +0.200 C 
BRANCH  19  20
ATOM     20  O   LIG    1       -4.205  -4.972   0.972  0.00  0.00    -0.540 OA
ATOM     21  H   LIG    1       -3.817  -5.184   1.832  0.00  0.00    +0.370 HD
ENDBRANCH  19  20
BRANCH  19  22
ATOM     22  C   LIG    1       -3.018  -6.756  -0.147  0.00  0.00    +0.160 C 
BRANCH  22  23
ATOM     23  O   LIG    1       -4.210  -7.509  -0.380  0.00  0.00    -0.570 OA
ATOM     24  H   LIG    1       -4.074  -8.466  -0.399  0.00  0.00    +0.380 HD
ENDBRANCH  22  23
ENDBRANCH  19  22
ENDBRANCH  16  19
ENDBRANCH  13  16
ENDBRANCH   6  13
TORSDOF 9
ENDMDL
MODEL      887
REMARK  Name = ZINC000256030321
REMARK                            x       y       z     vdW  Elec       q    Type
REMARK                         _______ _______ _______ _____ _____    ______ ____
ROOT
ATOM      1  N   LIG    1        1.552  -2.292   2.563  0.00  0.00    -0.430 N 
ATOM      2  C   LIG    1        2.901  -2.282   2.789  0.00  0.00    +0.720 C 
ATOM      3  N   LIG    1        3.216  -2.529   4.096  0.00  0.00    -0.720 N 
ATOM      4  H   LIG    1        4.086  -2.762   4.457  0.00  0.00    +0.440 HD
ATOM      5  C   LIG    1        1.980  -2.369   4.827  0.00  0.00    +0.220 C 
ATOM      6  C   LIG    1        1.631  -3.206   6.049  0.00  0.00    -0.270 C 
ATOM      7  S   LIG    1       -0.208  -3.031   6.071  0.00  0.00    +2.400 S 
ATOM      8  C   LIG    1       -0.405  -2.668   4.274  0.00  0.00    -0.280 C 
ATOM      9  O   LIG    1       -0.565  -1.884   6.830  0.00  0.00    -0.910 OA
ATOM     10  O   LIG    1       -0.799  -4.289   6.366  0.00  0.00    -0.910 OA
ATOM     11  O   LIG    1        3.729  -2.077   1.923  0.00  0.00    -0.530 OA
ATOM     12  C   LIG    1        0.982  -2.874   3.741  0.00  0.00    +0.210 C 
ENDROOT
BRANCH   1  14
ATOM     13  C   LIG    1        0.731  -0.503   1.223  0.00  0.00    +0.510 C 
ATOM     14  N   LIG    1        0.874  -1.828   1.428  0.00  0.00    -0.490 N 
ATOM     15  H   LIG    1        0.508  -2.459   0.789  0.00  0.00    +0.420 HD
ATOM     16  O   LIG    1        1.189   0.287   2.021  0.00  0.00    -0.510 OA
BRANCH  13  18
ATOM     17  C   LIG    1       -0.019   1.526   0.010  0.00  0.00    +0.050 C 
ATOM     18  C   LIG    1        0.002  -0.004   0.002  0.00  0.00    +0.070 C 
ENDBRANCH  13  18
ENDBRANCH   1  14
TORSDOF 2
ENDMDL
MODEL      888
REMARK  Name = ZINC000256030320
REMARK                            x       y       z     vdW  Elec       q    Type
REMARK                         _______ _______ _______ _____ _____    ______ ____
ROOT
ATOM      1  N   LIG    1        1.552  -2.292   2.563  0.00  0.00    -0.440 N 
ATOM      2  C   LIG    1        2.879  -2.262   2.742  0.00  0.00    +0.710 C 
ATOM      3  N   LIG    1        3.279  -2.767   3.917  0.00  0.00    -0.730 N 
ATOM      4  H   LIG    1        4.199  -2.829   4.219  0.00  0.00    +0.440 HD
ATOM      5  C   LIG    1        2.100  -3.213   4.675  0.00  0.00    +0.270 C 
ATOM      6  C   LIG    1        2.032  -2.445   6.008  0.00  0.00    -0.300 C 
ATOM      7  S   LIG    1        1.039  -0.959   5.580  0.00  0.00    +2.370 S 
ATOM      8  C   LIG    1       -0.041  -1.856   4.394  0.00  0.00    -0.310 C 
ATOM      9  O   LIG    1        1.849  -0.023   4.882  0.00  0.00    -0.890 OA
ATOM     10  O   LIG    1        0.279  -0.546   6.707  0.00  0.00    -0.930 OA
ATOM     11  O   LIG    1        3.651  -1.817   1.914  0.00  0.00    -0.550 OA
ATOM     12  C   LIG    1        0.919  -2.884   3.752  0.00  0.00    +0.270 C 
ENDROOT
BRANCH   1  14
ATOM     13  C   LIG    1        0.731  -0.503   1.223  0.00  0.00    +0.500 C 
ATOM     14  N   LIG    1        0.874  -1.828   1.428  0.00  0.00    -0.490 N 
ATOM     15  H   LIG    1        0.508  -2.459   0.789  0.00  0.00    +0.420 HD
ATOM     16  O   LIG    1        1.189   0.287   2.021  0.00  0.00    -0.490 OA
BRANCH  13  18
ATOM     17  C   LIG    1       -0.019   1.526   0.010  0.00  0.00    +0.060 C 
ATOM     18  C   LIG    1        0.002  -0.004   0.002  0.00  0.00    +0.070 C 
ENDBRANCH  13  18
ENDBRANCH   1  14
TORSDOF 2
ENDMDL
MODEL      889
REMARK  Name = ZINC000005908902
REMARK                            x       y       z     vdW  Elec       q    Type
REMARK                         _______ _______ _______ _____ _____    ______ ____
ROOT
ATOM      1  O   LIG    1        0.002  -0.004   0.002  0.00  0.00    -0.490 OA
ATOM      2  C   LIG    1       -0.014   1.211   0.009  0.00  0.00    +0.650 C 
ATOM      3  N   LIG    1       -1.153   1.955   0.029  0.00  0.00    -0.710 N 
ATOM      4  H   LIG    1       -2.062   1.617   0.057  0.00  0.00    +0.440 HD
ATOM      5  C   LIG    1       -0.750   3.348   0.002  0.00  0.00    +0.170 C 
ATOM      6  C   LIG    1        0.685   3.231  -0.585  0.00  0.00    +0.340 C 
ATOM      7  O   LIG    1        1.346   4.438  -0.301  0.00  0.00    -0.330 OA
ATOM      8  C   LIG    1        0.749   5.531  -1.025  0.00  0.00    +0.150 C 
ATOM      9  C   LIG    1       -0.740   5.677  -0.728  0.00  0.00    +0.140 C 
ATOM     10  C   LIG    1       -1.495   4.319  -0.892  0.00  0.00    +0.210 C 
ATOM     11  O   LIG    1        1.106   1.987   0.002  0.00  0.00    -0.310 OA
ENDROOT
BRANCH   9  12
ATOM     12  O   LIG    1       -1.305   6.631  -1.629  0.00  0.00    -0.550 OA
ATOM     13  H   LIG    1       -0.910   7.512  -1.568  0.00  0.00    +0.390 HD
ENDBRANCH   9  12
BRANCH  10  14
ATOM     14  O   LIG    1       -2.853   4.456  -0.468  0.00  0.00    -0.550 OA
ATOM     15  H   LIG    1       -3.355   5.117  -0.964  0.00  0.00    +0.400 HD
ENDBRANCH  10  14
BRANCH   8  16
ATOM     16  C   LIG    1        1.460   6.829  -0.638  0.00  0.00    +0.220 C 
BRANCH  16  17
ATOM     17  O   LIG    1        2.820   6.776  -1.074  0.00  0.00    -0.560 OA
ATOM     18  H   LIG    1        3.333   7.568  -0.861  0.00  0.00    +0.390 HD
ENDBRANCH  16  17
ENDBRANCH   8  16
TORSDOF 4
ENDMDL
MODEL      890
REMARK  Name = ZINC000256049788
REMARK                            x       y       z     vdW  Elec       q    Type
REMARK                         _______ _______ _______ _____ _____    ______ ____
ROOT
ATOM      1  N   LIG    1        2.049   0.780   2.072  0.00  0.00    -0.310 N 
ATOM      2  C   LIG    1        2.140  -0.391   1.401  0.00  0.00    +0.190 A 
ATOM      3  C   LIG    1        2.704  -1.274   2.258  0.00  0.00    -0.030 A 
ATOM      4  N   LIG    1        2.927  -0.608   3.397  0.00  0.00    -0.250 NA
ATOM      5  N   LIG    1        2.533   0.608   3.252  0.00  0.00    -0.070 NA
ENDROOT
BRANCH   1   9
ATOM      6  O   LIG    1        0.002  -0.004   0.002  0.00  0.00    -0.900 OA
ATOM      7  S   LIG    1       -0.017   1.417   0.010  0.00  0.00    +2.370 S 
ATOM      8  C   LIG    1       -0.049   2.074   1.718  0.00  0.00    -0.240 C 
ATOM      9  C   LIG    1        1.499   2.032   1.544  0.00  0.00    +0.250 C 
ATOM     10  O   LIG    1       -0.881   2.151  -0.847  0.00  0.00    -0.910 OA
ATOM     11  C   LIG    1        1.679   2.107  -0.003  0.00  0.00    -0.230 C 
ENDBRANCH   1   9
BRANCH   3  12
ATOM     12  C   LIG    1        3.019  -2.721   1.984  0.00  0.00    +0.310 C 
BRANCH  12  13
ATOM     13  O   LIG    1        2.628  -3.049   0.649  0.00  0.00    -0.570 OA
ATOM     14  H   LIG    1        2.802  -3.968   0.402  0.00  0.00    +0.390 HD
ENDBRANCH  12  13
ENDBRANCH   3  12
TORSDOF 3
ENDMDL
MODEL      891
REMARK  Name = ZINC000222354342
REMARK                            x       y       z     vdW  Elec       q    Type
REMARK                         _______ _______ _______ _____ _____    ______ ____
ROOT
ATOM      1  C   LIG    1        1.304  -2.596  -2.255  0.00  0.00    +0.400 C 
ATOM      2  O   LIG    1        0.322  -2.926  -3.240  0.00  0.00    -0.380 OA
ATOM      3  C   LIG    1        0.856  -3.545  -4.412  0.00  0.00    +0.220 C 
ATOM      4  C   LIG    1        1.536  -4.862  -4.027  0.00  0.00    +0.110 C 
ATOM      5  C   LIG    1        2.628  -4.580  -2.991  0.00  0.00    +0.210 C 
ATOM      6  C   LIG    1        2.001  -3.875  -1.784  0.00  0.00    +0.160 C 
ENDROOT
BRANCH   1   8
ATOM      7  C   LIG    1        0.600  -0.602  -1.046  0.00  0.00    +0.660 C 
ATOM      8  N   LIG    1        0.653  -1.946  -1.115  0.00  0.00    -0.690 N 
ATOM      9  H   LIG    1        0.260  -2.484  -0.409  0.00  0.00    +0.410 HD
ATOM     10  O   LIG    1        1.092   0.072  -1.930  0.00  0.00    -0.560 OA
BRANCH   7  12
ATOM     11  C   LIG    1       -0.018   1.448   0.010  0.00  0.00    +0.310 C 
ATOM     12  O   LIG    1        0.002  -0.004   0.002  0.00  0.00    -0.370 OA
ENDBRANCH   7  12
ENDBRANCH   1   8
BRANCH   5  13
ATOM     13  O   LIG    1        3.219  -5.812  -2.573  0.00  0.00    -0.540 OA
ATOM     14  H   LIG    1        3.630  -6.314  -3.290  0.00  0.00    +0.380 HD
ENDBRANCH   5  13
BRANCH   4  15
ATOM     15  O   LIG    1        0.567  -5.754  -3.473  0.00  0.00    -0.520 OA
ATOM     16  H   LIG    1       -0.157  -5.973  -4.075  0.00  0.00    +0.370 HD
ENDBRANCH   4  15
BRANCH   6  17
ATOM     17  O   LIG    1        1.047  -4.742  -1.167  0.00  0.00    -0.510 OA
ATOM     18  H   LIG    1        0.610  -4.359  -0.394  0.00  0.00    +0.370 HD
ENDBRANCH   6  17
TORSDOF 5
ENDMDL
MODEL      892
REMARK  Name = ZINC000100360367
REMARK                            x       y       z     vdW  Elec       q    Type
REMARK                         _______ _______ _______ _____ _____    ______ ____
ROOT
ATOM      1  C   LIG    1       -0.018   1.461   0.010  0.00  0.00    +0.340 C 
ATOM      2  N   LIG    1        0.002  -0.004   0.002  0.00  0.00    -0.540 N 
ATOM      3  C   LIG    1       -1.177  -0.698   0.004  0.00  0.00    +0.350 A 
ATOM      4  C   LIG    1       -1.159  -2.048  -0.004  0.00  0.00    -0.260 A 
ATOM      5  C   LIG    1        0.087  -2.720  -0.014  0.00  0.00    +0.550 A 
ATOM      6  N   LIG    1        1.227  -2.000  -0.016  0.00  0.00    -0.560 N 
ATOM      7  C   LIG    1        2.522  -2.684  -0.026  0.00  0.00    +0.330 C 
ATOM      8  O   LIG    1        0.129  -3.937  -0.022  0.00  0.00    -0.510 OA
ATOM      9  C   LIG    1        1.180  -0.654  -0.013  0.00  0.00    +0.690 A 
ATOM     10  O   LIG    1        2.216  -0.018  -0.015  0.00  0.00    -0.540 OA
ENDROOT
BRANCH   4  11
ATOM     11  C   LIG    1       -2.448  -2.829  -0.003  0.00  0.00    +0.150 C 
BRANCH  11  12
ATOM     12  C   LIG    1       -2.825  -3.193  -1.440  0.00  0.00    +0.050 C 
BRANCH  12  13
ATOM     13  C   LIG    1       -4.114  -3.974  -1.439  0.00  0.00    +0.520 C 
ATOM     14  O   LIG    1       -4.675  -4.216  -0.391  0.00  0.00    -0.540 OA
ATOM     15  N   LIG    1       -4.643  -4.404  -2.602  0.00  0.00    -0.860 N 
ATOM     16  H   LIG    1       -5.472  -4.907  -2.601  0.00  0.00    +0.400 HD
ATOM     17  H   LIG    1       -4.194  -4.210  -3.439  0.00  0.00    +0.400 HD
ENDBRANCH  12  13
ENDBRANCH  11  12
ENDBRANCH   4  11
TORSDOF 3
ENDMDL
MODEL      893
REMARK  Name = ZINC000256054421
REMARK                            x       y       z     vdW  Elec       q    Type
REMARK                         _______ _______ _______ _____ _____    ______ ____
ROOT
ATOM      1  C   LIG    1       -1.259  -0.755   0.010  0.00  0.00    -0.190 A 
ATOM      2  C   LIG    1       -1.385  -2.139   0.009  0.00  0.00    +0.410 A 
ATOM      3  N   LIG    1       -2.713  -2.402   0.019  0.00  0.00    -0.380 N 
ATOM      4  N   LIG    1       -3.373  -1.165   0.026  0.00  0.00    -0.040 NA
ATOM      5  N   LIG    1       -2.496  -0.224   0.025  0.00  0.00    -0.180 NA
ENDROOT
BRANCH   1   9
ATOM      6  N   LIG    1       -0.016   1.344   0.009  0.00  0.00    -0.840 N 
ATOM      7  H   LIG    1       -0.863   1.817   0.016  0.00  0.00    +0.410 HD
ATOM      8  H   LIG    1        0.817   1.840   0.004  0.00  0.00    +0.410 HD
ATOM      9  C   LIG    1        0.002  -0.004   0.002  0.00  0.00    +0.620 C 
ATOM     10  O   LIG    1        1.064  -0.598  -0.011  0.00  0.00    -0.560 OA
ENDBRANCH   1   9
BRANCH   3  11
ATOM     11  C   LIG    1       -3.341  -3.725   0.023  0.00  0.00    +0.250 C 
ATOM     12  C   LIG    1       -4.299  -3.873  -1.179  0.00  0.00    +0.240 C 
ATOM     13  O   LIG    1       -5.415  -4.637  -0.670  0.00  0.00    -0.360 OA
ATOM     14  C   LIG    1       -5.661  -4.113   0.653  0.00  0.00    +0.190 C 
ATOM     15  C   LIG    1       -4.254  -3.888   1.258  0.00  0.00    +0.160 C 
BRANCH  15  16
ATOM     16  O   LIG    1       -4.236  -2.703   2.057  0.00  0.00    -0.540 OA
ATOM     17  H   LIG    1       -4.840  -2.729   2.812  0.00  0.00    +0.390 HD
ENDBRANCH  15  16
ENDBRANCH   3  11
BRANCH   2  18
ATOM     18  N   LIG    1       -0.360  -3.062   0.001  0.00  0.00    -0.820 N 
ATOM     19  H   LIG    1       -0.562  -4.011   0.002  0.00  0.00    +0.400 HD
ATOM     20  H   LIG    1        0.563  -2.762  -0.005  0.00  0.00    +0.440 HD
ENDBRANCH   2  18
TORSDOF 4
ENDMDL
MODEL      894
REMARK  Name = ZINC000256054424
REMARK                            x       y       z     vdW  Elec       q    Type
REMARK                         _______ _______ _______ _____ _____    ______ ____
ROOT
ATOM      1  C   LIG    1       -1.259  -0.755   0.010  0.00  0.00    -0.190 A 
ATOM      2  C   LIG    1       -1.385  -2.139   0.009  0.00  0.00    +0.420 A 
ATOM      3  N   LIG    1       -2.713  -2.402   0.019  0.00  0.00    -0.400 N 
ATOM      4  N   LIG    1       -3.373  -1.165   0.026  0.00  0.00    -0.070 NA
ATOM      5  N   LIG    1       -2.496  -0.224   0.025  0.00  0.00    -0.170 NA
ENDROOT
BRANCH   1   9
ATOM      6  N   LIG    1       -0.016   1.344   0.009  0.00  0.00    -0.840 N 
ATOM      7  H   LIG    1       -0.863   1.817   0.016  0.00  0.00    +0.410 HD
ATOM      8  H   LIG    1        0.817   1.840   0.004  0.00  0.00    +0.410 HD
ATOM      9  C   LIG    1        0.002  -0.004   0.002  0.00  0.00    +0.620 C 
ATOM     10  O   LIG    1        1.064  -0.598  -0.011  0.00  0.00    -0.560 OA
ENDBRANCH   1   9
BRANCH   3  11
ATOM     11  C   LIG    1       -3.341  -3.725   0.023  0.00  0.00    +0.260 C 
ATOM     12  C   LIG    1       -4.299  -3.873  -1.179  0.00  0.00    +0.240 C 
ATOM     13  O   LIG    1       -5.415  -4.637  -0.670  0.00  0.00    -0.360 OA
ATOM     14  C   LIG    1       -5.661  -4.113   0.653  0.00  0.00    +0.210 C 
ATOM     15  C   LIG    1       -4.254  -3.888   1.258  0.00  0.00    +0.160 C 
BRANCH  15  16
ATOM     16  O   LIG    1       -3.857  -5.019   2.037  0.00  0.00    -0.560 OA
ATOM     17  H   LIG    1       -4.436  -5.200   2.791  0.00  0.00    +0.390 HD
ENDBRANCH  15  16
ENDBRANCH   3  11
BRANCH   2  18
ATOM     18  N   LIG    1       -0.360  -3.062   0.001  0.00  0.00    -0.810 N 
ATOM     19  H   LIG    1       -0.562  -4.011   0.002  0.00  0.00    +0.410 HD
ATOM     20  H   LIG    1        0.563  -2.762  -0.005  0.00  0.00    +0.440 HD
ENDBRANCH   2  18
TORSDOF 4
ENDMDL
MODEL      895
REMARK  Name = ZINC000256054423
REMARK                            x       y       z     vdW  Elec       q    Type
REMARK                         _______ _______ _______ _____ _____    ______ ____
ROOT
ATOM      1  C   LIG    1       -1.259  -0.755   0.010  0.00  0.00    -0.190 A 
ATOM      2  C   LIG    1       -1.385  -2.139   0.009  0.00  0.00    +0.400 A 
ATOM      3  N   LIG    1       -2.713  -2.402   0.019  0.00  0.00    -0.380 N 
ATOM      4  N   LIG    1       -3.373  -1.165   0.026  0.00  0.00    -0.030 NA
ATOM      5  N   LIG    1       -2.496  -0.224   0.025  0.00  0.00    -0.190 NA
ENDROOT
BRANCH   1   9
ATOM      6  N   LIG    1       -0.016   1.344   0.009  0.00  0.00    -0.840 N 
ATOM      7  H   LIG    1       -0.863   1.817   0.016  0.00  0.00    +0.410 HD
ATOM      8  H   LIG    1        0.817   1.840   0.004  0.00  0.00    +0.410 HD
ATOM      9  C   LIG    1        0.002  -0.004   0.002  0.00  0.00    +0.620 C 
ATOM     10  O   LIG    1        1.064  -0.598  -0.011  0.00  0.00    -0.560 OA
ENDBRANCH   1   9
BRANCH   3  11
ATOM     11  C   LIG    1       -3.341  -3.725   0.023  0.00  0.00    +0.250 C 
ATOM     12  C   LIG    1       -4.281  -3.876   1.239  0.00  0.00    +0.240 C 
ATOM     13  O   LIG    1       -5.589  -3.518   0.741  0.00  0.00    -0.350 OA
ATOM     14  C   LIG    1       -5.670  -4.112  -0.573  0.00  0.00    +0.190 C 
ATOM     15  C   LIG    1       -4.273  -3.886  -1.199  0.00  0.00    +0.160 C 
BRANCH  15  16
ATOM     16  O   LIG    1       -4.267  -2.700  -1.996  0.00  0.00    -0.540 OA
ATOM     17  H   LIG    1       -4.882  -2.724  -2.741  0.00  0.00    +0.390 HD
ENDBRANCH  15  16
ENDBRANCH   3  11
BRANCH   2  18
ATOM     18  N   LIG    1       -0.360  -3.062   0.001  0.00  0.00    -0.820 N 
ATOM     19  H   LIG    1       -0.562  -4.011   0.002  0.00  0.00    +0.400 HD
ATOM     20  H   LIG    1        0.563  -2.762  -0.005  0.00  0.00    +0.440 HD
ENDBRANCH   2  18
TORSDOF 4
ENDMDL
MODEL      896
REMARK  Name = ZINC000256054422
REMARK                            x       y       z     vdW  Elec       q    Type
REMARK                         _______ _______ _______ _____ _____    ______ ____
ROOT
ATOM      1  C   LIG    1       -1.259  -0.755   0.010  0.00  0.00    -0.190 A 
ATOM      2  C   LIG    1       -1.385  -2.139   0.009  0.00  0.00    +0.410 A 
ATOM      3  N   LIG    1       -2.713  -2.402   0.019  0.00  0.00    -0.400 N 
ATOM      4  N   LIG    1       -3.373  -1.165   0.026  0.00  0.00    -0.060 NA
ATOM      5  N   LIG    1       -2.496  -0.224   0.025  0.00  0.00    -0.170 NA
ENDROOT
BRANCH   1   9
ATOM      6  N   LIG    1       -0.016   1.344   0.009  0.00  0.00    -0.840 N 
ATOM      7  H   LIG    1       -0.863   1.817   0.016  0.00  0.00    +0.410 HD
ATOM      8  H   LIG    1        0.817   1.840   0.004  0.00  0.00    +0.410 HD
ATOM      9  C   LIG    1        0.002  -0.004   0.002  0.00  0.00    +0.620 C 
ATOM     10  O   LIG    1        1.064  -0.598  -0.011  0.00  0.00    -0.560 OA
ENDBRANCH   1   9
BRANCH   3  11
ATOM     11  C   LIG    1       -3.341  -3.725   0.023  0.00  0.00    +0.260 C 
ATOM     12  C   LIG    1       -4.281  -3.876   1.239  0.00  0.00    +0.250 C 
ATOM     13  O   LIG    1       -5.589  -3.518   0.741  0.00  0.00    -0.350 OA
ATOM     14  C   LIG    1       -5.670  -4.112  -0.573  0.00  0.00    +0.210 C 
ATOM     15  C   LIG    1       -4.273  -3.886  -1.199  0.00  0.00    +0.160 C 
BRANCH  15  16
ATOM     16  O   LIG    1       -3.888  -5.016  -1.985  0.00  0.00    -0.560 OA
ATOM     17  H   LIG    1       -4.477  -5.195  -2.730  0.00  0.00    +0.390 HD
ENDBRANCH  15  16
ENDBRANCH   3  11
BRANCH   2  18
ATOM     18  N   LIG    1       -0.360  -3.062   0.001  0.00  0.00    -0.810 N 
ATOM     19  H   LIG    1       -0.562  -4.011   0.002  0.00  0.00    +0.410 HD
ATOM     20  H   LIG    1        0.563  -2.762  -0.005  0.00  0.00    +0.440 HD
ENDBRANCH   2  18
TORSDOF 4
ENDMDL
MODEL      897
REMARK  Name = ZINC000057842143
REMARK                            x       y       z     vdW  Elec       q    Type
REMARK                         _______ _______ _______ _____ _____    ______ ____
ROOT
ATOM      1  N   LIG    1       -2.430   0.984   0.019  0.00  0.00    -0.530 N 
ATOM      2  C   LIG    1       -2.997   0.489  -1.088  0.00  0.00    +0.710 C 
ATOM      3  N   LIG    1       -3.987  -0.383  -0.814  0.00  0.00    -0.740 N 
ATOM      4  H   LIG    1       -4.534  -0.862  -1.455  0.00  0.00    +0.430 HD
ATOM      5  C   LIG    1       -4.073  -0.463   0.650  0.00  0.00    +0.110 C 
ATOM      6  C   LIG    1       -5.446  -0.003   1.131  0.00  0.00    +0.090 C 
ATOM      7  C   LIG    1       -6.507  -1.002   0.664  0.00  0.00    +0.270 C 
ATOM      8  N   LIG    1       -6.199  -2.333   1.201  0.00  0.00    -0.510 N 
ATOM      9  C   LIG    1       -4.920  -2.808   0.659  0.00  0.00    +0.270 C 
ATOM     10  H   LIG    1       -6.931  -2.977   0.941  0.00  0.00    +0.430 HD
ATOM     11  H   LIG    1       -6.138  -2.283   2.207  0.00  0.00    +0.430 HD
ATOM     12  C   LIG    1       -3.791  -1.884   1.126  0.00  0.00    +0.090 C 
ATOM     13  O   LIG    1       -2.656   0.791  -2.215  0.00  0.00    -0.520 OA
ATOM     14  C   LIG    1       -2.994   0.477   1.135  0.00  0.00    +0.530 C 
ATOM     15  O   LIG    1       -2.702   0.728   2.284  0.00  0.00    -0.460 OA
ENDROOT
BRANCH   1  16
ATOM     16  C   LIG    1       -1.330   1.951   0.019  0.00  0.00    +0.240 C 
BRANCH  16  18
ATOM     17  O   LIG    1        0.002  -0.004   0.002  0.00  0.00    -0.690 OA
ATOM     18  C   LIG    1       -0.015   1.215   0.009  0.00  0.00    +0.490 C 
ATOM     19  O   LIG    1        1.033   1.839   0.002  0.00  0.00    -0.680 OA
ENDBRANCH  16  18
ENDBRANCH   1  16
TORSDOF 2
ENDMDL
MODEL      898
REMARK  Name = ZINC000004011268
REMARK                            x       y       z     vdW  Elec       q    Type
REMARK                         _______ _______ _______ _____ _____    ______ ____
ROOT
ATOM      1  C   LIG    1       -0.018   1.503   0.010  0.00  0.00    +0.140 C 
ATOM      2  C   LIG    1        0.002  -0.004   0.002  0.00  0.00    -0.240 A 
ATOM      3  C   LIG    1       -1.149  -0.707   0.004  0.00  0.00    +0.330 A 
ATOM      4  N   LIG    1       -1.118  -2.070  -0.009  0.00  0.00    -0.520 N 
ATOM      5  C   LIG    1        0.095  -2.728   0.030  0.00  0.00    +0.580 A 
ATOM      6  O   LIG    1       -0.087  -4.093   0.101  0.00  0.00    -0.250 OA
ATOM      7  C   LIG    1       -1.360  -4.225   0.763  0.00  0.00    +0.150 C 
ATOM      8  C   LIG    1       -2.305  -5.380   0.477  0.00  0.00    +0.210 C 
ATOM      9  C   LIG    1       -3.688  -4.634   0.334  0.00  0.00    +0.170 C 
ATOM     10  O   LIG    1       -3.400  -3.202   0.400  0.00  0.00    -0.320 OA
ATOM     11  N   LIG    1        1.220  -2.049   0.016  0.00  0.00    -0.550 NA
ATOM     12  C   LIG    1       -2.100  -3.101  -0.065  0.00  0.00    +0.350 C 
ATOM     13  C   LIG    1        1.232  -0.710  -0.013  0.00  0.00    +0.530 A 
ATOM     14  O   LIG    1        2.292  -0.103  -0.043  0.00  0.00    -0.480 OA
ENDROOT
BRANCH   8  15
ATOM     15  O   LIG    1       -2.338  -6.303   1.567  0.00  0.00    -0.540 OA
ATOM     16  H   LIG    1       -2.997  -7.004   1.469  0.00  0.00    +0.400 HD
ENDBRANCH   8  15
BRANCH   9  17
ATOM     17  C   LIG    1       -4.623  -5.034   1.476  0.00  0.00    +0.220 C 
BRANCH  17  18
ATOM     18  O   LIG    1       -5.899  -4.419   1.285  0.00  0.00    -0.560 OA
ATOM     19  H   LIG    1       -6.545  -4.630   1.974  0.00  0.00    +0.390 HD
ENDBRANCH  17  18
ENDBRANCH   9  17
TORSDOF 3
ENDMDL
MODEL      899
REMARK  Name = ZINC000217402498
REMARK                            x       y       z     vdW  Elec       q    Type
REMARK                         _______ _______ _______ _____ _____    ______ ____
ROOT
ATOM      1  C   LIG    1        2.307   1.012   0.086  0.00  0.00    +0.270 C 
ATOM      2  C   LIG    1        2.223   0.201   1.396  0.00  0.00    -0.280 C 
ATOM      3  S   LIG    1        1.442  -1.372   0.855  0.00  0.00    +2.380 S 
ATOM      4  C   LIG    1        2.276  -1.381  -0.783  0.00  0.00    -0.340 C 
ATOM      5  O   LIG    1        0.044  -1.182   0.683  0.00  0.00    -0.920 OA
ATOM      6  O   LIG    1        1.926  -2.448   1.647  0.00  0.00    -0.930 OA
ATOM      7  C   LIG    1        2.335   0.114  -1.145  0.00  0.00    +0.220 C 
ENDROOT
BRANCH   1  10
ATOM      8  O   LIG    1        1.902   3.168   1.655  0.00  0.00    -0.540 OA
ATOM      9  C   LIG    1        1.059   2.978   0.804  0.00  0.00    +0.640 C 
ATOM     10  N   LIG    1        1.143   1.898   0.001  0.00  0.00    -0.610 N 
BRANCH  10  11
ATOM     11  C   LIG    1        0.072   1.612  -0.956  0.00  0.00    +0.300 C 
BRANCH  11  12
ATOM     12  C   LIG    1        0.279   2.452  -2.218  0.00  0.00    +0.160 C 
BRANCH  12  13
ATOM     13  O   LIG    1        1.485   2.047  -2.868  0.00  0.00    -0.560 OA
ATOM     14  H   LIG    1        1.680   2.539  -3.678  0.00  0.00    +0.380 HD
ENDBRANCH  12  13
ENDBRANCH  11  12
ENDBRANCH  10  11
ENDBRANCH   1  10
BRANCH   7  15
ATOM     15  O   LIG    1        3.540   0.369  -1.869  0.00  0.00    -0.540 OA
ATOM     16  H   LIG    1        3.607  -0.115  -2.703  0.00  0.00    +0.390 HD
ENDBRANCH   7  15
TORSDOF 5
ENDMDL
MODEL      900
REMARK  Name = ZINC000004982789
REMARK                            x       y       z     vdW  Elec       q    Type
REMARK                         _______ _______ _______ _____ _____    ______ ____
ROOT
ATOM      1  C   LIG    1        1.288  -4.565  -2.446  0.00  0.00    +0.170 C 
ENDROOT
BRANCH   1   2
ATOM      2  O   LIG    1        1.774  -5.036  -1.187  0.00  0.00    -0.530 OA
ATOM      3  H   LIG    1        2.709  -4.847  -1.031  0.00  0.00    +0.370 HD
ENDBRANCH   1   2
BRANCH   1   4
ATOM      4  C   LIG    1        1.461  -3.047  -2.524  0.00  0.00    +0.220 C 
BRANCH   4   5
ATOM      5  O   LIG    1        2.853  -2.725  -2.512  0.00  0.00    -0.540 OA
ATOM      6  H   LIG    1        3.319  -3.025  -1.719  0.00  0.00    +0.370 HD
ENDBRANCH   4   5
BRANCH   4   7
ATOM      7  C   LIG    1        0.775  -2.394  -1.322  0.00  0.00    +0.060 C 
BRANCH   7   8
ATOM      8  S   LIG    1        0.851  -0.589  -1.490  0.00  0.00    -0.240 S 
BRANCH   8  10
ATOM      9  C   LIG    1       -0.019   1.526   0.010  0.00  0.00    +0.070 C 
ATOM     10  C   LIG    1        0.002  -0.004   0.002  0.00  0.00    +0.060 C 
ENDBRANCH   8  10
ENDBRANCH   7   8
ENDBRANCH   4   7
ENDBRANCH   1   4
BRANCH   1  11
ATOM     11  C   LIG    1        2.078  -5.227  -3.577  0.00  0.00    +0.170 C 
BRANCH  11  12
ATOM     12  O   LIG    1        1.592  -4.756  -4.836  0.00  0.00    -0.540 OA
ATOM     13  H   LIG    1        0.656  -4.946  -4.992  0.00  0.00    +0.380 HD
ENDBRANCH  11  12
BRANCH  11  14
ATOM     14  C   LIG    1        1.905  -6.745  -3.499  0.00  0.00    +0.180 C 
BRANCH  14  15
ATOM     15  O   LIG    1        2.391  -7.216  -2.241  0.00  0.00    -0.530 OA
ATOM     16  H   LIG    1        3.326  -7.027  -2.085  0.00  0.00    +0.370 HD
ENDBRANCH  14  15
BRANCH  14  17
ATOM     17  C   LIG    1        2.695  -7.407  -4.631  0.00  0.00    +0.150 C 
BRANCH  17  18
ATOM     18  O   LIG    1        2.441  -8.813  -4.629  0.00  0.00    -0.570 OA
ATOM     19  H   LIG    1        2.910  -9.298  -5.322  0.00  0.00    +0.380 HD
ENDBRANCH  17  18
ENDBRANCH  14  17
ENDBRANCH  11  14
ENDBRANCH   1  11
TORSDOF 12
ENDMDL
MODEL      901
REMARK  Name = ZINC000005663972
REMARK                            x       y       z     vdW  Elec       q    Type
REMARK                         _______ _______ _______ _____ _____    ______ ____
ROOT
ATOM      1  N   LIG    1        0.544  -1.962  -5.413  0.00  0.00    -0.690 N 
ATOM      2  H   LIG    1       -0.407  -2.112  -5.525  0.00  0.00    +0.400 HD
ENDROOT
BRANCH   1   3
ATOM      3  C   LIG    1        1.152  -0.960  -6.079  0.00  0.00    +0.580 C 
ATOM      4  S   LIG    1        2.832  -0.696  -5.881  0.00  0.00    -0.620 S 
BRANCH   3   5
ATOM      5  N   LIG    1        0.437  -0.167  -6.902  0.00  0.00    -0.530 N 
ATOM      6  H   LIG    1        0.874   0.553  -7.382  0.00  0.00    +0.430 HD
BRANCH   5   7
ATOM      7  N   LIG    1       -0.903  -0.379  -7.060  0.00  0.00    -0.620 NA
ATOM      8  H   LIG    1       -1.301   0.290  -7.703  0.00  0.00    +0.380 HD
ATOM      9  H   LIG    1       -1.380  -0.354  -6.171  0.00  0.00    +0.340 HD
ENDBRANCH   5   7
ENDBRANCH   3   5
ENDBRANCH   1   3
BRANCH   1  10
ATOM     10  C   LIG    1        1.321  -2.824  -4.519  0.00  0.00    +0.510 C 
BRANCH  10  11
ATOM     11  O   LIG    1        1.225  -2.332  -3.180  0.00  0.00    -0.370 OA
BRANCH  11  12
ATOM     12  C   LIG    1        0.015  -2.696  -2.513  0.00  0.00    +0.190 C 
BRANCH  12  13
ATOM     13  C   LIG    1        0.021  -2.119  -1.096  0.00  0.00    +0.240 C 
BRANCH  13  14
ATOM     14  O   LIG    1        0.000  -0.669  -1.164  0.00  0.00    -0.350 OA
BRANCH  14  16
ATOM     15  C   LIG    1       -0.018   1.503   0.010  0.00  0.00    +0.150 C 
ATOM     16  C   LIG    1        0.002  -0.004   0.002  0.00  0.00    +0.460 C 
ATOM     17  O   LIG    1        0.020  -0.614   1.045  0.00  0.00    -0.520 OA
ENDBRANCH  14  16
ENDBRANCH  13  14
ENDBRANCH  12  13
ENDBRANCH  11  12
ENDBRANCH  10  11
ENDBRANCH   1  10
TORSDOF 9
ENDMDL
MODEL      902
REMARK  Name = ZINC000217402579
REMARK                            x       y       z     vdW  Elec       q    Type
REMARK                         _______ _______ _______ _____ _____    ______ ____
ROOT
ATOM      1  C   LIG    1        2.422   1.183  -0.015  0.00  0.00    +0.290 C 
ATOM      2  C   LIG    1        2.497   0.321  -1.291  0.00  0.00    -0.310 C 
ATOM      3  S   LIG    1        3.436  -1.157  -0.732  0.00  0.00    +2.390 S 
ATOM      4  C   LIG    1        2.700  -1.156   0.952  0.00  0.00    -0.320 C 
ATOM      5  O   LIG    1        4.820  -0.848  -0.655  0.00  0.00    -0.920 OA
ATOM      6  O   LIG    1        2.998  -2.304  -1.448  0.00  0.00    -0.930 OA
ATOM      7  C   LIG    1        2.535   0.345   1.253  0.00  0.00    +0.200 C 
ENDROOT
BRANCH   1  10
ATOM      8  O   LIG    1        0.002  -0.004   0.002  0.00  0.00    -0.540 OA
ATOM      9  C   LIG    1       -0.014   1.209   0.009  0.00  0.00    +0.630 C 
ATOM     10  N   LIG    1        1.143   1.898   0.001  0.00  0.00    -0.600 N 
BRANCH  10  11
ATOM     11  C   LIG    1        1.124   3.363   0.009  0.00  0.00    +0.300 C 
BRANCH  11  12
ATOM     12  C   LIG    1        1.131   3.865   1.455  0.00  0.00    +0.160 C 
BRANCH  12  13
ATOM     13  O   LIG    1        2.363   3.501   2.080  0.00  0.00    -0.560 OA
ATOM     14  H   LIG    1        2.437   3.787   3.000  0.00  0.00    +0.380 HD
ENDBRANCH  12  13
ENDBRANCH  11  12
ENDBRANCH  10  11
ENDBRANCH   1  10
BRANCH   7  15
ATOM     15  O   LIG    1        3.668   0.795   1.999  0.00  0.00    -0.550 OA
ATOM     16  H   LIG    1        3.775   0.357   2.854  0.00  0.00    +0.380 HD
ENDBRANCH   7  15
TORSDOF 5
ENDMDL
MODEL      903
REMARK  Name = ZINC000005004072
REMARK                            x       y       z     vdW  Elec       q    Type
REMARK                         _______ _______ _______ _____ _____    ______ ____
ROOT
ATOM      1  C   LIG    1        0.800  -2.408   1.286  0.00  0.00    +0.040 C 
ATOM      2  C   LIG    1        1.612  -3.074   2.401  0.00  0.00    +0.220 C 
ATOM      3  C   LIG    1        1.474  -4.594   2.280  0.00  0.00    +0.130 C 
ATOM      4  C   LIG    1       -0.009  -4.970   2.337  0.00  0.00    +0.150 C 
ATOM      5  O   LIG    1       -0.712  -4.293   1.292  0.00  0.00    -0.380 OA
ATOM      6  C   LIG    1       -0.657  -2.868   1.379  0.00  0.00    +0.350 C 
ENDROOT
BRANCH   3   7
ATOM      7  O   LIG    1        2.030  -5.027   1.036  0.00  0.00    -0.540 OA
ATOM      8  H   LIG    1        1.976  -5.981   0.892  0.00  0.00    +0.380 HD
ENDBRANCH   3   7
BRANCH   2   9
ATOM      9  O   LIG    1        2.987  -2.705   2.276  0.00  0.00    -0.530 OA
ATOM     10  H   LIG    1        3.560  -3.092   2.952  0.00  0.00    +0.380 HD
ENDBRANCH   2   9
BRANCH   6  11
ATOM     11  O   LIG    1       -1.410  -2.296   0.308  0.00  0.00    -0.540 OA
ATOM     12  H   LIG    1       -2.344  -2.546   0.306  0.00  0.00    +0.390 HD
ENDBRANCH   6  11
BRANCH   1  13
ATOM     13  S   LIG    1        0.879  -0.605   1.472  0.00  0.00    -0.220 S 
BRANCH  13  15
ATOM     14  C   LIG    1       -0.019   1.526   0.010  0.00  0.00    +0.050 C 
ATOM     15  C   LIG    1        0.002  -0.004   0.002  0.00  0.00    +0.090 C 
ENDBRANCH  13  15
ENDBRANCH   1  13
BRANCH   4  16
ATOM     16  C   LIG    1       -0.160  -6.482   2.156  0.00  0.00    +0.210 C 
BRANCH  16  17
ATOM     17  O   LIG    1       -1.531  -6.848   2.325  0.00  0.00    -0.560 OA
ATOM     18  H   LIG    1       -1.700  -7.795   2.224  0.00  0.00    +0.390 HD
ENDBRANCH  16  17
ENDBRANCH   4  16
TORSDOF 7
ENDMDL
MODEL      904
REMARK  Name = ZINC000006447445
REMARK                            x       y       z     vdW  Elec       q    Type
REMARK                         _______ _______ _______ _____ _____    ______ ____
ROOT
ATOM      1  C   LIG    1       -0.018   1.461   0.010  0.00  0.00    +0.370 C 
ATOM      2  N   LIG    1        0.002  -0.004   0.002  0.00  0.00    -0.380 N 
ATOM      3  C   LIG    1        0.009  -0.810  -1.098  0.00  0.00    +0.170 A 
ATOM      4  N   LIG    1        0.027  -2.071  -0.712  0.00  0.00    -0.430 NA
ATOM      5  C   LIG    1        0.034  -2.133   0.616  0.00  0.00    +0.300 A 
ATOM      6  N   LIG    1        0.051  -3.176   1.529  0.00  0.00    -0.510 N 
ATOM      7  C   LIG    1        0.061  -4.560   1.047  0.00  0.00    +0.350 C 
ATOM      8  C   LIG    1        0.049  -2.933   2.851  0.00  0.00    +0.710 A 
ATOM      9  O   LIG    1        0.060  -3.875   3.619  0.00  0.00    -0.530 OA
ATOM     10  N   LIG    1        0.040  -1.688   3.356  0.00  0.00    -0.550 N 
ATOM     11  C   LIG    1        0.044  -1.499   4.809  0.00  0.00    +0.360 C 
ATOM     12  C   LIG    1        0.027  -0.609   2.544  0.00  0.00    +0.600 A 
ATOM     13  O   LIG    1        0.019   0.517   3.006  0.00  0.00    -0.500 OA
ATOM     14  C   LIG    1        0.024  -0.824   1.096  0.00  0.00    -0.110 A 
ENDROOT
BRANCH   3  15
ATOM     15  C   LIG    1       -0.003  -0.345  -2.495  0.00  0.00    +0.560 C 
ATOM     16  O   LIG    1        0.004  -1.151  -3.402  0.00  0.00    -0.400 OA
ENDBRANCH   3  15
TORSDOF 1
ENDMDL
MODEL      905
REMARK  Name = ZINC000585656244
REMARK                            x       y       z     vdW  Elec       q    Type
REMARK                         _______ _______ _______ _____ _____    ______ ____
ROOT
ATOM      1  N   LIG    1        0.002  -0.004   0.002  0.00  0.00    -0.480 N 
ATOM      2  C   LIG    1       -1.185  -0.872   0.003  0.00  0.00    +0.310 C 
ATOM      3  C   LIG    1       -0.599  -2.298  -0.008  0.00  0.00    +0.230 C 
ATOM      4  N   LIG    1        0.855  -2.081  -0.013  0.00  0.00    -0.710 N 
ATOM      5  H   LIG    1        1.527  -2.781  -0.020  0.00  0.00    +0.440 HD
ATOM      6  C   LIG    1        1.104  -0.765  -0.013  0.00  0.00    +0.690 C 
ATOM      7  O   LIG    1        2.229  -0.303  -0.017  0.00  0.00    -0.580 OA
ENDROOT
BRANCH   3   8
ATOM      8  C   LIG    1       -1.020  -3.052   1.228  0.00  0.00    +0.510 C 
ATOM      9  N   LIG    1       -2.247  -3.606   1.293  0.00  0.00    -0.610 N 
ATOM     10  C   LIG    1       -3.190  -3.494   0.169  0.00  0.00    +0.250 C 
ATOM     11  C   LIG    1       -3.718  -4.895  -0.160  0.00  0.00    +0.220 C 
ATOM     12  O   LIG    1       -4.221  -5.501   1.033  0.00  0.00    -0.380 OA
ATOM     13  C   LIG    1       -3.235  -5.702   2.049  0.00  0.00    +0.220 C 
ATOM     14  C   LIG    1       -2.680  -4.347   2.489  0.00  0.00    +0.260 C 
ATOM     15  O   LIG    1       -0.255  -3.159   2.163  0.00  0.00    -0.510 OA
ENDBRANCH   3   8
BRANCH   1  16
ATOM     16  N   LIG    1       -0.016   1.362   0.009  0.00  0.00    -0.570 NA
ATOM     17  H   LIG    1       -0.555   1.720  -0.765  0.00  0.00    +0.340 HD
ATOM     18  H   LIG    1        0.920   1.736   0.003  0.00  0.00    +0.370 HD
ENDBRANCH   1  16
TORSDOF 2
ENDMDL
MODEL      906
REMARK  Name = ZINC000585656243
REMARK                            x       y       z     vdW  Elec       q    Type
REMARK                         _______ _______ _______ _____ _____    ______ ____
ROOT
ATOM      1  N   LIG    1        0.002  -0.004   0.002  0.00  0.00    -0.480 N 
ATOM      2  C   LIG    1       -1.185  -0.872   0.003  0.00  0.00    +0.310 C 
ATOM      3  C   LIG    1       -0.599  -2.298  -0.008  0.00  0.00    +0.230 C 
ATOM      4  N   LIG    1        0.855  -2.081  -0.013  0.00  0.00    -0.710 N 
ATOM      5  H   LIG    1        1.527  -2.781  -0.020  0.00  0.00    +0.440 HD
ATOM      6  C   LIG    1        1.104  -0.765  -0.013  0.00  0.00    +0.690 C 
ATOM      7  O   LIG    1        2.229  -0.303  -0.017  0.00  0.00    -0.580 OA
ENDROOT
BRANCH   3   8
ATOM      8  C   LIG    1       -1.032  -3.038  -1.247  0.00  0.00    +0.510 C 
ATOM      9  N   LIG    1       -2.259  -3.592  -1.307  0.00  0.00    -0.610 N 
ATOM     10  C   LIG    1       -3.196  -3.482  -0.178  0.00  0.00    +0.260 C 
ATOM     11  C   LIG    1       -4.541  -2.978  -0.713  0.00  0.00    +0.220 C 
ATOM     12  O   LIG    1       -4.954  -3.806  -1.803  0.00  0.00    -0.380 OA
ATOM     13  C   LIG    1       -4.071  -3.779  -2.926  0.00  0.00    +0.220 C 
ATOM     14  C   LIG    1       -2.704  -4.320  -2.507  0.00  0.00    +0.260 C 
ATOM     15  O   LIG    1       -0.276  -3.135  -2.190  0.00  0.00    -0.510 OA
ENDBRANCH   3   8
BRANCH   1  16
ATOM     16  N   LIG    1       -0.016   1.362   0.009  0.00  0.00    -0.570 NA
ATOM     17  H   LIG    1       -0.555   1.720  -0.765  0.00  0.00    +0.340 HD
ATOM     18  H   LIG    1        0.920   1.736   0.003  0.00  0.00    +0.370 HD
ENDBRANCH   1  16
TORSDOF 2
ENDMDL
MODEL      907
REMARK  Name = ZINC000252514091
REMARK                            x       y       z     vdW  Elec       q    Type
REMARK                         _______ _______ _______ _____ _____    ______ ____
ROOT
ATOM      1  O   LIG    1       -0.167  -0.078   0.493  0.00  0.00    -0.920 OA
ATOM      2  S   LIG    1       -0.111   1.324   0.269  0.00  0.00    +2.400 S 
ATOM      3  C   LIG    1       -0.490   2.204   1.832  0.00  0.00    -0.330 C 
ATOM      4  C   LIG    1        0.911   2.369   2.475  0.00  0.00    +0.200 C 
ATOM      5  C   LIG    1        1.869   2.779   1.343  0.00  0.00    +0.220 C 
ATOM      6  O   LIG    1       -0.859   1.902  -0.792  0.00  0.00    -0.920 OA
ATOM      7  C   LIG    1        1.636   1.848   0.136  0.00  0.00    -0.370 C 
ENDROOT
BRANCH   5   8
ATOM      8  N   LIG    1        3.259   2.652   1.800  0.00  0.00    -0.510 NA
ATOM      9  C   LIG    1        4.209   3.012   0.722  0.00  0.00    +0.170 C 
ATOM     10  C   LIG    1        5.383   2.024   0.928  0.00  0.00    +0.230 C 
ATOM     11  N   LIG    1        4.679   0.784   1.353  0.00  0.00    -0.700 NA
ATOM     12  H   LIG    1        4.337   0.271   0.554  0.00  0.00    +0.350 HD
ATOM     13  C   LIG    1        3.560   1.262   2.194  0.00  0.00    +0.450 C 
BRANCH  13  14
ATOM     14  O   LIG    1        3.939   1.220   3.572  0.00  0.00    -0.540 OA
ATOM     15  H   LIG    1        4.152   0.334   3.894  0.00  0.00    +0.390 HD
ENDBRANCH  13  14
ENDBRANCH   5   8
BRANCH   4  16
ATOM     16  O   LIG    1        0.873   3.386   3.478  0.00  0.00    -0.530 OA
ATOM     17  H   LIG    1        0.271   3.195   4.209  0.00  0.00    +0.390 HD
ENDBRANCH   4  16
TORSDOF 3
ENDMDL
MODEL      908
REMARK  Name = ZINC000100798431
REMARK                            x       y       z     vdW  Elec       q    Type
REMARK                         _______ _______ _______ _____ _____    ______ ____
ROOT
ATOM      1  C   LIG    1       -0.018   1.461   0.010  0.00  0.00    +0.350 C 
ATOM      2  N   LIG    1        0.002  -0.004   0.002  0.00  0.00    -0.510 N 
ATOM      3  C   LIG    1       -1.189  -0.712   0.004  0.00  0.00    +0.360 A 
ATOM      4  C   LIG    1       -1.142  -2.102  -0.004  0.00  0.00    -0.120 A 
ATOM      5  N   LIG    1       -2.457  -2.531  -0.000  0.00  0.00    -0.440 N 
ATOM      6  C   LIG    1       -3.337  -3.707  -0.003  0.00  0.00    +0.370 C 
ATOM      7  C   LIG    1       -4.734  -3.124   0.008  0.00  0.00    +0.540 C 
ATOM      8  N   LIG    1       -4.581  -1.788   0.015  0.00  0.00    -0.620 N 
ATOM      9  H   LIG    1       -5.315  -1.153   0.022  0.00  0.00    +0.440 HD
ATOM     10  O   LIG    1       -5.780  -3.738   0.010  0.00  0.00    -0.450 OA
ATOM     11  C   LIG    1       -3.245  -1.434   0.010  0.00  0.00    +0.490 A 
ATOM     12  C   LIG    1        0.109  -2.747  -0.014  0.00  0.00    +0.590 A 
ATOM     13  N   LIG    1        1.235  -2.003  -0.016  0.00  0.00    -0.550 N 
ATOM     14  C   LIG    1        2.540  -2.670  -0.026  0.00  0.00    +0.360 C 
ATOM     15  O   LIG    1        0.175  -3.964  -0.022  0.00  0.00    -0.510 OA
ATOM     16  N   LIG    1       -2.473  -0.357   0.012  0.00  0.00    -0.480 NA
ATOM     17  C   LIG    1        1.177  -0.660  -0.013  0.00  0.00    +0.710 A 
ATOM     18  O   LIG    1        2.213  -0.023  -0.014  0.00  0.00    -0.530 OA
ENDROOT
TORSDOF 0
ENDMDL
MODEL      909
REMARK  Name = ZINC000252514090
REMARK                            x       y       z     vdW  Elec       q    Type
REMARK                         _______ _______ _______ _____ _____    ______ ____
ROOT
ATOM      1  O   LIG    1        0.075  -0.047  -0.047  0.00  0.00    -0.920 OA
ATOM      2  S   LIG    1        0.100   1.371  -0.138  0.00  0.00    +2.390 S 
ATOM      3  C   LIG    1       -0.384   2.107   1.476  0.00  0.00    -0.330 C 
ATOM      4  C   LIG    1        0.896   1.953   2.321  0.00  0.00    +0.190 C 
ATOM      5  C   LIG    1        2.152   1.876   1.460  0.00  0.00    +0.160 C 
ATOM      6  O   LIG    1       -0.583   2.032  -1.194  0.00  0.00    -0.930 OA
ATOM      7  C   LIG    1        1.835   1.971  -0.046  0.00  0.00    -0.290 C 
ENDROOT
BRANCH   5   8
ATOM      8  N   LIG    1        3.049   2.980   1.826  0.00  0.00    -0.500 NA
ATOM      9  C   LIG    1        4.164   3.101   0.858  0.00  0.00    +0.170 C 
ATOM     10  C   LIG    1        5.369   3.508   1.742  0.00  0.00    +0.230 C 
ATOM     11  N   LIG    1        5.121   2.730   2.986  0.00  0.00    -0.700 NA
ATOM     12  H   LIG    1        5.460   1.784   2.894  0.00  0.00    +0.350 HD
ATOM     13  C   LIG    1        3.652   2.754   3.154  0.00  0.00    +0.480 C 
BRANCH  13  14
ATOM     14  O   LIG    1        3.283   3.812   4.040  0.00  0.00    -0.530 OA
ATOM     15  H   LIG    1        3.649   3.724   4.931  0.00  0.00    +0.380 HD
ENDBRANCH  13  14
ENDBRANCH   5   8
BRANCH   4  16
ATOM     16  O   LIG    1        1.009   3.074   3.201  0.00  0.00    -0.510 OA
ATOM     17  H   LIG    1        0.277   3.156   3.828  0.00  0.00    +0.380 HD
ENDBRANCH   4  16
TORSDOF 3
ENDMDL
MODEL      910
REMARK  Name = ZINC000033832785
REMARK                            x       y       z     vdW  Elec       q    Type
REMARK                         _______ _______ _______ _____ _____    ______ ____
ROOT
ATOM      1  C   LIG    1        0.059  -4.184  -0.075  0.00  0.00    +0.260 C 
ENDROOT
BRANCH   1   6
ATOM      2  C   LIG    1       -0.018   1.503   0.010  0.00  0.00    +0.140 C 
ATOM      3  C   LIG    1        0.002  -0.004   0.002  0.00  0.00    +0.080 A 
ATOM      4  C   LIG    1        0.006  -0.689  -1.200  0.00  0.00    +0.220 A 
ATOM      5  N   LIG    1        0.024  -2.011  -1.207  0.00  0.00    -0.400 NA
ATOM      6  C   LIG    1        0.038  -2.677  -0.067  0.00  0.00    +0.030 A 
ATOM      7  C   LIG    1        0.034  -1.992   1.136  0.00  0.00    +0.240 A 
ATOM      8  N   LIG    1        0.022  -0.671   1.143  0.00  0.00    -0.440 NA
ENDBRANCH   1   6
BRANCH   1   9
ATOM      9  O   LIG    1        1.284  -4.640  -0.653  0.00  0.00    -0.520 OA
ATOM     10  H   LIG    1        1.422  -4.348  -1.564  0.00  0.00    +0.370 HD
ENDBRANCH   1   9
BRANCH   1  11
ATOM     11  C   LIG    1       -1.119  -4.706  -0.900  0.00  0.00    +0.160 C 
BRANCH  11  12
ATOM     12  O   LIG    1       -1.079  -4.128  -2.206  0.00  0.00    -0.530 OA
ATOM     13  H   LIG    1       -0.273  -4.330  -2.701  0.00  0.00    +0.370 HD
ENDBRANCH  11  12
BRANCH  11  14
ATOM     14  C   LIG    1       -1.028  -6.229  -1.013  0.00  0.00    +0.190 C 
BRANCH  14  15
ATOM     15  O   LIG    1        0.247  -6.592  -1.547  0.00  0.00    -0.530 OA
ATOM     16  H   LIG    1        0.422  -6.229  -2.427  0.00  0.00    +0.360 HD
ENDBRANCH  14  15
BRANCH  14  17
ATOM     17  C   LIG    1       -2.133  -6.739  -1.940  0.00  0.00    +0.160 C 
BRANCH  17  18
ATOM     18  O   LIG    1       -2.122  -8.168  -1.954  0.00  0.00    -0.570 OA
ATOM     19  H   LIG    1       -2.798  -8.561  -2.522  0.00  0.00    +0.380 HD
ENDBRANCH  17  18
ENDBRANCH  14  17
ENDBRANCH  11  14
ENDBRANCH   1  11
TORSDOF 8
ENDMDL
MODEL      911
REMARK  Name = ZINC000521806775
REMARK                            x       y       z     vdW  Elec       q    Type
REMARK                         _______ _______ _______ _____ _____    ______ ____
ROOT
ATOM      1  C1* LIG    1        2.393   1.108  -0.021  0.00  0.00    +0.440 C 
ATOM      2  O4* LIG    1        2.365   0.126  -1.079  0.00  0.00    -0.340 OA
ATOM      3  C4* LIG    1        3.326  -0.886  -0.738  0.00  0.00    +0.150 C 
ATOM      4  C3* LIG    1        3.464  -0.889   0.797  0.00  0.00    +0.140 C 
ATOM      5  C2* LIG    1        2.529   0.255   1.266  0.00  0.00    +0.180 C 
ENDROOT
BRANCH   1  14
ATOM      6  O   LIG    1        0.002  -0.004   0.002  0.00  0.00    -0.550 OA
ATOM      7  C   LIG    1       -0.014   1.212   0.009  0.00  0.00    +0.710 C 
ATOM      8  N   LIG    1       -1.201   1.851   0.029  0.00  0.00    -0.720 N 
ATOM      9  H   LIG    1       -2.033   1.353   0.038  0.00  0.00    +0.430 HD
ATOM     10  C   LIG    1       -1.203   3.323   0.037  0.00  0.00    +0.300 C 
ATOM     11  C   LIG    1        0.142   4.018   0.022  0.00  0.00    -0.030 C 
ATOM     12  C   LIG    1        1.230   3.268   0.003  0.00  0.00    +0.240 C 
ATOM     13  F   LIG    1        0.228   5.367   0.029  0.00  0.00    -0.110 F 
ATOM     14  N   LIG    1        1.147   1.879   0.001  0.00  0.00    -0.540 N 
ENDBRANCH   1  14
BRANCH   4  15
ATOM     15  O3* LIG    1        4.814  -0.619   1.179  0.00  0.00    -0.540 OA
ATOM     16  H3* LIG    1        5.451  -1.274   0.862  0.00  0.00    +0.390 HD
ENDBRANCH   4  15
BRANCH   5  17
ATOM     17  O2* LIG    1        3.132   1.006   2.322  0.00  0.00    -0.540 OA
ATOM     18  H2* LIG    1        3.318   0.488   3.117  0.00  0.00    +0.390 HD
ENDBRANCH   5  17
BRANCH   3  19
ATOM     19  C5* LIG    1        2.837  -2.252  -1.222  0.00  0.00    +0.200 C 
BRANCH  19  20
ATOM     20  O5* LIG    1        2.811  -2.270  -2.651  0.00  0.00    -0.560 OA
ATOM     21  H5* LIG    1        2.510  -3.108  -3.028  0.00  0.00    +0.380 HD
ENDBRANCH  19  20
ENDBRANCH   3  19
TORSDOF 5
ENDMDL
MODEL      912
REMARK  Name = ZINC000007073644
REMARK                            x       y       z     vdW  Elec       q    Type
REMARK                         _______ _______ _______ _____ _____    ______ ____
ROOT
ATOM      1  N   LIG    1       -0.055  -0.114  -2.441  0.00  0.00    -0.690 N 
ATOM      2  H   LIG    1       -0.683  -0.740  -2.833  0.00  0.00    +0.420 HD
ATOM      3  C   LIG    1        0.107   1.109  -2.984  0.00  0.00    +0.510 C 
ATOM      4  O   LIG    1        0.893   1.892  -2.493  0.00  0.00    -0.510 OA
ENDROOT
BRANCH   3   5
ATOM      5  C   LIG    1       -0.682   1.500  -4.192  0.00  0.00    +0.510 C 
ATOM      6  N   LIG    1       -0.520   2.723  -4.735  0.00  0.00    -0.690 N 
ATOM      7  H   LIG    1        0.109   3.349  -4.343  0.00  0.00    +0.420 HD
ATOM      8  O   LIG    1       -1.468   0.717  -4.683  0.00  0.00    -0.520 OA
BRANCH   6   9
ATOM      9  C   LIG    1       -1.293   3.106  -5.919  0.00  0.00    +0.290 C 
BRANCH   9  10
ATOM     10  C   LIG    1       -0.922   4.533  -6.330  0.00  0.00    +0.180 C 
BRANCH  10  11
ATOM     11  O   LIG    1        0.445   4.569  -6.743  0.00  0.00    -0.390 OA
ATOM     12  C   LIG    1        0.895   5.864  -7.150  0.00  0.00    +0.200 C 
ENDBRANCH  10  11
ENDBRANCH   9  10
ENDBRANCH   6   9
ENDBRANCH   3   5
BRANCH   1  13
ATOM     13  CA  LIG    1        0.718  -0.497  -1.257  0.00  0.00    +0.240 C 
BRANCH  13  15
ATOM     14  C   LIG    1       -0.019   1.526   0.010  0.00  0.00    +0.010 C 
ATOM     15  C   LIG    1        0.002  -0.004   0.002  0.00  0.00    +0.010 C 
ENDBRANCH  13  15
BRANCH  13  16
ATOM     16  C   LIG    1        0.849  -2.021  -1.205  0.00  0.00    +0.200 C 
BRANCH  16  17
ATOM     17  O   LIG    1       -0.442  -2.604  -1.018  0.00  0.00    -0.570 OA
ATOM     18  H   LIG    1       -0.435  -3.570  -0.976  0.00  0.00    +0.390 HD
ENDBRANCH  16  17
ENDBRANCH  13  16
ENDBRANCH   1  13
TORSDOF 8
ENDMDL
MODEL      913
REMARK  Name = ZINC000005675134
REMARK                            x       y       z     vdW  Elec       q    Type
REMARK                         _______ _______ _______ _____ _____    ______ ____
ROOT
ATOM      1  C   LIG    1       -2.538  -2.661   0.012  0.00  0.00    +0.300 C 
ATOM      2  C   LIG    1       -3.033  -2.775   1.468  0.00  0.00    -0.300 C 
ATOM      3  S   LIG    1       -3.919  -4.386   1.473  0.00  0.00    +2.390 S 
ATOM      4  C   LIG    1       -2.760  -5.182   0.289  0.00  0.00    -0.320 C 
ATOM      5  O   LIG    1       -5.197  -4.235   0.870  0.00  0.00    -0.910 OA
ATOM      6  O   LIG    1       -3.798  -4.998   2.750  0.00  0.00    -0.930 OA
ATOM      7  C   LIG    1       -2.383  -4.024  -0.652  0.00  0.00    +0.200 C 
ENDROOT
BRANCH   1   9
ATOM      8  C   LIG    1       -1.189  -0.632   0.010  0.00  0.00    +0.650 C 
ATOM      9  N   LIG    1       -1.241  -1.978   0.003  0.00  0.00    -0.700 N 
ATOM     10  H   LIG    1       -0.421  -2.495  -0.007  0.00  0.00    +0.410 HD
ATOM     11  O   LIG    1       -2.217   0.016   0.023  0.00  0.00    -0.560 OA
BRANCH   8  13
ATOM     12  C   LIG    1       -0.018   1.448   0.010  0.00  0.00    +0.310 C 
ATOM     13  O   LIG    1        0.002  -0.004   0.002  0.00  0.00    -0.370 OA
ENDBRANCH   8  13
ENDBRANCH   1   9
BRANCH   7  14
ATOM     14  O   LIG    1       -3.226  -4.069  -1.805  0.00  0.00    -0.550 OA
ATOM     15  H   LIG    1       -3.139  -4.880  -2.324  0.00  0.00    +0.390 HD
ENDBRANCH   7  14
TORSDOF 3
ENDMDL
MODEL      914
REMARK  Name = ZINC000005675132
REMARK                            x       y       z     vdW  Elec       q    Type
REMARK                         _______ _______ _______ _____ _____    ______ ____
ROOT
ATOM      1  C   LIG    1       -2.538  -2.661   0.012  0.00  0.00    +0.290 C 
ATOM      2  C   LIG    1       -3.033  -2.775   1.468  0.00  0.00    -0.300 C 
ATOM      3  S   LIG    1       -3.919  -4.386   1.473  0.00  0.00    +2.390 S 
ATOM      4  C   LIG    1       -2.760  -5.182   0.289  0.00  0.00    -0.330 C 
ATOM      5  O   LIG    1       -5.197  -4.235   0.870  0.00  0.00    -0.920 OA
ATOM      6  O   LIG    1       -3.798  -4.998   2.750  0.00  0.00    -0.920 OA
ATOM      7  C   LIG    1       -2.383  -4.024  -0.652  0.00  0.00    +0.210 C 
ENDROOT
BRANCH   1   9
ATOM      8  C   LIG    1       -1.189  -0.632   0.010  0.00  0.00    +0.650 C 
ATOM      9  N   LIG    1       -1.241  -1.978   0.003  0.00  0.00    -0.690 N 
ATOM     10  H   LIG    1       -0.421  -2.495  -0.007  0.00  0.00    +0.420 HD
ATOM     11  O   LIG    1       -2.217   0.016   0.023  0.00  0.00    -0.570 OA
BRANCH   8  13
ATOM     12  C   LIG    1       -0.018   1.448   0.010  0.00  0.00    +0.300 C 
ATOM     13  O   LIG    1        0.002  -0.004   0.002  0.00  0.00    -0.370 OA
ENDBRANCH   8  13
ENDBRANCH   1   9
BRANCH   7  14
ATOM     14  O   LIG    1       -1.024  -4.185  -1.063  0.00  0.00    -0.550 OA
ATOM     15  H   LIG    1       -0.856  -5.000  -1.555  0.00  0.00    +0.400 HD
ENDBRANCH   7  14
TORSDOF 3
ENDMDL
MODEL      915
REMARK  Name = ZINC000005675137
REMARK                            x       y       z     vdW  Elec       q    Type
REMARK                         _______ _______ _______ _____ _____    ______ ____
ROOT
ATOM      1  C   LIG    1       -2.538  -2.661   0.012  0.00  0.00    +0.300 C 
ATOM      2  C   LIG    1       -3.059  -2.809  -1.441  0.00  0.00    -0.300 C 
ATOM      3  S   LIG    1       -4.319  -4.132  -1.235  0.00  0.00    +2.400 S 
ATOM      4  C   LIG    1       -3.383  -5.062   0.036  0.00  0.00    -0.330 C 
ATOM      5  O   LIG    1       -4.404  -4.900  -2.428  0.00  0.00    -0.920 OA
ATOM      6  O   LIG    1       -5.495  -3.584  -0.655  0.00  0.00    -0.920 OA
ATOM      7  C   LIG    1       -2.380  -4.057   0.618  0.00  0.00    +0.200 C 
ENDROOT
BRANCH   1   9
ATOM      8  C   LIG    1       -1.189  -0.632   0.010  0.00  0.00    +0.650 C 
ATOM      9  N   LIG    1       -1.241  -1.978   0.003  0.00  0.00    -0.690 N 
ATOM     10  H   LIG    1       -0.421  -2.495  -0.007  0.00  0.00    +0.420 HD
ATOM     11  O   LIG    1       -2.217   0.016   0.023  0.00  0.00    -0.570 OA
BRANCH   8  13
ATOM     12  C   LIG    1       -0.018   1.448   0.010  0.00  0.00    +0.310 C 
ATOM     13  O   LIG    1        0.002  -0.004   0.002  0.00  0.00    -0.370 OA
ENDBRANCH   8  13
ENDBRANCH   1   9
BRANCH   7  14
ATOM     14  O   LIG    1       -1.054  -4.525   0.364  0.00  0.00    -0.560 OA
ATOM     15  H   LIG    1       -0.852  -5.378   0.773  0.00  0.00    +0.400 HD
ENDBRANCH   7  14
TORSDOF 3
ENDMDL
MODEL      916
REMARK  Name = ZINC000000372284
REMARK                            x       y       z     vdW  Elec       q    Type
REMARK                         _______ _______ _______ _____ _____    ______ ____
ROOT
ATOM      1  O   LIG    1        0.002  -0.004   0.002  0.00  0.00    -0.450 OA
ATOM      2  C   LIG    1       -0.014   1.208   0.009  0.00  0.00    +0.540 C 
ATOM      3  C   LIG    1       -1.260   2.063   0.032  0.00  0.00    +0.040 C 
ATOM      4  C   LIG    1       -1.907   1.951   1.447  0.00  0.00    +0.260 C 
ATOM      5  C   LIG    1       -3.128   2.873   1.403  0.00  0.00    +0.000 C 
ATOM      6  C   LIG    1       -2.663   4.111   1.419  0.00  0.00    -0.010 C 
ATOM      7  C   LIG    1       -1.137   4.002   1.474  0.00  0.00    +0.260 C 
ATOM      8  O   LIG    1       -0.972   2.748   2.249  0.00  0.00    -0.360 OA
ATOM      9  C   LIG    1       -0.694   3.518   0.031  0.00  0.00    +0.030 C 
ATOM     10  C   LIG    1        0.808   3.350   0.026  0.00  0.00    +0.550 C 
ATOM     11  O   LIG    1        1.613   4.257   0.033  0.00  0.00    -0.430 OA
ATOM     12  N   LIG    1        1.067   1.994   0.003  0.00  0.00    -0.380 N 
ENDROOT
BRANCH  12  13
ATOM     13  N   LIG    1        2.368   1.472  -0.009  0.00  0.00    -0.290 N 
ATOM     14  C   LIG    1        3.527   2.173   0.007  0.00  0.00    +0.390 A 
ATOM     15  N   LIG    1        4.504   1.307  -0.011  0.00  0.00    -0.270 NA
ATOM     16  N   LIG    1        4.025   0.114  -0.037  0.00  0.00    -0.280 NA
ATOM     17  C   LIG    1        2.720   0.165  -0.031  0.00  0.00    +0.410 A 
ENDBRANCH  12  13
TORSDOF 1
ENDMDL
MODEL      917
REMARK  Name = ZINC000101096219
REMARK                            x       y       z     vdW  Elec       q    Type
REMARK                         _______ _______ _______ _____ _____    ______ ____
ROOT
ATOM      1  C   LIG    1        0.836  -2.091  -1.050  0.00  0.00    +0.200 A 
ATOM      2  C   LIG    1        1.176  -2.687  -2.224  0.00  0.00    -0.180 A 
ATOM      3  C   LIG    1        1.042  -4.093  -2.361  0.00  0.00    +0.570 A 
ATOM      4  N   LIG    1        0.581  -4.820  -1.329  0.00  0.00    -0.480 N 
ATOM      5  C   LIG    1        0.343  -6.152  -1.150  0.00  0.00    +0.440 A 
ATOM      6  N   LIG    1       -0.108  -6.303   0.065  0.00  0.00    -0.250 NA
ATOM      7  N   LIG    1       -0.171  -5.165   0.660  0.00  0.00    -0.280 NA
ATOM      8  C   LIG    1        0.240  -4.216  -0.149  0.00  0.00    +0.410 A 
ATOM      9  O   LIG    1        1.343  -4.637  -3.406  0.00  0.00    -0.460 OA
ATOM     10  N   LIG    1        0.372  -2.853  -0.005  0.00  0.00    -0.570 N 
ATOM     11  H   LIG    1        0.134  -2.430   0.834  0.00  0.00    +0.450 HD
ENDROOT
BRANCH   1  12
ATOM     12  C   LIG    1        0.973  -0.623  -0.894  0.00  0.00    +0.510 C 
ATOM     13  O   LIG    1        1.496   0.033  -1.771  0.00  0.00    -0.440 OA
BRANCH  12  15
ATOM     14  C   LIG    1        0.683   1.421   0.302  0.00  0.00    +0.290 C 
ATOM     15  O   LIG    1        0.516  -0.018   0.219  0.00  0.00    -0.350 OA
ENDBRANCH  12  15
ENDBRANCH   1  12
BRANCH   2  16
ATOM     16  C   LIG    1        1.692  -1.859  -3.373  0.00  0.00    +0.140 C 
BRANCH  16  17
ATOM     17  C   LIG    1        3.217  -1.768  -3.290  0.00  0.00    +0.170 C 
BRANCH  17  18
ATOM     18  O   LIG    1        3.707  -0.983  -4.380  0.00  0.00    -0.570 OA
ATOM     19  H   LIG    1        4.669  -0.882  -4.391  0.00  0.00    +0.380 HD
ENDBRANCH  17  18
ENDBRANCH  16  17
ENDBRANCH   2  16
TORSDOF 5
ENDMDL
MODEL      918
REMARK  Name = ZINC000584578040
REMARK                            x       y       z     vdW  Elec       q    Type
REMARK                         _______ _______ _______ _____ _____    ______ ____
ROOT
ATOM      1  C   LIG    1       -2.430  -2.690   0.621  0.00  0.00    +0.250 C 
ENDROOT
BRANCH   1   2
ATOM      2  O   LIG    1       -3.538  -2.322  -0.204  0.00  0.00    -0.520 OA
ATOM      3  H   LIG    1       -3.646  -1.367  -0.315  0.00  0.00    +0.360 HD
ENDBRANCH   1   2
BRANCH   1   4
ATOM      4  CA  LIG    1       -1.136  -2.159   0.001  0.00  0.00    +0.220 C 
BRANCH   4   7
ATOM      5  C   LIG    1       -0.018   1.503   0.010  0.00  0.00    +0.090 C 
ATOM      6  C   LIG    1        0.002  -0.004   0.002  0.00  0.00    +0.510 C 
ATOM      7  N   LIG    1       -1.156  -0.694   0.009  0.00  0.00    -0.720 N 
ATOM      8  H   LIG    1       -2.002  -0.220   0.020  0.00  0.00    +0.400 HD
ATOM      9  O   LIG    1        1.060  -0.596  -0.011  0.00  0.00    -0.540 OA
ENDBRANCH   4   7
BRANCH   4  10
ATOM     10  C   LIG    1       -1.017  -2.659  -1.440  0.00  0.00    +0.170 C 
BRANCH  10  11
ATOM     11  O   LIG    1       -2.190  -2.293  -2.169  0.00  0.00    -0.550 OA
ATOM     12  H   LIG    1       -2.183  -2.579  -3.093  0.00  0.00    +0.380 HD
ENDBRANCH  10  11
ENDBRANCH   4  10
ENDBRANCH   1   4
BRANCH   1  13
ATOM     13  C   LIG    1       -2.612  -2.090   2.016  0.00  0.00    +0.130 C 
BRANCH  13  14
ATOM     14  O   LIG    1       -1.504  -2.457   2.840  0.00  0.00    -0.350 OA
BRANCH  14  15
ATOM     15  C   LIG    1       -1.186  -1.497   3.849  0.00  0.00    +0.370 C 
BRANCH  15  16
ATOM     16  O   LIG    1       -2.153  -1.571   4.899  0.00  0.00    -0.590 OA
ATOM     17  H   LIG    1       -1.999  -0.946   5.620  0.00  0.00    +0.390 HD
ENDBRANCH  15  16
ENDBRANCH  14  15
ENDBRANCH  13  14
BRANCH  13  18
ATOM     18  C   LIG    1       -3.906  -2.621   2.635  0.00  0.00    +0.170 C 
BRANCH  18  19
ATOM     19  O   LIG    1       -3.887  -4.050   2.627  0.00  0.00    -0.560 OA
ATOM     20  H   LIG    1       -4.678  -4.456   3.006  0.00  0.00    +0.380 HD
ENDBRANCH  18  19
ENDBRANCH  13  18
ENDBRANCH   1  13
TORSDOF 11
ENDMDL
MODEL      919
REMARK  Name = ZINC000247924771
REMARK                            x       y       z     vdW  Elec       q    Type
REMARK                         _______ _______ _______ _____ _____    ______ ____
ROOT
ATOM      1  C   LIG    1       -1.136  -2.159   0.001  0.00  0.00    +0.370 C 
ATOM      2  O   LIG    1       -1.260  -2.630  -1.342  0.00  0.00    -0.360 OA
ATOM      3  C   LIG    1       -1.226  -4.053  -1.467  0.00  0.00    +0.190 C 
ATOM      4  C   LIG    1       -2.398  -4.660  -0.691  0.00  0.00    +0.160 C 
ATOM      5  C   LIG    1       -2.312  -4.220   0.774  0.00  0.00    +0.160 C 
ATOM      6  C   LIG    1       -2.304  -2.690   0.837  0.00  0.00    +0.120 C 
ENDROOT
BRANCH   1   9
ATOM      7  C   LIG    1       -0.018   1.503   0.010  0.00  0.00    +0.110 C 
ATOM      8  C   LIG    1        0.002  -0.004   0.002  0.00  0.00    +0.520 C 
ATOM      9  N   LIG    1       -1.156  -0.694   0.009  0.00  0.00    -0.720 N 
ATOM     10  H   LIG    1       -2.002  -0.220   0.020  0.00  0.00    +0.400 HD
ATOM     11  O   LIG    1        1.060  -0.596  -0.011  0.00  0.00    -0.530 OA
ENDBRANCH   1   9
BRANCH   5  12
ATOM     12  O   LIG    1       -3.440  -4.724   1.492  0.00  0.00    -0.550 OA
ATOM     13  H   LIG    1       -3.451  -4.483   2.428  0.00  0.00    +0.390 HD
ENDBRANCH   5  12
BRANCH   4  14
ATOM     14  O   LIG    1       -3.630  -4.207  -1.255  0.00  0.00    -0.530 OA
ATOM     15  H   LIG    1       -4.416  -4.554  -0.811  0.00  0.00    +0.380 HD
ENDBRANCH   4  14
BRANCH   6  16
ATOM     16  O   LIG    1       -3.534  -2.184   0.316  0.00  0.00    -0.520 OA
ATOM     17  H   LIG    1       -3.598  -1.219   0.325  0.00  0.00    +0.370 HD
ENDBRANCH   6  16
BRANCH   3  18
ATOM     18  C   LIG    1       -1.338  -4.438  -2.943  0.00  0.00    +0.220 C 
BRANCH  18  19
ATOM     19  O   LIG    1       -0.186  -3.969  -3.647  0.00  0.00    -0.570 OA
ATOM     20  H   LIG    1       -0.189  -4.179  -4.591  0.00  0.00    +0.380 HD
ENDBRANCH  18  19
ENDBRANCH   3  18
TORSDOF 6
ENDMDL
MODEL      920
REMARK  Name = ZINC000247924774
REMARK                            x       y       z     vdW  Elec       q    Type
REMARK                         _______ _______ _______ _____ _____    ______ ____
ROOT
ATOM      1  C   LIG    1       -1.136  -2.159   0.001  0.00  0.00    +0.380 C 
ATOM      2  O   LIG    1       -1.260  -2.630  -1.342  0.00  0.00    -0.370 OA
ATOM      3  C   LIG    1       -1.226  -4.053  -1.467  0.00  0.00    +0.200 C 
ATOM      4  C   LIG    1       -2.398  -4.660  -0.691  0.00  0.00    +0.170 C 
ATOM      5  C   LIG    1       -2.312  -4.220   0.774  0.00  0.00    +0.170 C 
ATOM      6  C   LIG    1       -2.304  -2.690   0.837  0.00  0.00    +0.120 C 
ENDROOT
BRANCH   1   9
ATOM      7  C   LIG    1       -0.018   1.503   0.010  0.00  0.00    +0.110 C 
ATOM      8  C   LIG    1        0.002  -0.004   0.002  0.00  0.00    +0.520 C 
ATOM      9  N   LIG    1       -1.156  -0.694   0.009  0.00  0.00    -0.720 N 
ATOM     10  H   LIG    1       -2.002  -0.220   0.020  0.00  0.00    +0.400 HD
ATOM     11  O   LIG    1        1.060  -0.596  -0.011  0.00  0.00    -0.530 OA
ENDBRANCH   1   9
BRANCH   5  12
ATOM     12  O   LIG    1       -1.111  -4.730   1.357  0.00  0.00    -0.550 OA
ATOM     13  H   LIG    1       -0.991  -4.490   2.286  0.00  0.00    +0.390 HD
ENDBRANCH   5  12
BRANCH   4  14
ATOM     14  O   LIG    1       -3.630  -4.207  -1.255  0.00  0.00    -0.540 OA
ATOM     15  H   LIG    1       -4.416  -4.554  -0.811  0.00  0.00    +0.380 HD
ENDBRANCH   4  14
BRANCH   6  16
ATOM     16  O   LIG    1       -2.152  -2.268   2.194  0.00  0.00    -0.560 OA
ATOM     17  H   LIG    1       -2.139  -1.308   2.308  0.00  0.00    +0.390 HD
ENDBRANCH   6  16
BRANCH   3  18
ATOM     18  C   LIG    1       -1.338  -4.438  -2.943  0.00  0.00    +0.210 C 
BRANCH  18  19
ATOM     19  O   LIG    1       -0.186  -3.969  -3.647  0.00  0.00    -0.570 OA
ATOM     20  H   LIG    1       -0.189  -4.179  -4.591  0.00  0.00    +0.380 HD
ENDBRANCH  18  19
ENDBRANCH   3  18
TORSDOF 6
ENDMDL
MODEL      921
REMARK  Name = ZINC000000057174
REMARK                            x       y       z     vdW  Elec       q    Type
REMARK                         _______ _______ _______ _____ _____    ______ ____
ROOT
ATOM      1  C   LIG    1        0.002  -0.004   0.002  0.00  0.00    +0.050 A 
ATOM      2  C   LIG    1       -1.155  -0.706   0.004  0.00  0.00    +0.210 A 
ATOM      3  N   LIG    1       -1.114  -2.079  -0.004  0.00  0.00    -0.520 N 
ATOM      4  C   LIG    1        0.064  -2.730  -0.013  0.00  0.00    +0.690 A 
ATOM      5  N   LIG    1        1.228  -2.056  -0.015  0.00  0.00    -0.650 N 
ATOM      6  H   LIG    1        2.067  -2.543  -0.022  0.00  0.00    +0.430 HD
ATOM      7  O   LIG    1        0.075  -3.946  -0.021  0.00  0.00    -0.530 OA
ATOM      8  C   LIG    1        1.236  -0.708  -0.013  0.00  0.00    +0.550 A 
ATOM      9  O   LIG    1        2.291  -0.100  -0.016  0.00  0.00    -0.510 OA
ENDROOT
BRANCH   3  10
ATOM     10  C1* LIG    1       -2.365  -2.842  -0.002  0.00  0.00    +0.440 C 
ATOM     11  C2* LIG    1       -2.494  -3.667  -1.308  0.00  0.00    +0.010 C 
ATOM     12  C3* LIG    1       -3.439  -4.808  -0.844  0.00  0.00    +0.170 C 
ATOM     13  C4* LIG    1       -3.009  -5.013   0.625  0.00  0.00    +0.210 C 
ATOM     14  O4* LIG    1       -2.355  -3.813   1.057  0.00  0.00    -0.350 OA
BRANCH  12  15
ATOM     15  O3* LIG    1       -4.806  -4.401  -0.925  0.00  0.00    -0.560 OA
ATOM     16  H3* LIG    1       -5.098  -4.177  -1.819  0.00  0.00    +0.390 HD
ENDBRANCH  12  15
BRANCH  13  17
ATOM     17  C5* LIG    1       -4.240  -5.276   1.494  0.00  0.00    +0.200 C 
BRANCH  17  18
ATOM     18  O5* LIG    1       -3.825  -5.580   2.828  0.00  0.00    -0.570 OA
ATOM     19  H5* LIG    1       -4.556  -5.758   3.436  0.00  0.00    +0.380 HD
ENDBRANCH  17  18
ENDBRANCH  13  17
ENDBRANCH   3  10
BRANCH   1  20
ATOM     20  N   LIG    1       -0.017   1.403   0.010  0.00  0.00    -0.860 N 
ATOM     21  H   LIG    1       -0.864   1.876   0.016  0.00  0.00    +0.400 HD
ATOM     22  H   LIG    1        0.816   1.899   0.004  0.00  0.00    +0.410 HD
ENDBRANCH   1  20
TORSDOF 5
ENDMDL
MODEL      922
REMARK  Name = ZINC000005082138
REMARK                            x       y       z     vdW  Elec       q    Type
REMARK                         _______ _______ _______ _____ _____    ______ ____
ROOT
ATOM      1  C   LIG    1        0.002  -0.004   0.002  0.00  0.00    +0.450 A 
ATOM      2  C   LIG    1       -1.185  -0.718   0.004  0.00  0.00    -0.250 A 
ATOM      3  C   LIG    1       -1.122  -2.118  -0.004  0.00  0.00    +0.540 A 
ATOM      4  N   LIG    1        0.089  -2.713  -0.013  0.00  0.00    -0.530 N 
ATOM      5  C   LIG    1        1.213  -1.968  -0.014  0.00  0.00    +0.630 A 
ATOM      6  O   LIG    1       -2.143  -2.786  -0.003  0.00  0.00    -0.550 OA
ATOM      7  N   LIG    1        1.171  -0.664  -0.013  0.00  0.00    -0.570 NA
ENDROOT
BRANCH   4   8
ATOM      8  C1* LIG    1        0.183  -4.175  -0.022  0.00  0.00    +0.410 C 
ATOM      9  C2* LIG    1        0.857  -4.662  -1.329  0.00  0.00    +0.000 C 
ATOM     10  C3* LIG    1        1.427  -6.033  -0.874  0.00  0.00    +0.170 C 
ATOM     11  C4* LIG    1        1.805  -5.759   0.597  0.00  0.00    +0.200 C 
ATOM     12  O4* LIG    1        1.044  -4.625   1.036  0.00  0.00    -0.360 OA
BRANCH  10  13
ATOM     13  O3* LIG    1        2.579  -6.386  -1.642  0.00  0.00    -0.550 OA
ATOM     14  H3* LIG    1        2.406  -6.484  -2.589  0.00  0.00    +0.390 HD
ENDBRANCH  10  13
BRANCH  11  15
ATOM     15  C5* LIG    1        1.463  -6.977   1.457  0.00  0.00    +0.190 C 
BRANCH  15  16
ATOM     16  O5* LIG    1        1.921  -6.761   2.793  0.00  0.00    -0.560 OA
ATOM     17  H5* LIG    1        1.738  -7.495   3.396  0.00  0.00    +0.380 HD
ENDBRANCH  15  16
ENDBRANCH  11  15
ENDBRANCH   4   8
BRANCH   1  18
ATOM     18  N   LIG    1       -0.017   1.376   0.010  0.00  0.00    -0.830 N 
ATOM     19  H   LIG    1       -0.863   1.849   0.016  0.00  0.00    +0.420 HD
ATOM     20  H   LIG    1        0.817   1.872   0.004  0.00  0.00    +0.410 HD
ENDBRANCH   1  18
TORSDOF 5
ENDMDL
MODEL      923
REMARK  Name = ZINC000005030594
REMARK                            x       y       z     vdW  Elec       q    Type
REMARK                         _______ _______ _______ _____ _____    ______ ____
ROOT
ATOM      1  C1* LIG    1        0.183  -4.175  -0.022  0.00  0.00    +0.400 C 
ATOM      2  O4* LIG    1       -1.134  -4.763  -0.089  0.00  0.00    -0.290 OA
ATOM      3  C4* LIG    1       -0.927  -6.104  -0.583  0.00  0.00    +0.130 C 
ATOM      4  C3* LIG    1        0.151  -5.958  -1.681  0.00  0.00    +0.140 C 
ATOM      5  C2* LIG    1        0.901  -4.660  -1.301  0.00  0.00    +0.160 C 
ENDROOT
BRANCH   1   9
ATOM      6  C   LIG    1        0.002  -0.004   0.002  0.00  0.00    +0.440 A 
ATOM      7  C   LIG    1       -1.185  -0.718   0.004  0.00  0.00    -0.240 A 
ATOM      8  C   LIG    1       -1.122  -2.118  -0.004  0.00  0.00    +0.530 A 
ATOM      9  N   LIG    1        0.089  -2.713  -0.013  0.00  0.00    -0.530 N 
ATOM     10  C   LIG    1        1.213  -1.968  -0.014  0.00  0.00    +0.630 A 
ATOM     11  O   LIG    1       -2.143  -2.786  -0.003  0.00  0.00    -0.510 OA
ATOM     12  N   LIG    1        1.171  -0.664  -0.013  0.00  0.00    -0.570 NA
BRANCH   6  13
ATOM     13  N   LIG    1       -0.017   1.376   0.010  0.00  0.00    -0.830 N 
ATOM     14  H   LIG    1       -0.863   1.849   0.016  0.00  0.00    +0.420 HD
ATOM     15  H   LIG    1        0.817   1.872   0.004  0.00  0.00    +0.410 HD
ENDBRANCH   6  13
ENDBRANCH   1   9
BRANCH   4  16
ATOM     16  O3* LIG    1       -0.458  -5.832  -2.967  0.00  0.00    -0.550 OA
ATOM     17  H3* LIG    1       -0.989  -6.598  -3.228  0.00  0.00    +0.390 HD
ENDBRANCH   4  16
BRANCH   5  18
ATOM     18  O2* LIG    1        2.278  -4.936  -1.037  0.00  0.00    -0.550 OA
ATOM     19  H2* LIG    1        2.758  -5.299  -1.793  0.00  0.00    +0.400 HD
ENDBRANCH   5  18
BRANCH   3  20
ATOM     20  C5* LIG    1       -2.223  -6.659  -1.177  0.00  0.00    +0.210 C 
BRANCH  20  21
ATOM     21  O5* LIG    1       -3.190  -6.826  -0.138  0.00  0.00    -0.560 OA
ATOM     22  H5* LIG    1       -4.038  -7.176  -0.443  0.00  0.00    +0.380 HD
ENDBRANCH  20  21
ENDBRANCH   3  20
TORSDOF 6
ENDMDL
MODEL      924
REMARK  Name = ZINC000008653312
REMARK                            x       y       z     vdW  Elec       q    Type
REMARK                         _______ _______ _______ _____ _____    ______ ____
ROOT
ATOM      1  C   LIG    1        0.002  -0.004   0.002  0.00  0.00    +0.640 A 
ATOM      2  N   LIG    1       -1.137  -0.656   0.004  0.00  0.00    -0.550 NA
ATOM      3  C   LIG    1       -1.165  -2.003  -0.004  0.00  0.00    +0.340 A 
ATOM      4  C   LIG    1        0.040  -2.712  -0.014  0.00  0.00    -0.190 A 
ATOM      5  N   LIG    1       -0.301  -4.051  -0.020  0.00  0.00    -0.420 N 
ATOM      6  C   LIG    1       -1.649  -4.116  -0.013  0.00  0.00    +0.500 A 
ATOM      7  C   LIG    1        1.251  -2.000  -0.016  0.00  0.00    +0.590 A 
ATOM      8  O   LIG    1        2.320  -2.587  -0.025  0.00  0.00    -0.540 OA
ATOM      9  N   LIG    1       -2.155  -2.912  -0.004  0.00  0.00    -0.490 NA
ATOM     10  N   LIG    1        1.203  -0.649  -0.013  0.00  0.00    -0.650 N 
ATOM     11  H   LIG    1        2.027  -0.137  -0.015  0.00  0.00    +0.420 HD
ENDROOT
BRANCH   1  12
ATOM     12  N   LIG    1       -0.017   1.369   0.010  0.00  0.00    -0.820 N 
ATOM     13  H   LIG    1       -0.863   1.842   0.016  0.00  0.00    +0.430 HD
ATOM     14  H   LIG    1        0.817   1.865   0.004  0.00  0.00    +0.420 HD
ENDBRANCH   1  12
BRANCH   5  15
ATOM     15  C   LIG    1        0.625  -5.185  -0.031  0.00  0.00    +0.300 C 
BRANCH  15  16
ATOM     16  C   LIG    1        1.052  -5.509   1.403  0.00  0.00    +0.200 C 
BRANCH  16  17
ATOM     17  O   LIG    1       -0.082  -5.955   2.148  0.00  0.00    -0.540 OA
ATOM     18  H   LIG    1       -0.502  -6.748   1.789  0.00  0.00    +0.370 HD
ENDBRANCH  16  17
BRANCH  16  19
ATOM     19  C   LIG    1        2.114  -6.610   1.382  0.00  0.00    +0.160 C 
BRANCH  19  20
ATOM     20  O   LIG    1        2.597  -6.831   2.709  0.00  0.00    -0.560 OA
ATOM     21  H   LIG    1        3.274  -7.518   2.772  0.00  0.00    +0.380 HD
ENDBRANCH  19  20
ENDBRANCH  16  19
ENDBRANCH  15  16
ENDBRANCH   5  15
TORSDOF 6
ENDMDL
MODEL      925
REMARK  Name = ZINC000253495438
REMARK                            x       y       z     vdW  Elec       q    Type
REMARK                         _______ _______ _______ _____ _____    ______ ____
ROOT
ATOM      1  O   LIG    1        0.002  -0.004   0.002  0.00  0.00    -0.520 OA
ATOM      2  C   LIG    1       -0.014   1.209   0.009  0.00  0.00    +0.550 C 
ATOM      3  N   LIG    1       -1.191   1.867   0.018  0.00  0.00    -0.600 N 
ATOM      4  C   LIG    1       -1.262   3.342   0.020  0.00  0.00    +0.290 C 
ATOM      5  C   LIG    1       -2.194   3.820   1.134  0.00  0.00    +0.180 C 
ATOM      6  N   LIG    1       -3.485   3.108   1.088  0.00  0.00    -0.670 NA
ATOM      7  H   LIG    1       -4.116   3.457   1.794  0.00  0.00    +0.360 HD
ATOM      8  C   LIG    1       -3.259   1.678   1.249  0.00  0.00    +0.140 C 
ATOM      9  C   LIG    1       -4.524   0.830   1.379  0.00  0.00    -0.300 C 
ATOM     10  S   LIG    1       -4.027  -0.818   0.744  0.00  0.00    +2.380 S 
ATOM     11  C   LIG    1       -2.322  -0.355   0.234  0.00  0.00    -0.250 C 
ATOM     12  O   LIG    1       -4.797  -1.132  -0.408  0.00  0.00    -0.930 OA
ATOM     13  O   LIG    1       -3.962  -1.739   1.824  0.00  0.00    -0.930 OA
ATOM     14  C   LIG    1       -2.473   1.163   0.020  0.00  0.00    +0.260 C 
ENDROOT
BRANCH   2  15
ATOM     15  C   LIG    1        1.280   1.980   0.001  0.00  0.00    -0.070 C 
ATOM     16  C   LIG    1        2.152   1.909   1.256  0.00  0.00    +0.060 C 
ATOM     17  C   LIG    1        2.582   1.175  -0.016  0.00  0.00    +0.080 C 
ENDBRANCH   2  15
TORSDOF 1
ENDMDL
MODEL      926
REMARK  Name = ZINC000253495439
REMARK                            x       y       z     vdW  Elec       q    Type
REMARK                         _______ _______ _______ _____ _____    ______ ____
ROOT
ATOM      1  O   LIG    1        0.002  -0.004   0.018  0.00  0.00    -0.520 OA
ATOM      2  C   LIG    1       -0.014   1.209   0.009  0.00  0.00    +0.550 C 
ATOM      3  N   LIG    1       -1.191   1.867   0.018  0.00  0.00    -0.600 N 
ATOM      4  C   LIG    1       -1.264   3.338   0.129  0.00  0.00    +0.250 C 
ATOM      5  C   LIG    1       -2.172   3.901  -0.965  0.00  0.00    +0.220 C 
ATOM      6  N   LIG    1       -3.462   3.187  -1.004  0.00  0.00    -0.650 NA
ATOM      7  H   LIG    1       -3.968   3.308  -0.139  0.00  0.00    +0.350 HD
ATOM      8  C   LIG    1       -3.228   1.774  -1.281  0.00  0.00    +0.180 C 
ATOM      9  C   LIG    1       -4.512   0.938  -1.419  0.00  0.00    -0.290 C 
ATOM     10  S   LIG    1       -3.863  -0.774  -1.241  0.00  0.00    +2.380 S 
ATOM     11  C   LIG    1       -2.341  -0.337  -0.314  0.00  0.00    -0.260 C 
ATOM     12  O   LIG    1       -3.510  -1.279  -2.521  0.00  0.00    -0.930 OA
ATOM     13  O   LIG    1       -4.729  -1.521  -0.399  0.00  0.00    -0.930 OA
ATOM     14  C   LIG    1       -2.470   1.168  -0.088  0.00  0.00    +0.200 C 
ENDROOT
BRANCH   2  15
ATOM     15  C   LIG    1        1.280   1.980  -0.020  0.00  0.00    -0.070 C 
ATOM     16  C   LIG    1        2.162   1.926   1.230  0.00  0.00    +0.060 C 
ATOM     17  C   LIG    1        2.581   1.175  -0.035  0.00  0.00    +0.080 C 
ENDBRANCH   2  15
TORSDOF 1
ENDMDL
MODEL      927
REMARK  Name = ZINC000000245132
REMARK                            x       y       z     vdW  Elec       q    Type
REMARK                         _______ _______ _______ _____ _____    ______ ____
ROOT
ATOM      1  C   LIG    1       -1.428  -1.951   0.024  0.00  0.00    +0.320 C 
ATOM      2  O   LIG    1       -1.008  -2.487   1.280  0.00  0.00    -0.380 OA
ATOM      3  C   LIG    1       -1.060  -3.913   1.353  0.00  0.00    +0.150 C 
ATOM      4  C   LIG    1       -2.503  -4.381   1.150  0.00  0.00    +0.120 C 
ATOM      5  C   LIG    1       -3.013  -3.866  -0.200  0.00  0.00    +0.180 C 
ATOM      6  C   LIG    1       -2.886  -2.340  -0.233  0.00  0.00    +0.250 C 
ENDROOT
BRANCH   6   7
ATOM      7  N   LIG    1       -3.740  -1.755   0.804  0.00  0.00    -0.690 N 
ATOM      8  H   LIG    1       -3.380  -1.585   1.689  0.00  0.00    +0.410 HD
ATOM      9  C   LIG    1       -5.024  -1.453   0.529  0.00  0.00    +0.520 C 
ATOM     10  O   LIG    1       -5.473  -1.665  -0.578  0.00  0.00    -0.540 OA
ATOM     11  C   LIG    1       -5.902  -0.851   1.596  0.00  0.00    +0.080 C 
ENDBRANCH   6   7
BRANCH   5  12
ATOM     12  O   LIG    1       -4.383  -4.237  -0.366  0.00  0.00    -0.530 OA
ATOM     13  H   LIG    1       -4.537  -5.192  -0.349  0.00  0.00    +0.380 HD
ENDBRANCH   5  12
BRANCH   4  14
ATOM     14  O   LIG    1       -3.324  -3.866   2.200  0.00  0.00    -0.530 OA
ATOM     15  H   LIG    1       -3.055  -4.149   3.084  0.00  0.00    +0.370 HD
ENDBRANCH   4  14
BRANCH   1  16
ATOM     16  O   LIG    1       -1.312  -0.527   0.050  0.00  0.00    -0.350 OA
BRANCH  16  18
ATOM     17  C   LIG    1        0.040   1.476   0.087  0.00  0.00    +0.040 C 
ATOM     18  C   LIG    1        0.037  -0.054   0.059  0.00  0.00    +0.170 C 
ENDBRANCH  16  18
ENDBRANCH   1  16
BRANCH   3  19
ATOM     19  C   LIG    1       -0.563  -4.373   2.725  0.00  0.00    +0.200 C 
BRANCH  19  20
ATOM     20  O   LIG    1        0.819  -4.037   2.868  0.00  0.00    -0.560 OA
ATOM     21  H   LIG    1        1.202  -4.300   3.716  0.00  0.00    +0.390 HD
ENDBRANCH  19  20
ENDBRANCH   3  19
TORSDOF 7
ENDMDL
MODEL      928
REMARK  Name = ZINC000004125098
REMARK                            x       y       z     vdW  Elec       q    Type
REMARK                         _______ _______ _______ _____ _____    ______ ____
ROOT
ATOM      1  N   LIG    1        1.398  -2.528   2.296  0.00  0.00    -0.630 N 
ATOM      2  C   LIG    1        2.685  -2.220   2.638  0.00  0.00    +0.740 C 
ATOM      3  N   LIG    1        2.941  -2.478   3.965  0.00  0.00    -0.720 N 
ATOM      4  H   LIG    1        3.802  -2.564   4.402  0.00  0.00    +0.430 HD
ATOM      5  C   LIG    1        1.663  -2.587   4.538  0.00  0.00    +0.380 C 
ATOM      6  N   LIG    1        0.986  -3.058   5.672  0.00  0.00    -0.720 N 
ATOM      7  H   LIG    1        1.361  -3.263   6.543  0.00  0.00    +0.430 HD
ATOM      8  C   LIG    1       -0.323  -3.165   5.275  0.00  0.00    +0.730 C 
ATOM      9  N   LIG    1       -0.457  -3.088   3.918  0.00  0.00    -0.740 N 
ATOM     10  H   LIG    1       -1.269  -2.912   3.417  0.00  0.00    +0.430 HD
ATOM     11  O   LIG    1       -1.255  -3.311   6.042  0.00  0.00    -0.530 OA
ATOM     12  O   LIG    1        3.506  -1.772   1.861  0.00  0.00    -0.520 OA
ATOM     13  C   LIG    1        0.888  -3.351   3.394  0.00  0.00    +0.440 C 
ENDROOT
BRANCH   1  14
ATOM     14  C   LIG    1        0.679  -2.115   1.088  0.00  0.00    +0.320 C 
ATOM     15  C   LIG    1        1.409  -2.646  -0.147  0.00  0.00    +0.080 C 
BRANCH  14  16
ATOM     16  C   LIG    1        0.618  -0.611   1.029  0.00  0.00    +0.450 C 
ATOM     17  O   LIG    1        1.124   0.049   1.905  0.00  0.00    -0.490 OA
BRANCH  16  19
ATOM     18  C   LIG    1       -0.018   1.448   0.010  0.00  0.00    +0.280 C 
ATOM     19  O   LIG    1        0.002  -0.004   0.002  0.00  0.00    -0.350 OA
ENDBRANCH  16  19
ENDBRANCH  14  16
ENDBRANCH   1  14
TORSDOF 3
ENDMDL
MODEL      929
REMARK  Name = ZINC000013479701
REMARK                            x       y       z     vdW  Elec       q    Type
REMARK                         _______ _______ _______ _____ _____    ______ ____
ROOT
ATOM      1  N   LIG    1        1.398  -2.528   2.296  0.00  0.00    -0.630 N 
ATOM      2  C   LIG    1        2.685  -2.220   2.638  0.00  0.00    +0.730 C 
ATOM      3  N   LIG    1        3.154  -3.023   3.651  0.00  0.00    -0.720 N 
ATOM      4  H   LIG    1        3.925  -2.878   4.222  0.00  0.00    +0.430 HD
ATOM      5  C   LIG    1        2.256  -4.104   3.667  0.00  0.00    +0.390 C 
ATOM      6  N   LIG    1        1.815  -5.175   4.456  0.00  0.00    -0.720 N 
ATOM      7  H   LIG    1        2.268  -5.580   5.212  0.00  0.00    +0.430 HD
ATOM      8  C   LIG    1        0.600  -5.522   3.922  0.00  0.00    +0.730 C 
ATOM      9  N   LIG    1        0.122  -4.568   3.068  0.00  0.00    -0.740 N 
ATOM     10  H   LIG    1       -0.580  -4.671   2.407  0.00  0.00    +0.430 HD
ATOM     11  O   LIG    1        0.015  -6.556   4.179  0.00  0.00    -0.530 OA
ATOM     12  O   LIG    1        3.337  -1.341   2.109  0.00  0.00    -0.510 OA
ATOM     13  C   LIG    1        0.888  -3.351   3.394  0.00  0.00    +0.430 C 
ENDROOT
BRANCH   1  14
ATOM     14  C   LIG    1        0.679  -2.115   1.088  0.00  0.00    +0.320 C 
ATOM     15  C   LIG    1        1.409  -2.646  -0.147  0.00  0.00    +0.080 C 
BRANCH  14  16
ATOM     16  C   LIG    1        0.618  -0.611   1.029  0.00  0.00    +0.440 C 
ATOM     17  O   LIG    1        1.124   0.049   1.905  0.00  0.00    -0.480 OA
BRANCH  16  19
ATOM     18  C   LIG    1       -0.018   1.448   0.010  0.00  0.00    +0.260 C 
ATOM     19  O   LIG    1        0.002  -0.004   0.002  0.00  0.00    -0.360 OA
ENDBRANCH  16  19
ENDBRANCH  14  16
ENDBRANCH   1  14
TORSDOF 3
ENDMDL
MODEL      930
REMARK  Name = ZINC000039417482
REMARK                            x       y       z     vdW  Elec       q    Type
REMARK                         _______ _______ _______ _____ _____    ______ ____
ROOT
ATOM      1  C   LIG    1       -0.019   1.526   0.010  0.00  0.00    +0.060 C 
ATOM      2  C   LIG    1        0.002  -0.004   0.002  0.00  0.00    +0.140 C 
ATOM      3  O   LIG    1        0.734  -0.491  -1.144  0.00  0.00    -0.350 OA
ATOM      4  C   LIG    1        1.116  -1.842  -0.806  0.00  0.00    +0.420 C 
ATOM      5  C   LIG    1        1.531  -1.775   0.681  0.00  0.00    +0.170 C 
ATOM      6  C   LIG    1        0.779  -0.538   1.226  0.00  0.00    +0.140 C 
ENDROOT
BRANCH   4   7
ATOM      7  N   LIG    1        2.244  -2.276  -1.634  0.00  0.00    -0.530 N 
ATOM      8  C   LIG    1        2.154  -3.432  -2.350  0.00  0.00    +0.380 A 
ATOM      9  C   LIG    1        3.203  -3.822  -3.112  0.00  0.00    -0.150 A 
ATOM     10  C   LIG    1        4.362  -3.018  -3.142  0.00  0.00    +0.510 A 
ATOM     11  N   LIG    1        4.404  -1.901  -2.428  0.00  0.00    -0.620 NA
ATOM     12  C   LIG    1        3.361  -1.528  -1.687  0.00  0.00    +0.660 A 
ATOM     13  O   LIG    1        3.424  -0.496  -1.040  0.00  0.00    -0.530 OA
BRANCH  10  14
ATOM     14  N   LIG    1        5.442  -3.391  -3.908  0.00  0.00    -0.810 N 
ATOM     15  H   LIG    1        6.238  -2.836  -3.926  0.00  0.00    +0.410 HD
ATOM     16  H   LIG    1        5.408  -4.208  -4.429  0.00  0.00    +0.420 HD
ENDBRANCH  10  14
ENDBRANCH   4   7
BRANCH   5  17
ATOM     17  O   LIG    1        1.118  -2.957   1.370  0.00  0.00    -0.550 OA
ATOM     18  H   LIG    1        1.353  -2.968   2.308  0.00  0.00    +0.390 HD
ENDBRANCH   5  17
BRANCH   6  19
ATOM     19  O   LIG    1       -0.120  -0.918   2.270  0.00  0.00    -0.550 OA
ATOM     20  H   LIG    1       -0.618  -0.181   2.648  0.00  0.00    +0.390 HD
ENDBRANCH   6  19
TORSDOF 4
ENDMDL
MODEL      931
REMARK  Name = ZINC000251990124
REMARK                            x       y       z     vdW  Elec       q    Type
REMARK                         _______ _______ _______ _____ _____    ______ ____
ROOT
ATOM      1  C   LIG    1        0.776   1.390   0.501  0.00  0.00    +0.070 C 
ATOM      2  C   LIG    1        0.564  -0.119   0.358  0.00  0.00    +0.140 C 
ATOM      3  O   LIG    1       -0.834  -0.396   0.258  0.00  0.00    -0.370 OA
ATOM      4  C   LIG    1       -1.144  -1.781   0.095  0.00  0.00    +0.270 C 
ATOM      5  C   LIG    1       -0.640  -2.562   1.311  0.00  0.00    +0.150 C 
ATOM      6  C   LIG    1        0.868  -2.336   1.464  0.00  0.00    +0.170 C 
ATOM      7  C   LIG    1        1.595  -2.889   0.237  0.00  0.00    +0.040 C 
ATOM      8  C   LIG    1       -1.361  -2.072   2.568  0.00  0.00    +0.060 C 
ATOM      9  C   LIG    1        1.137  -0.833   1.585  0.00  0.00    +0.080 C 
ATOM     10  C   LIG    1        2.646  -0.589   1.661  0.00  0.00    +0.020 C 
ENDROOT
BRANCH   6  11
ATOM     11  O   LIG    1        1.334  -3.003   2.638  0.00  0.00    -0.540 OA
ATOM     12  H   LIG    1        2.283  -2.902   2.797  0.00  0.00    +0.370 HD
ENDBRANCH   6  11
BRANCH   5  13
ATOM     13  O   LIG    1       -0.898  -3.955   1.125  0.00  0.00    -0.530 OA
ATOM     14  H   LIG    1       -1.834  -4.171   1.016  0.00  0.00    +0.370 HD
ENDBRANCH   5  13
BRANCH   4  15
ATOM     15  O   LIG    1       -0.509  -2.276  -1.086  0.00  0.00    -0.550 OA
ATOM     16  H   LIG    1       -0.781  -1.825  -1.897  0.00  0.00    +0.380 HD
ENDBRANCH   4  15
BRANCH   9  17
ATOM     17  O   LIG    1        0.511  -0.329   2.767  0.00  0.00    -0.530 OA
ATOM     18  H   LIG    1        0.641   0.619   2.907  0.00  0.00    +0.370 HD
ENDBRANCH   9  17
BRANCH   4  19
ATOM     19  C   LIG    1       -2.659  -1.954  -0.030  0.00  0.00    +0.200 C 
BRANCH  19  20
ATOM     20  O   LIG    1       -3.130  -1.224  -1.165  0.00  0.00    -0.560 OA
ATOM     21  H   LIG    1       -4.085  -1.288  -1.306  0.00  0.00    +0.390 HD
ENDBRANCH  19  20
ENDBRANCH   4  19
TORSDOF 6
ENDMDL
MODEL      932
REMARK  Name = ZINC000252003919
REMARK                            x       y       z     vdW  Elec       q    Type
REMARK                         _______ _______ _______ _____ _____    ______ ____
ROOT
ATOM      1  C   LIG    1       -0.069   1.751   0.800  0.00  0.00    +0.070 C 
ATOM      2  C   LIG    1       -0.072   0.242   0.542  0.00  0.00    +0.260 C 
ATOM      3  O   LIG    1        0.516  -0.024  -0.733  0.00  0.00    -0.370 OA
ATOM      4  C   LIG    1        0.541  -1.408  -1.087  0.00  0.00    +0.160 C 
ATOM      5  C   LIG    1        1.374  -2.181  -0.061  0.00  0.00    +0.080 C 
ATOM      6  C   LIG    1        0.780  -1.966   1.335  0.00  0.00    +0.170 C 
ATOM      7  C   LIG    1       -0.639  -2.537   1.381  0.00  0.00    +0.040 C 
ATOM      8  C   LIG    1        1.351  -3.672  -0.402  0.00  0.00    +0.030 C 
ATOM      9  C   LIG    1        0.737  -0.464   1.633  0.00  0.00    +0.150 C 
ATOM     10  C   LIG    1        2.161   0.094   1.655  0.00  0.00    +0.060 C 
ENDROOT
BRANCH   6  11
ATOM     11  O   LIG    1        1.593  -2.625   2.307  0.00  0.00    -0.530 OA
ATOM     12  H   LIG    1        1.669  -3.580   2.174  0.00  0.00    +0.370 HD
ENDBRANCH   6  11
BRANCH   5  13
ATOM     13  O   LIG    1        2.722  -1.706  -0.086  0.00  0.00    -0.530 OA
ATOM     14  H   LIG    1        3.159  -1.808  -0.942  0.00  0.00    +0.370 HD
ENDBRANCH   5  13
BRANCH   2  15
ATOM     15  O   LIG    1       -1.417  -0.241   0.557  0.00  0.00    -0.550 OA
ATOM     16  H   LIG    1       -1.988   0.164  -0.111  0.00  0.00    +0.380 HD
ENDBRANCH   2  15
BRANCH   9  17
ATOM     17  O   LIG    1        0.118  -0.247   2.902  0.00  0.00    -0.540 OA
ATOM     18  H   LIG    1        0.057   0.684   3.156  0.00  0.00    +0.370 HD
ENDBRANCH   9  17
BRANCH   4  19
ATOM     19  C   LIG    1        1.163  -1.569  -2.475  0.00  0.00    +0.210 C 
BRANCH  19  20
ATOM     20  O   LIG    1        0.323  -0.945  -3.449  0.00  0.00    -0.560 OA
ATOM     21  H   LIG    1        0.656  -1.009  -4.354  0.00  0.00    +0.380 HD
ENDBRANCH  19  20
ENDBRANCH   4  19
TORSDOF 6
ENDMDL
MODEL      933
REMARK  Name = ZINC000086038891
REMARK                            x       y       z     vdW  Elec       q    Type
REMARK                         _______ _______ _______ _____ _____    ______ ____
ROOT
ATOM      1  C   LIG    1        0.051  -2.753   2.437  0.00  0.00    +0.270 C 
ENDROOT
BRANCH   1   7
ATOM      2  C   LIG    1       -0.018   1.503   0.010  0.00  0.00    +0.150 C 
ATOM      3  C   LIG    1        0.002  -0.004   0.002  0.00  0.00    +0.090 A 
ATOM      4  C   LIG    1        0.006  -0.689  -1.200  0.00  0.00    +0.220 A 
ATOM      5  N   LIG    1        0.024  -2.011  -1.207  0.00  0.00    -0.430 NA
ATOM      6  C   LIG    1        0.038  -2.677  -0.067  0.00  0.00    +0.200 A 
ATOM      7  C   LIG    1        0.034  -1.992   1.136  0.00  0.00    +0.060 A 
ATOM      8  N   LIG    1        0.022  -0.671   1.143  0.00  0.00    -0.420 NA
ENDBRANCH   1   7
BRANCH   1   9
ATOM      9  O   LIG    1       -0.706  -3.956   2.294  0.00  0.00    -0.530 OA
ATOM     10  H   LIG    1       -0.372  -4.553   1.611  0.00  0.00    +0.380 HD
ENDBRANCH   1   9
BRANCH   1  11
ATOM     11  C   LIG    1        1.494  -3.099   2.807  0.00  0.00    +0.160 C 
BRANCH  11  12
ATOM     12  O   LIG    1        2.252  -1.895   2.949  0.00  0.00    -0.540 OA
ATOM     13  H   LIG    1        1.917  -1.299   3.632  0.00  0.00    +0.380 HD
ENDBRANCH  11  12
BRANCH  11  14
ATOM     14  C   LIG    1        1.511  -3.871   4.127  0.00  0.00    +0.200 C 
BRANCH  14  15
ATOM     15  O   LIG    1        0.832  -3.114   5.131  0.00  0.00    -0.540 OA
ATOM     16  H   LIG    1        1.225  -2.247   5.302  0.00  0.00    +0.370 HD
ENDBRANCH  14  15
BRANCH  14  17
ATOM     17  C   LIG    1        2.959  -4.109   4.561  0.00  0.00    +0.170 C 
BRANCH  17  18
ATOM     18  O   LIG    1        2.978  -4.929   5.731  0.00  0.00    -0.560 OA
ATOM     19  H   LIG    1        3.865  -5.121   6.063  0.00  0.00    +0.380 HD
ENDBRANCH  17  18
ENDBRANCH  14  17
ENDBRANCH  11  14
ENDBRANCH   1  11
TORSDOF 8
ENDMDL
MODEL      934
REMARK  Name = ZINC000000388678
REMARK                            x       y       z     vdW  Elec       q    Type
REMARK                         _______ _______ _______ _____ _____    ______ ____
ROOT
ATOM      1  O   LIG    1        0.002  -0.004   0.002  0.00  0.00    -0.490 OA
ATOM      2  C   LIG    1       -0.014   1.214   0.009  0.00  0.00    +0.540 A 
ATOM      3  N   LIG    1       -1.188   1.878   0.029  0.00  0.00    -0.650 N 
ATOM      4  H   LIG    1       -2.022   1.384   0.038  0.00  0.00    +0.440 HD
ATOM      5  C   LIG    1       -1.206   3.224   0.037  0.00  0.00    +0.700 A 
ATOM      6  N   LIG    1       -0.062   3.932   0.024  0.00  0.00    -0.520 N 
ATOM      7  C   LIG    1        1.153   3.295   0.004  0.00  0.00    +0.340 A 
ATOM      8  O   LIG    1       -2.272   3.808   0.055  0.00  0.00    -0.520 OA
ATOM      9  C   LIG    1        1.199   1.946   0.001  0.00  0.00    -0.070 A 
ATOM     10  F   LIG    1        2.387   1.302  -0.018  0.00  0.00    -0.100 F 
ENDROOT
BRANCH   6  11
ATOM     11  C1* LIG    1       -0.114   5.396   0.033  0.00  0.00    +0.440 C 
ATOM     12  C2* LIG    1        0.531   5.949   1.329  0.00  0.00    +0.010 C 
ATOM     13  C3* LIG    1        0.953   7.370   0.865  0.00  0.00    +0.180 C 
ATOM     14  C4* LIG    1        1.330   7.133  -0.613  0.00  0.00    +0.200 C 
ATOM     15  O4* LIG    1        0.678   5.929  -1.040  0.00  0.00    -0.360 OA
BRANCH  13  16
ATOM     16  O3* LIG    1       -0.138   8.285   0.976  0.00  0.00    -0.550 OA
ATOM     17  H3* LIG    1       -0.466   8.399   1.879  0.00  0.00    +0.390 HD
ENDBRANCH  13  16
BRANCH  14  18
ATOM     18  C5* LIG    1        0.853   8.311  -1.465  0.00  0.00    +0.200 C 
BRANCH  18  19
ATOM     19  O5* LIG    1        1.306   8.141  -2.809  0.00  0.00    -0.570 OA
ATOM     20  H5* LIG    1        1.040   8.853  -3.408  0.00  0.00    +0.380 HD
ENDBRANCH  18  19
ENDBRANCH  14  18
ENDBRANCH   6  11
TORSDOF 4
ENDMDL
MODEL      935
REMARK  Name = ZINC000086038887
REMARK                            x       y       z     vdW  Elec       q    Type
REMARK                         _______ _______ _______ _____ _____    ______ ____
ROOT
ATOM      1  C   LIG    1        0.051  -2.753   2.437  0.00  0.00    +0.270 C 
ENDROOT
BRANCH   1   7
ATOM      2  C   LIG    1       -0.018   1.503   0.010  0.00  0.00    +0.140 C 
ATOM      3  C   LIG    1        0.002  -0.004   0.002  0.00  0.00    +0.090 A 
ATOM      4  C   LIG    1        0.006  -0.689  -1.200  0.00  0.00    +0.220 A 
ATOM      5  N   LIG    1        0.024  -2.011  -1.207  0.00  0.00    -0.430 NA
ATOM      6  C   LIG    1        0.038  -2.677  -0.067  0.00  0.00    +0.220 A 
ATOM      7  C   LIG    1        0.034  -1.992   1.136  0.00  0.00    +0.060 A 
ATOM      8  N   LIG    1        0.022  -0.671   1.143  0.00  0.00    -0.430 NA
ENDBRANCH   1   7
BRANCH   1   9
ATOM      9  O   LIG    1       -0.525  -1.947   3.467  0.00  0.00    -0.520 OA
ATOM     10  H   LIG    1       -0.061  -1.112   3.618  0.00  0.00    +0.370 HD
ENDBRANCH   1   9
BRANCH   1  11
ATOM     11  C   LIG    1        1.494  -3.099   2.807  0.00  0.00    +0.170 C 
BRANCH  11  12
ATOM     12  O   LIG    1        2.279  -1.905   2.835  0.00  0.00    -0.550 OA
ATOM     13  H   LIG    1        1.970  -1.247   3.473  0.00  0.00    +0.370 HD
ENDBRANCH  11  12
BRANCH  11  14
ATOM     14  C   LIG    1        1.523  -3.760   4.186  0.00  0.00    +0.200 C 
BRANCH  14  15
ATOM     15  O   LIG    1        0.880  -2.908   5.136  0.00  0.00    -0.530 OA
ATOM     16  H   LIG    1        1.293  -2.039   5.228  0.00  0.00    +0.360 HD
ENDBRANCH  14  15
BRANCH  14  17
ATOM     17  C   LIG    1        2.974  -3.993   4.610  0.00  0.00    +0.150 C 
BRANCH  17  18
ATOM     18  O   LIG    1        3.000  -4.715   5.843  0.00  0.00    -0.570 OA
ATOM     19  H   LIG    1        3.890  -4.899   6.173  0.00  0.00    +0.380 HD
ENDBRANCH  17  18
ENDBRANCH  14  17
ENDBRANCH  11  14
ENDBRANCH   1  11
TORSDOF 8
ENDMDL
MODEL      936
REMARK  Name = ZINC000014638263
REMARK                            x       y       z     vdW  Elec       q    Type
REMARK                         _______ _______ _______ _____ _____    ______ ____
ROOT
ATOM      1  C   LIG    1        0.051  -2.753   2.437  0.00  0.00    +0.270 C 
ENDROOT
BRANCH   1   7
ATOM      2  C   LIG    1       -0.018   1.503   0.010  0.00  0.00    +0.140 C 
ATOM      3  C   LIG    1        0.002  -0.004   0.002  0.00  0.00    +0.090 A 
ATOM      4  C   LIG    1        0.006  -0.689  -1.200  0.00  0.00    +0.220 A 
ATOM      5  N   LIG    1        0.024  -2.011  -1.207  0.00  0.00    -0.430 NA
ATOM      6  C   LIG    1        0.038  -2.677  -0.067  0.00  0.00    +0.220 A 
ATOM      7  C   LIG    1        0.034  -1.992   1.136  0.00  0.00    +0.060 A 
ATOM      8  N   LIG    1        0.022  -0.671   1.143  0.00  0.00    -0.430 NA
ENDBRANCH   1   7
BRANCH   1   9
ATOM      9  O   LIG    1       -0.525  -1.947   3.467  0.00  0.00    -0.530 OA
ATOM     10  H   LIG    1       -0.061  -1.112   3.618  0.00  0.00    +0.380 HD
ENDBRANCH   1   9
BRANCH   1  11
ATOM     11  C   LIG    1        1.494  -3.099   2.807  0.00  0.00    +0.160 C 
BRANCH  11  12
ATOM     12  O   LIG    1        2.279  -1.905   2.835  0.00  0.00    -0.540 OA
ATOM     13  H   LIG    1        1.970  -1.247   3.473  0.00  0.00    +0.380 HD
ENDBRANCH  11  12
BRANCH  11  14
ATOM     14  C   LIG    1        1.523  -3.760   4.186  0.00  0.00    +0.210 C 
BRANCH  14  15
ATOM     15  O   LIG    1        0.739  -4.955   4.158  0.00  0.00    -0.540 OA
ATOM     16  H   LIG    1        1.047  -5.612   3.519  0.00  0.00    +0.370 HD
ENDBRANCH  14  15
BRANCH  14  17
ATOM     17  C   LIG    1        2.966  -4.107   4.556  0.00  0.00    +0.160 C 
BRANCH  17  18
ATOM     18  O   LIG    1        3.007  -4.617   5.890  0.00  0.00    -0.560 OA
ATOM     19  H   LIG    1        3.893  -4.858   6.192  0.00  0.00    +0.380 HD
ENDBRANCH  17  18
ENDBRANCH  14  17
ENDBRANCH  11  14
ENDBRANCH   1  11
TORSDOF 8
ENDMDL
MODEL      937
REMARK  Name = ZINC000000489135
REMARK                            x       y       z     vdW  Elec       q    Type
REMARK                         _______ _______ _______ _____ _____    ______ ____
ROOT
ATOM      1  O   LIG    1        0.002  -0.004   0.002  0.00  0.00    -0.490 OA
ATOM      2  C   LIG    1       -0.014   1.214   0.009  0.00  0.00    +0.540 A 
ATOM      3  N   LIG    1       -1.188   1.878   0.029  0.00  0.00    -0.650 N 
ATOM      4  H   LIG    1       -2.022   1.384   0.038  0.00  0.00    +0.440 HD
ATOM      5  C   LIG    1       -1.206   3.224   0.037  0.00  0.00    +0.700 A 
ATOM      6  N   LIG    1       -0.062   3.932   0.024  0.00  0.00    -0.520 N 
ATOM      7  C   LIG    1        1.153   3.295   0.004  0.00  0.00    +0.340 A 
ATOM      8  O   LIG    1       -2.272   3.808   0.055  0.00  0.00    -0.530 OA
ATOM      9  C   LIG    1        1.199   1.946   0.001  0.00  0.00    -0.070 A 
ATOM     10  F   LIG    1        2.387   1.302  -0.018  0.00  0.00    -0.100 F 
ENDROOT
BRANCH   6  11
ATOM     11  C1* LIG    1       -0.114   5.396   0.033  0.00  0.00    +0.440 C 
ATOM     12  C2* LIG    1        0.531   5.949   1.329  0.00  0.00    +0.010 C 
ATOM     13  C3* LIG    1        0.953   7.370   0.865  0.00  0.00    +0.170 C 
ATOM     14  C4* LIG    1        1.330   7.133  -0.613  0.00  0.00    +0.200 C 
ATOM     15  O4* LIG    1        0.678   5.929  -1.040  0.00  0.00    -0.360 OA
BRANCH  13  16
ATOM     16  O3* LIG    1        2.078   7.836   1.613  0.00  0.00    -0.550 OA
ATOM     17  H3* LIG    1        1.913   7.916   2.562  0.00  0.00    +0.390 HD
ENDBRANCH  13  16
BRANCH  14  18
ATOM     18  C5* LIG    1        0.853   8.311  -1.465  0.00  0.00    +0.200 C 
BRANCH  18  19
ATOM     19  O5* LIG    1        1.306   8.141  -2.809  0.00  0.00    -0.560 OA
ATOM     20  H5* LIG    1        1.040   8.853  -3.408  0.00  0.00    +0.390 HD
ENDBRANCH  18  19
ENDBRANCH  14  18
ENDBRANCH   6  11
TORSDOF 4
ENDMDL
MODEL      938
REMARK  Name = ZINC000062714230
REMARK                            x       y       z     vdW  Elec       q    Type
REMARK                         _______ _______ _______ _____ _____    ______ ____
ROOT
ATOM      1  C   LIG    1       -0.018   1.461   0.010  0.00  0.00    +0.340 C 
ATOM      2  N   LIG    1        0.002  -0.004   0.002  0.00  0.00    -0.540 N 
ATOM      3  C   LIG    1       -1.177  -0.698   0.004  0.00  0.00    +0.390 A 
ATOM      4  C   LIG    1       -1.159  -2.048  -0.004  0.00  0.00    -0.280 A 
ATOM      5  C   LIG    1        0.087  -2.720  -0.014  0.00  0.00    +0.560 A 
ATOM      6  N   LIG    1        1.227  -2.000  -0.016  0.00  0.00    -0.560 N 
ATOM      7  C   LIG    1        2.522  -2.684  -0.026  0.00  0.00    +0.340 C 
ATOM      8  O   LIG    1        0.129  -3.937  -0.022  0.00  0.00    -0.510 OA
ATOM      9  C   LIG    1        1.180  -0.654  -0.013  0.00  0.00    +0.690 A 
ATOM     10  O   LIG    1        2.216  -0.018  -0.015  0.00  0.00    -0.540 OA
ENDROOT
BRANCH   4  11
ATOM     11  C   LIG    1       -2.448  -2.829  -0.003  0.00  0.00    +0.280 C 
BRANCH  11  12
ATOM     12  O   LIG    1       -3.553  -1.924   0.008  0.00  0.00    -0.390 OA
BRANCH  12  13
ATOM     13  C   LIG    1       -4.830  -2.566   0.010  0.00  0.00    +0.190 C 
BRANCH  13  14
ATOM     14  C   LIG    1       -5.934  -1.506   0.021  0.00  0.00    +0.200 C 
BRANCH  14  15
ATOM     15  O   LIG    1       -5.888  -0.759  -1.196  0.00  0.00    -0.570 OA
ATOM     16  H   LIG    1       -6.562  -0.068  -1.258  0.00  0.00    +0.380 HD
ENDBRANCH  14  15
ENDBRANCH  13  14
ENDBRANCH  12  13
ENDBRANCH  11  12
ENDBRANCH   4  11
TORSDOF 5
ENDMDL
MODEL      939
REMARK  Name = ZINC000217402849
REMARK                            x       y       z     vdW  Elec       q    Type
REMARK                         _______ _______ _______ _____ _____    ______ ____
ROOT
ATOM      1  O   LIG    1        0.002  -0.004   0.002  0.00  0.00    -0.540 OA
ATOM      2  C   LIG    1       -0.014   1.209   0.009  0.00  0.00    +0.630 C 
ATOM      3  N   LIG    1        1.143   1.898   0.001  0.00  0.00    -0.600 N 
ENDROOT
BRANCH   3   4
ATOM      4  C   LIG    1        2.422   1.183  -0.015  0.00  0.00    +0.270 C 
ATOM      5  C   LIG    1        2.495   0.262  -1.245  0.00  0.00    +0.060 C 
ATOM      6  C   LIG    1        3.673  -0.715  -1.062  0.00  0.00    -0.310 C 
ATOM      7  S   LIG    1        3.858  -0.904   0.748  0.00  0.00    +2.390 S 
ATOM      8  O   LIG    1        5.119  -0.386   1.149  0.00  0.00    -0.930 OA
ATOM      9  O   LIG    1        3.481  -2.222   1.125  0.00  0.00    -0.930 OA
ATOM     10  C   LIG    1        2.534   0.269   1.232  0.00  0.00    -0.300 C 
ENDBRANCH   3   4
BRANCH   3  11
ATOM     11  C   LIG    1        1.124   3.363   0.009  0.00  0.00    +0.270 C 
BRANCH  11  12
ATOM     12  C   LIG    1        1.131   3.865   1.455  0.00  0.00    +0.200 C 
BRANCH  12  13
ATOM     13  O   LIG    1        2.363   3.501   2.080  0.00  0.00    -0.540 OA
ATOM     14  H   LIG    1        3.147   3.866   1.647  0.00  0.00    +0.370 HD
ENDBRANCH  12  13
BRANCH  12  15
ATOM     15  C   LIG    1        0.984   5.388   1.466  0.00  0.00    +0.150 C 
BRANCH  15  16
ATOM     16  O   LIG    1        0.874   5.846   2.815  0.00  0.00    -0.560 OA
ATOM     17  H   LIG    1        0.778   6.805   2.899  0.00  0.00    +0.380 HD
ENDBRANCH  15  16
ENDBRANCH  12  15
ENDBRANCH  11  12
ENDBRANCH   3  11
TORSDOF 6
ENDMDL
MODEL      940
REMARK  Name = ZINC000001065757
REMARK                            x       y       z     vdW  Elec       q    Type
REMARK                         _______ _______ _______ _____ _____    ______ ____
ROOT
ATOM      1  C   LIG    1       -0.018   1.461   0.010  0.00  0.00    +0.330 C 
ATOM      2  N   LIG    1        0.002  -0.004   0.002  0.00  0.00    -0.630 N 
ATOM      3  C   LIG    1        0.008  -0.772  -1.095  0.00  0.00    +0.710 C 
ATOM      4  N   LIG    1        0.027  -2.086  -0.838  0.00  0.00    -0.620 N 
ATOM      5  C   LIG    1        0.036  -2.298   0.617  0.00  0.00    +0.470 C 
ATOM      6  N   LIG    1       -1.247  -2.876   1.040  0.00  0.00    -0.630 N 
ATOM      7  C   LIG    1       -1.925  -1.933   1.748  0.00  0.00    +0.710 C 
ATOM      8  O   LIG    1       -3.027  -2.132   2.221  0.00  0.00    -0.550 OA
ATOM      9  N   LIG    1       -1.271  -0.772   1.883  0.00  0.00    -0.620 N 
ATOM     10  O   LIG    1       -0.003  -0.318  -2.222  0.00  0.00    -0.560 OA
ATOM     11  C   LIG    1        0.025  -0.860   1.196  0.00  0.00    +0.480 C 
ENDROOT
BRANCH   6  12
ATOM     12  C   LIG    1       -1.734  -4.226   0.746  0.00  0.00    +0.490 C 
BRANCH  12  13
ATOM     13  O   LIG    1       -2.730  -4.162  -0.276  0.00  0.00    -0.580 OA
ATOM     14  H   LIG    1       -3.098  -5.021  -0.522  0.00  0.00    +0.400 HD
ENDBRANCH  12  13
ENDBRANCH   6  12
BRANCH   9  15
ATOM     15  C   LIG    1       -1.771   0.402   2.602  0.00  0.00    +0.490 C 
BRANCH  15  16
ATOM     16  O   LIG    1       -2.776   1.049   1.819  0.00  0.00    -0.580 OA
ATOM     17  H   LIG    1       -3.153   1.837   2.235  0.00  0.00    +0.400 HD
ENDBRANCH  15  16
ENDBRANCH   9  15
BRANCH   4  18
ATOM     18  C   LIG    1        0.037  -3.147  -1.848  0.00  0.00    +0.480 C 
BRANCH  18  19
ATOM     19  O   LIG    1        1.338  -3.233  -2.434  0.00  0.00    -0.590 OA
ATOM     20  H   LIG    1        1.418  -3.916  -3.114  0.00  0.00    +0.400 HD
ENDBRANCH  18  19
ENDBRANCH   4  18
TORSDOF 6
ENDMDL
MODEL      941
REMARK  Name = ZINC000257325943
REMARK                            x       y       z     vdW  Elec       q    Type
REMARK                         _______ _______ _______ _____ _____    ______ ____
ROOT
ATOM      1  C   LIG    1        2.596  -0.153  -0.143  0.00  0.00    +0.570 C 
ATOM      2  N   LIG    1        3.695  -0.915  -0.309  0.00  0.00    -0.590 N 
ATOM      3  O   LIG    1        2.701   1.055  -0.050  0.00  0.00    -0.540 OA
ENDROOT
BRANCH   1   9
ATOM      4  C   LIG    1        0.216  -0.361  -0.917  0.00  0.00    +0.480 A 
ATOM      5  N   LIG    1       -0.966  -0.962  -0.817  0.00  0.00    -0.580 NA
ATOM      6  C   LIG    1       -1.160  -1.930   0.054  0.00  0.00    +0.560 A 
ATOM      7  N   LIG    1       -0.206  -2.350   0.863  0.00  0.00    -0.560 NA
ATOM      8  C   LIG    1        1.002  -1.812   0.835  0.00  0.00    +0.380 A 
ATOM      9  C   LIG    1        1.265  -0.784  -0.075  0.00  0.00    -0.310 A 
BRANCH   4  10
ATOM     10  N   LIG    1        0.414   0.653  -1.831  0.00  0.00    -0.820 N 
ATOM     11  H   LIG    1       -0.290   0.885  -2.457  0.00  0.00    +0.410 HD
ATOM     12  H   LIG    1        1.258   1.130  -1.850  0.00  0.00    +0.420 HD
ENDBRANCH   4  10
ENDBRANCH   1   9
BRANCH   2  13
ATOM     13  C   LIG    1        3.560  -2.353  -0.551  0.00  0.00    +0.300 C 
BRANCH  13  14
ATOM     14  C   LIG    1        3.326  -2.600  -2.043  0.00  0.00    +0.160 C 
BRANCH  14  15
ATOM     15  O   LIG    1        4.484  -2.200  -2.779  0.00  0.00    -0.570 OA
ATOM     16  H   LIG    1        4.407  -2.328  -3.734  0.00  0.00    +0.380 HD
ENDBRANCH  14  15
ENDBRANCH  13  14
ENDBRANCH   2  13
BRANCH   2  17
ATOM     17  C   LIG    1        5.025  -0.304  -0.247  0.00  0.00    +0.320 C 
BRANCH  17  18
ATOM     18  C   LIG    1        5.534  -0.335   1.195  0.00  0.00    +0.170 C 
BRANCH  18  19
ATOM     19  O   LIG    1        5.721  -1.691   1.605  0.00  0.00    -0.570 OA
ATOM     20  H   LIG    1        6.043  -1.787   2.512  0.00  0.00    +0.380 HD
ENDBRANCH  18  19
ENDBRANCH  17  18
ENDBRANCH   2  17
TORSDOF 8
ENDMDL
MODEL      942
REMARK  Name = ZINC000257226818
REMARK                            x       y       z     vdW  Elec       q    Type
REMARK                         _______ _______ _______ _____ _____    ______ ____
ROOT
ATOM      1  N   LIG    1        1.909  -1.167   3.441  0.00  0.00    -0.730 N 
ATOM      2  H   LIG    1        2.707  -1.684   3.249  0.00  0.00    +0.400 HD
ATOM      3  C   LIG    1        1.984  -0.082   4.237  0.00  0.00    +0.530 C 
ATOM      4  O   LIG    1        0.986   0.564   4.477  0.00  0.00    -0.510 OA
ENDROOT
BRANCH   3   5
ATOM      5  C   LIG    1        3.308   0.327   4.830  0.00  0.00    +0.090 C 
ATOM      6  C   LIG    1        4.044   1.244   3.851  0.00  0.00    +0.250 C 
ATOM      7  N   LIG    1        5.317   1.673   4.448  0.00  0.00    -0.680 NA
ATOM      8  H   LIG    1        5.934   0.887   4.586  0.00  0.00    +0.340 HD
ATOM      9  C   LIG    1        5.088   2.391   5.710  0.00  0.00    +0.240 C 
ATOM     10  C   LIG    1        4.351   1.473   6.689  0.00  0.00    +0.150 C 
ATOM     11  N   LIG    1        3.079   1.044   6.092  0.00  0.00    -0.520 NA
ATOM     12  C   LIG    1        2.307   0.222   7.033  0.00  0.00    +0.200 C 
ENDBRANCH   3   5
BRANCH   1  13
ATOM     13  C   LIG    1        0.623  -1.565   2.864  0.00  0.00    +0.400 C 
BRANCH  13  19
ATOM     14  C   LIG    1        1.295  -1.579  -0.214  0.00  0.00    +0.190 C 
ATOM     15  C   LIG    1        1.109  -2.805   0.642  0.00  0.00    +0.080 A 
ATOM     16  N   LIG    1        1.204  -4.032   0.227  0.00  0.00    -0.270 NA
ATOM     17  O   LIG    1        0.960  -4.877   1.340  0.00  0.00    +0.040 OA
ATOM     18  N   LIG    1        0.714  -4.022   2.445  0.00  0.00    -0.250 NA
ATOM     19  C   LIG    1        0.811  -2.798   2.019  0.00  0.00    +0.050 A 
ENDBRANCH  13  19
ENDBRANCH   1  13
TORSDOF 3
ENDMDL
MODEL      943
REMARK  Name = ZINC000257226819
REMARK                            x       y       z     vdW  Elec       q    Type
REMARK                         _______ _______ _______ _____ _____    ______ ____
ROOT
ATOM      1  N   LIG    1        1.202   0.210   3.086  0.00  0.00    -0.730 N 
ATOM      2  H   LIG    1        1.875   0.326   2.397  0.00  0.00    +0.400 HD
ATOM      3  C   LIG    1        1.558   0.218   4.385  0.00  0.00    +0.520 C 
ATOM      4  O   LIG    1        0.716   0.072   5.246  0.00  0.00    -0.510 OA
ENDROOT
BRANCH   3   5
ATOM      5  C   LIG    1        3.003   0.408   4.769  0.00  0.00    +0.140 C 
ATOM      6  C   LIG    1        3.702  -0.952   4.817  0.00  0.00    +0.200 C 
ATOM      7  N   LIG    1        5.100  -0.767   5.230  0.00  0.00    -0.690 NA
ATOM      8  H   LIG    1        5.599  -1.644   5.220  0.00  0.00    +0.350 HD
ATOM      9  C   LIG    1        5.176  -0.134   6.554  0.00  0.00    +0.190 C 
ATOM     10  C   LIG    1        4.477   1.226   6.506  0.00  0.00    +0.200 C 
ATOM     11  N   LIG    1        3.079   1.042   6.093  0.00  0.00    -0.520 NA
ATOM     12  C   LIG    1        2.353   2.319   6.109  0.00  0.00    +0.210 C 
ENDBRANCH   3   5
BRANCH   1  13
ATOM     13  C   LIG    1       -0.203   0.025   2.712  0.00  0.00    +0.400 C 
BRANCH  13  19
ATOM     14  C   LIG    1       -0.734   2.604   0.981  0.00  0.00    +0.190 C 
ATOM     15  C   LIG    1       -0.571   1.208   0.437  0.00  0.00    +0.080 A 
ATOM     16  N   LIG    1       -0.625   0.881  -0.820  0.00  0.00    -0.270 NA
ATOM     17  O   LIG    1       -0.424  -0.521  -0.902  0.00  0.00    +0.040 OA
ATOM     18  N   LIG    1       -0.248  -0.980   0.429  0.00  0.00    -0.250 NA
ATOM     19  C   LIG    1       -0.331   0.055   1.211  0.00  0.00    +0.050 A 
ENDBRANCH  13  19
ENDBRANCH   1  13
TORSDOF 3
ENDMDL
MODEL      944
REMARK  Name = ZINC000004226943
REMARK                            x       y       z     vdW  Elec       q    Type
REMARK                         _______ _______ _______ _____ _____    ______ ____
ROOT
ATOM      1  O   LIG    1        0.539   0.353   0.727  0.00  0.00    -0.940 OA
ATOM      2  S   LIG    1        0.435   1.746   0.467  0.00  0.00    +2.400 S 
ATOM      3  C   LIG    1        0.332   2.664   2.057  0.00  0.00    -0.360 C 
ATOM      4  C   LIG    1        1.021   4.001   1.677  0.00  0.00    +0.210 C 
ATOM      5  C   LIG    1        2.251   3.692   0.820  0.00  0.00    +0.210 C 
ATOM      6  O   LIG    1       -0.553   2.230  -0.433  0.00  0.00    -0.880 OA
ATOM      7  C   LIG    1        2.076   2.409  -0.006  0.00  0.00    -0.340 C 
ENDROOT
BRANCH   4   8
ATOM      8  O   LIG    1        1.426   4.687   2.864  0.00  0.00    -0.540 OA
ATOM      9  H   LIG    1        0.694   4.923   3.450  0.00  0.00    +0.390 HD
ENDBRANCH   4   8
BRANCH   5  10
ATOM     10  N   LIG    1        2.489   4.816  -0.094  0.00  0.00    -0.500 NA
BRANCH  10  11
ATOM     11  C   LIG    1        1.327   5.042  -0.965  0.00  0.00    +0.230 C 
BRANCH  11  12
ATOM     12  C   LIG    1        1.406   4.107  -2.173  0.00  0.00    +0.120 C 
BRANCH  12  13
ATOM     13  O   LIG    1        0.498   3.018  -1.993  0.00  0.00    -0.530 OA
ATOM     14  H   LIG    1        0.539   2.352  -2.693  0.00  0.00    +0.370 HD
ENDBRANCH  12  13
ENDBRANCH  11  12
ENDBRANCH  10  11
BRANCH  10  15
ATOM     15  C   LIG    1        3.707   4.601  -0.887  0.00  0.00    +0.190 C 
BRANCH  15  16
ATOM     16  C   LIG    1        3.914   5.784  -1.834  0.00  0.00    +0.170 C 
BRANCH  16  17
ATOM     17  O   LIG    1        4.172   6.965  -1.072  0.00  0.00    -0.560 OA
ATOM     18  H   LIG    1        4.314   7.757  -1.609  0.00  0.00    +0.380 HD
ENDBRANCH  16  17
ENDBRANCH  15  16
ENDBRANCH  10  15
ENDBRANCH   5  10
TORSDOF 8
ENDMDL
MODEL      945
REMARK  Name = ZINC000004226944
REMARK                            x       y       z     vdW  Elec       q    Type
REMARK                         _______ _______ _______ _____ _____    ______ ____
ROOT
ATOM      1  O   LIG    1        1.831  -0.312  -0.042  0.00  0.00    -0.930 OA
ATOM      2  S   LIG    1        1.278   0.996  -0.084  0.00  0.00    +2.390 S 
ATOM      3  C   LIG    1        0.725   1.493   1.597  0.00  0.00    -0.330 C 
ATOM      4  C   LIG    1        2.047   1.874   2.294  0.00  0.00    +0.200 C 
ATOM      5  C   LIG    1        3.123   2.297   1.301  0.00  0.00    +0.210 C 
ATOM      6  O   LIG    1        0.273   1.317  -1.037  0.00  0.00    -0.930 OA
ATOM      7  C   LIG    1        2.628   2.241  -0.158  0.00  0.00    -0.350 C 
ENDROOT
BRANCH   4   8
ATOM      8  O   LIG    1        1.802   2.955   3.196  0.00  0.00    -0.520 OA
ATOM      9  H   LIG    1        1.174   2.744   3.900  0.00  0.00    +0.370 HD
ENDBRANCH   4   8
BRANCH   5  10
ATOM     10  N   LIG    1        3.541   3.672   1.608  0.00  0.00    -0.490 NA
BRANCH  10  11
ATOM     11  C   LIG    1        2.396   4.591   1.563  0.00  0.00    +0.260 C 
BRANCH  11  12
ATOM     12  C   LIG    1        2.025   4.873   0.106  0.00  0.00    +0.120 C 
BRANCH  12  13
ATOM     13  O   LIG    1        0.807   4.197  -0.215  0.00  0.00    -0.570 OA
ATOM     14  H   LIG    1        0.536   4.291  -1.138  0.00  0.00    +0.390 HD
ENDBRANCH  12  13
ENDBRANCH  11  12
ENDBRANCH  10  11
BRANCH  10  15
ATOM     15  C   LIG    1        4.607   4.113   0.699  0.00  0.00    +0.190 C 
BRANCH  15  16
ATOM     16  C   LIG    1        5.066   5.518   1.095  0.00  0.00    +0.180 C 
BRANCH  16  17
ATOM     17  O   LIG    1        5.709   5.466   2.370  0.00  0.00    -0.560 OA
ATOM     18  H   LIG    1        6.027   6.323   2.686  0.00  0.00    +0.380 HD
ENDBRANCH  16  17
ENDBRANCH  15  16
ENDBRANCH  10  15
ENDBRANCH   5  10
TORSDOF 8
ENDMDL
MODEL      946
REMARK  Name = ZINC000217403001
REMARK                            x       y       z     vdW  Elec       q    Type
REMARK                         _______ _______ _______ _____ _____    ______ ____
ROOT
ATOM      1  O   LIG    1        0.002  -0.004   0.002  0.00  0.00    -0.530 OA
ATOM      2  C   LIG    1       -0.014   1.209   0.009  0.00  0.00    +0.630 C 
ATOM      3  N   LIG    1        1.143   1.898   0.001  0.00  0.00    -0.610 N 
ENDROOT
BRANCH   3   4
ATOM      4  C   LIG    1        2.422   1.183  -0.015  0.00  0.00    +0.270 C 
ATOM      5  C   LIG    1        2.520   0.270   1.220  0.00  0.00    +0.080 C 
ATOM      6  C   LIG    1        3.716  -0.685   0.972  0.00  0.00    -0.300 C 
ATOM      7  S   LIG    1        3.498  -1.148  -0.788  0.00  0.00    +2.390 S 
ATOM      8  O   LIG    1        2.691  -2.315  -0.871  0.00  0.00    -0.930 OA
ATOM      9  O   LIG    1        4.757  -1.111  -1.444  0.00  0.00    -0.940 OA
ATOM     10  C   LIG    1        2.511   0.309  -1.281  0.00  0.00    -0.330 C 
ENDBRANCH   3   4
BRANCH   3  11
ATOM     11  C   LIG    1        1.124   3.363   0.009  0.00  0.00    +0.270 C 
BRANCH  11  12
ATOM     12  C   LIG    1        1.131   3.865   1.455  0.00  0.00    +0.200 C 
BRANCH  12  13
ATOM     13  O   LIG    1        2.363   3.501   2.080  0.00  0.00    -0.540 OA
ATOM     14  H   LIG    1        3.147   3.866   1.647  0.00  0.00    +0.370 HD
ENDBRANCH  12  13
BRANCH  12  15
ATOM     15  C   LIG    1        0.984   5.388   1.466  0.00  0.00    +0.150 C 
BRANCH  15  16
ATOM     16  O   LIG    1        0.874   5.846   2.815  0.00  0.00    -0.560 OA
ATOM     17  H   LIG    1        0.778   6.805   2.899  0.00  0.00    +0.380 HD
ENDBRANCH  15  16
ENDBRANCH  12  15
ENDBRANCH  11  12
ENDBRANCH   3  11
TORSDOF 6
ENDMDL
MODEL      947
REMARK  Name = ZINC000001490608
REMARK                            x       y       z     vdW  Elec       q    Type
REMARK                         _______ _______ _______ _____ _____    ______ ____
ROOT
ATOM      1  N   LIG    1       -2.807   1.334  -0.016  0.00  0.00    -0.540 N 
ATOM      2  C   LIG    1       -3.482   2.526  -0.080  0.00  0.00    +0.170 A 
ATOM      3  C   LIG    1       -4.100   2.878  -1.226  0.00  0.00    -0.250 A 
ATOM      4  C   LIG    1       -4.036   2.005  -2.341  0.00  0.00    +0.560 A 
ATOM      5  N   LIG    1       -3.361   0.843  -2.236  0.00  0.00    -0.650 N 
ATOM      6  H   LIG    1       -3.314   0.241  -2.995  0.00  0.00    +0.440 HD
ATOM      7  O   LIG    1       -4.586   2.303  -3.386  0.00  0.00    -0.500 OA
ATOM      8  C   LIG    1       -4.776   4.222  -1.068  0.00  0.00    +0.130 C 
ATOM      9  C   LIG    1       -4.857   4.452   0.457  0.00  0.00    +0.050 C 
ATOM     10  C   LIG    1       -3.678   3.598   0.971  0.00  0.00    +0.120 C 
ATOM     11  C   LIG    1       -2.749   0.518  -1.083  0.00  0.00    +0.690 A 
ATOM     12  O   LIG    1       -2.144  -0.534  -1.001  0.00  0.00    -0.540 OA
ENDROOT
BRANCH   1  13
ATOM     13  C   LIG    1       -2.135   0.949   1.227  0.00  0.00    +0.370 C 
BRANCH  13  14
ATOM     14  CA  LIG    1       -0.699   1.479   1.216  0.00  0.00    +0.080 C 
BRANCH  14  15
ATOM     15  N   LIG    1       -0.012   1.005   0.008  0.00  0.00    -0.610 N 
ATOM     16  H1  LIG    1       -0.500   1.339  -0.810  0.00  0.00    +0.400 HD
ATOM     17  H2  LIG    1        0.935   1.354   0.000  0.00  0.00    +0.440 HD
ATOM     18  H3  LIG    1        0.002  -0.004   0.002  0.00  0.00    +0.440 HD
ENDBRANCH  14  15
BRANCH  14  19
ATOM     19  C   LIG    1        0.030   0.979   2.437  0.00  0.00    +0.500 C 
ATOM     20  OXT LIG    1        0.915   0.149   2.322  0.00  0.00    -0.660 OA
ATOM     21  O   LIG    1       -0.266   1.406   3.540  0.00  0.00    -0.630 OA
ENDBRANCH  14  19
ENDBRANCH  13  14
ENDBRANCH   1  13
TORSDOF 4
ENDMDL
MODEL      948
REMARK  Name = ZINC000001564757
REMARK                            x       y       z     vdW  Elec       q    Type
REMARK                         _______ _______ _______ _____ _____    ______ ____
ROOT
ATOM      1  C1* LIG    1        2.406   1.113  -0.006  0.00  0.00    +0.460 C 
ATOM      2  O4* LIG    1        2.349   0.057  -0.990  0.00  0.00    -0.330 OA
ATOM      3  C4* LIG    1        1.565  -0.990  -0.379  0.00  0.00    +0.120 C 
ATOM      4  C3* LIG    1        2.036  -1.030   1.092  0.00  0.00    +0.120 C 
ATOM      5  C2* LIG    1        2.604   0.388   1.343  0.00  0.00    +0.170 C 
ENDROOT
BRANCH   1  13
ATOM      6  O   LIG    1        2.049   3.364   1.348  0.00  0.00    -0.590 OA
ATOM      7  C   LIG    1        1.074   3.003   0.717  0.00  0.00    +0.710 C 
ATOM      8  N   LIG    1       -0.035   3.755   0.760  0.00  0.00    -0.730 N 
ATOM      9  H   LIG    1       -0.036   4.571   1.285  0.00  0.00    +0.420 HD
ATOM     10  C   LIG    1       -1.245   3.369   0.033  0.00  0.00    +0.270 C 
ATOM     11  C   LIG    1       -0.850   2.564  -1.209  0.00  0.00    +0.030 C 
ATOM     12  C   LIG    1        0.010   1.375  -0.766  0.00  0.00    +0.260 C 
ATOM     13  N   LIG    1        1.153   1.872   0.001  0.00  0.00    -0.630 N 
ENDBRANCH   1  13
BRANCH   4  14
ATOM     14  O3* LIG    1        3.054  -2.017   1.264  0.00  0.00    -0.540 OA
ATOM     15  H3* LIG    1        2.767  -2.918   1.062  0.00  0.00    +0.380 HD
ENDBRANCH   4  14
BRANCH   5  16
ATOM     16  O2* LIG    1        3.991   0.319   1.681  0.00  0.00    -0.530 OA
ATOM     17  H2* LIG    1        4.175  -0.179   2.489  0.00  0.00    +0.390 HD
ENDBRANCH   5  16
BRANCH   3  18
ATOM     18  C5* LIG    1        1.838  -2.330  -1.065  0.00  0.00    +0.210 C 
BRANCH  18  19
ATOM     19  O5* LIG    1        1.354  -2.285  -2.408  0.00  0.00    -0.560 OA
ATOM     20  H5* LIG    1        1.495  -3.103  -2.905  0.00  0.00    +0.390 HD
ENDBRANCH  18  19
ENDBRANCH   3  18
TORSDOF 5
ENDMDL
MODEL      949
REMARK  Name = ZINC000001562565
REMARK                            x       y       z     vdW  Elec       q    Type
REMARK                         _______ _______ _______ _____ _____    ______ ____
ROOT
ATOM      1  C1*   U A  1        0.071   5.388   0.412  0.00  0.00    +0.450 C 
ATOM      2  O4*   U A  1        0.553   5.864  -0.863  0.00  0.00    -0.350 OA
ATOM      3  C4*   U A  1        1.024   7.206  -0.660  0.00  0.00    +0.150 C 
ATOM      4  C3*   U A  1        1.445   7.325   0.818  0.00  0.00    +0.120 C 
ATOM      5  C2*   U A  1        1.110   5.938   1.423  0.00  0.00    +0.170 C 
ENDROOT
BRANCH   1  10
ATOM      6  O4    U A  1        0.002  -0.004   0.002  0.00  0.00    -0.500 OA
ATOM      7  C4    U A  1       -0.014   1.208   0.009  0.00  0.00    +0.520 C 
ATOM      8  C5    U A  1       -1.330   1.945   0.032  0.00  0.00    +0.090 C 
ATOM      9  C6    U A  1       -1.174   3.228   0.850  0.00  0.00    +0.310 C 
ATOM     10  N1    U A  1        0.048   3.923   0.441  0.00  0.00    -0.610 N 
ATOM     11  C2    U A  1        1.149   3.237   0.093  0.00  0.00    +0.720 C 
ATOM     12  O2    U A  1        2.176   3.843  -0.141  0.00  0.00    -0.540 OA
ATOM     13  N3    U A  1        1.141   1.897   0.001  0.00  0.00    -0.680 N 
ATOM     14  H3    U A  1        1.982   1.419  -0.079  0.00  0.00    +0.430 HD
ENDBRANCH   1  10
BRANCH   4  15
ATOM     15  O3*   U A  1        0.694   8.350   1.472  0.00  0.00    -0.540 OA
ATOM     16  H3*   U A  1        0.822   9.231   1.095  0.00  0.00    +0.380 HD
ENDBRANCH   4  15
BRANCH   5  17
ATOM     17  O2*   U A  1        0.539   6.074   2.726  0.00  0.00    -0.540 OA
ATOM     18  H2*   U A  1        1.124   6.497   3.369  0.00  0.00    +0.390 HD
ENDBRANCH   5  17
BRANCH   3  19
ATOM     19  C5*   U A  1        2.223   7.480  -1.570  0.00  0.00    +0.200 C 
BRANCH  19  20
ATOM     20  O5*   U A  1        1.798   7.468  -2.934  0.00  0.00    -0.560 OA
ATOM     21  H5*   U A  1        2.509   7.635  -3.569  0.00  0.00    +0.380 HD
ENDBRANCH  19  20
ENDBRANCH   3  19
TORSDOF 5
ENDMDL
MODEL      950
REMARK  Name = ZINC000001562669
REMARK                            x       y       z     vdW  Elec       q    Type
REMARK                         _______ _______ _______ _____ _____    ______ ____
ROOT
ATOM      1  C   LIG    1        0.141   1.315   0.265  0.00  0.00    +0.070 C 
ATOM      2  C   LIG    1        0.114  -0.197   0.035  0.00  0.00    -0.040 C 
ATOM      3  C   LIG    1        0.627  -0.513  -1.374  0.00  0.00    +0.020 C 
ATOM      4  C   LIG    1        0.703  -2.007  -1.549  0.00  0.00    +0.550 C 
ATOM      5  N   LIG    1        0.926  -2.820  -0.505  0.00  0.00    -0.660 N 
ATOM      6  H   LIG    1        0.976  -3.776  -0.662  0.00  0.00    +0.420 HD
ATOM      7  C   LIG    1        1.081  -2.362   0.746  0.00  0.00    +0.550 C 
ATOM      8  O   LIG    1        1.270  -3.151   1.647  0.00  0.00    -0.470 OA
ATOM      9  O   LIG    1        0.562  -2.484  -2.655  0.00  0.00    -0.490 OA
ATOM     10  C   LIG    1       -1.317  -0.715   0.193  0.00  0.00    +0.060 C 
ATOM     11  C   LIG    1        1.026  -0.889   1.053  0.00  0.00    +0.010 C 
ENDROOT
BRANCH   3  12
ATOM     12  C   LIG    1        1.996   0.088  -1.558  0.00  0.00    +0.530 C 
ATOM     13  O   LIG    1        2.982  -0.535  -1.223  0.00  0.00    -0.530 OA
ATOM     14  N   LIG    1        2.126   1.317  -2.095  0.00  0.00    -0.840 N 
ATOM     15  H   LIG    1        3.008   1.704  -2.213  0.00  0.00    +0.410 HD
ATOM     16  H   LIG    1        1.338   1.815  -2.363  0.00  0.00    +0.410 HD
ENDBRANCH   3  12
BRANCH  11  17
ATOM     17  C   LIG    1        0.480  -0.684   2.442  0.00  0.00    +0.540 C 
ATOM     18  O   LIG    1       -0.373  -1.430   2.875  0.00  0.00    -0.510 OA
ATOM     19  N   LIG    1        0.939   0.329   3.204  0.00  0.00    -0.850 N 
ATOM     20  H   LIG    1        0.587   0.461   4.098  0.00  0.00    +0.410 HD
ATOM     21  H   LIG    1        1.621   0.925   2.858  0.00  0.00    +0.400 HD
ENDBRANCH  11  17
TORSDOF 2
ENDMDL
MODEL      951
REMARK  Name = ZINC000001568873
REMARK                            x       y       z     vdW  Elec       q    Type
REMARK                         _______ _______ _______ _____ _____    ______ ____
ROOT
ATOM      1  C   LIG    1       -0.018   1.461   0.010  0.00  0.00    +0.360 C 
ATOM      2  N   LIG    1        0.002  -0.004   0.002  0.00  0.00    -0.570 N 
ATOM      3  C   LIG    1        0.007  -0.751  -1.110  0.00  0.00    +0.710 C 
ATOM      4  N   LIG    1        0.027  -2.073  -0.841  0.00  0.00    -0.710 N 
ATOM      5  H   LIG    1        0.033  -2.799  -1.484  0.00  0.00    +0.450 HD
ATOM      6  C   LIG    1        0.035  -2.191   0.617  0.00  0.00    +0.290 C 
ATOM      7  C   LIG    1       -1.147  -2.974   1.124  0.00  0.00    +0.540 C 
ATOM      8  N   LIG    1       -0.618  -4.013   1.806  0.00  0.00    -0.570 N 
ATOM      9  C   LIG    1        0.722  -3.981   1.791  0.00  0.00    +0.710 C 
ATOM     10  O   LIG    1        1.424  -4.809   2.335  0.00  0.00    -0.510 OA
ATOM     11  C   LIG    1       -1.409  -5.047   2.477  0.00  0.00    +0.360 C 
ATOM     12  O   LIG    1       -2.322  -2.725   0.956  0.00  0.00    -0.430 OA
ATOM     13  N   LIG    1        1.202  -2.925   1.103  0.00  0.00    -0.610 N 
ATOM     14  C   LIG    1        2.610  -2.583   0.885  0.00  0.00    +0.370 C 
ATOM     15  O   LIG    1       -0.003  -0.290  -2.234  0.00  0.00    -0.510 OA
ATOM     16  C   LIG    1        0.023  -0.770   1.115  0.00  0.00    +0.540 C 
ATOM     17  O   LIG    1        0.025  -0.394   2.268  0.00  0.00    -0.430 OA
ENDROOT
TORSDOF 0
ENDMDL
MODEL      952
REMARK  Name = ZINC000001586281
REMARK                            x       y       z     vdW  Elec       q    Type
REMARK                         _______ _______ _______ _____ _____    ______ ____
ROOT
ATOM      1  C   LIG    1       -1.244  -2.135   0.003  0.00  0.00    +0.130 C 
ATOM      2  C   LIG    1       -0.772  -2.665   1.333  0.00  0.00    +0.510 C 
ATOM      3  N   LIG    1       -1.638  -2.778   2.357  0.00  0.00    -0.660 N 
ATOM      4  H   LIG    1       -1.314  -3.058   3.228  0.00  0.00    +0.440 HD
ATOM      5  C   LIG    1       -2.944  -2.510   2.191  0.00  0.00    +0.720 C 
ATOM      6  N   LIG    1       -3.480  -2.353   0.970  0.00  0.00    -0.720 N 
ATOM      7  H   LIG    1       -4.407  -2.079   0.886  0.00  0.00    +0.440 HD
ATOM      8  O   LIG    1       -3.657  -2.407   3.170  0.00  0.00    -0.530 OA
ATOM      9  O   LIG    1        0.388  -2.987   1.481  0.00  0.00    -0.440 OA
ATOM     10  F   LIG    1       -0.423  -2.630  -1.016  0.00  0.00    -0.130 F 
ATOM     11  C   LIG    1       -2.686  -2.590  -0.237  0.00  0.00    +0.420 C 
ENDROOT
BRANCH   1  12
ATOM     12  C   LIG    1       -1.185  -0.630   0.010  0.00  0.00    +0.460 C 
ATOM     13  O   LIG    1       -2.208   0.015   0.023  0.00  0.00    -0.460 OA
BRANCH  12  15
ATOM     14  C   LIG    1       -0.018   1.448   0.010  0.00  0.00    +0.290 C 
ATOM     15  O   LIG    1        0.002  -0.004   0.002  0.00  0.00    -0.330 OA
ENDBRANCH  12  15
ENDBRANCH   1  12
BRANCH  11  16
ATOM     16  O   LIG    1       -2.698  -3.984  -0.549  0.00  0.00    -0.380 OA
ATOM     17  C   LIG    1       -3.928  -4.441  -1.117  0.00  0.00    +0.240 C 
ENDBRANCH  11  16
TORSDOF 3
ENDMDL
MODEL      953
REMARK  Name = ZINC000001586175
REMARK                            x       y       z     vdW  Elec       q    Type
REMARK                         _______ _______ _______ _____ _____    ______ ____
ROOT
ATOM      1  CA  ARG A  1        2.069   0.135   1.212  0.00  0.00    +0.100 C 
ENDROOT
BRANCH   1   2
ATOM      2  N   ARG A  1        0.713  -0.355   0.927  0.00  0.00    -0.460 N 
ATOM      3  H1  ARG A  1        0.711  -1.364   0.941  0.00  0.00    +0.400 HD
ATOM      4  H2  ARG A  1        0.076  -0.007   1.628  0.00  0.00    +0.410 HD
BRANCH   2   6
ATOM      5  CB  ARG A  1       -1.176  -0.255  -0.628  0.00  0.00    +0.080 C 
ATOM      6  CA  ARG A  1        0.290   0.118  -0.398  0.00  0.00    +0.090 C 
BRANCH   6   7
ATOM      7  C   ARG A  1        1.145  -0.528  -1.458  0.00  0.00    +0.500 C 
ATOM      8  OXT ARG A  1        1.897  -1.440  -1.162  0.00  0.00    -0.690 OA
ATOM      9  O   ARG A  1        1.083  -0.138  -2.611  0.00  0.00    -0.640 OA
ENDBRANCH   6   7
ENDBRANCH   2   6
ENDBRANCH   1   2
BRANCH   1  10
ATOM     10  C   ARG A  1        2.043   1.637   1.340  0.00  0.00    +0.500 C 
ATOM     11  OXT ARG A  1        3.079   2.274   1.246  0.00  0.00    -0.650 OA
ATOM     12  O   ARG A  1        0.988   2.214   1.536  0.00  0.00    -0.670 OA
ENDBRANCH   1  10
BRANCH   1  13
ATOM     13  CB  ARG A  1        2.568  -0.479   2.521  0.00  0.00    +0.080 C 
BRANCH  13  14
ATOM     14  CG  ARG A  1        2.713  -1.993   2.352  0.00  0.00    +0.030 C 
BRANCH  14  15
ATOM     15  CD  ARG A  1        3.212  -2.608   3.661  0.00  0.00    +0.280 C 
BRANCH  15  16
ATOM     16  NE  ARG A  1        3.351  -4.057   3.498  0.00  0.00    -0.690 N 
ATOM     17  HE  ARG A  1        3.134  -4.473   2.649  0.00  0.00    +0.440 HD
ATOM     18  CZ  ARG A  1        3.786  -4.824   4.544  0.00  0.00    +0.740 C 
BRANCH  18  19
ATOM     19  NH2 ARG A  1        3.912  -6.142   4.396  0.00  0.00    -0.800 N 
ATOM     20 HH21 ARG A  1        4.221  -6.686   5.137  0.00  0.00    +0.440 HD
ATOM     21 HH22 ARG A  1        3.695  -6.558   3.547  0.00  0.00    +0.440 HD
ENDBRANCH  18  19
BRANCH  18  22
ATOM     22  NH1 ARG A  1        4.085  -4.253   5.710  0.00  0.00    -0.790 N 
ATOM     23 HH11 ARG A  1        4.393  -4.797   6.451  0.00  0.00    +0.440 HD
ATOM     24 HH12 ARG A  1        3.993  -3.293   5.817  0.00  0.00    +0.440 HD
ENDBRANCH  18  22
ENDBRANCH  15  16
ENDBRANCH  14  15
ENDBRANCH  13  14
ENDBRANCH   1  13
TORSDOF 10
ENDMDL
MODEL      954
REMARK  Name = ZINC000001587061
REMARK                            x       y       z     vdW  Elec       q    Type
REMARK                         _______ _______ _______ _____ _____    ______ ____
ROOT
ATOM      1  C   LIG    1       -1.337  -0.505  -0.033  0.00  0.00    +0.330 C 
ATOM      2  C   LIG    1       -1.302  -2.001   0.060  0.00  0.00    +0.490 C 
ATOM      3  N   LIG    1       -2.109  -2.789  -0.658  0.00  0.00    -0.610 N 
ATOM      4  C   LIG    1       -3.097  -2.266  -1.591  0.00  0.00    +0.330 C 
ATOM      5  C   LIG    1       -2.781  -0.855  -1.986  0.00  0.00    +0.510 C 
ATOM      6  O   LIG    1       -3.274  -0.410  -3.001  0.00  0.00    -0.520 OA
ATOM      7  C   LIG    1       -1.995  -4.241  -0.497  0.00  0.00    +0.300 C 
ATOM      8  O   LIG    1       -0.507  -2.518   0.816  0.00  0.00    -0.480 OA
ATOM      9  N   LIG    1       -1.977  -0.067  -1.266  0.00  0.00    -0.620 N 
ATOM     10  C   LIG    1       -1.729   1.298  -1.736  0.00  0.00    +0.310 C 
ENDROOT
BRANCH   1  12
ATOM     11  C   LIG    1        0.823  -0.457  -1.069  0.00  0.00    +0.220 C 
ATOM     12  O   LIG    1       -0.001  -0.002   0.006  0.00  0.00    -0.340 OA
ENDBRANCH   1  12
BRANCH   1  13
ATOM     13  C   LIG    1       -2.117   0.050   1.161  0.00  0.00    +0.230 C 
BRANCH  13  14
ATOM     14  O   LIG    1       -1.484  -0.359   2.375  0.00  0.00    -0.550 OA
ATOM     15  H   LIG    1       -1.926  -0.042   3.175  0.00  0.00    +0.390 HD
ENDBRANCH  13  14
ENDBRANCH   1  13
TORSDOF 3
ENDMDL
MODEL      955
REMARK  Name = ZINC000001586174
REMARK                            x       y       z     vdW  Elec       q    Type
REMARK                         _______ _______ _______ _____ _____    ______ ____
ROOT
ATOM      1  CA  ARG A  1       -2.050  -0.126  -1.234  0.00  0.00    +0.070 C 
ENDROOT
BRANCH   1   2
ATOM      2  N   ARG A  1       -1.376  -0.512   0.012  0.00  0.00    -0.460 N 
ATOM      3  H1  ARG A  1       -1.873  -0.121   0.799  0.00  0.00    +0.400 HD
ATOM      4  H2  ARG A  1       -1.363  -1.518   0.090  0.00  0.00    +0.420 HD
BRANCH   2   6
ATOM      5  CB  ARG A  1       -0.019   1.526   0.010  0.00  0.00    +0.060 C 
ATOM      6  CA  ARG A  1        0.002  -0.004   0.002  0.00  0.00    +0.100 C 
BRANCH   6   7
ATOM      7  C   ARG A  1        0.731  -0.503   1.223  0.00  0.00    +0.500 C 
ATOM      8  OXT ARG A  1        1.935  -0.690   1.180  0.00  0.00    -0.640 OA
ATOM      9  O   ARG A  1        0.117  -0.721   2.253  0.00  0.00    -0.690 OA
ENDBRANCH   6   7
ENDBRANCH   2   6
ENDBRANCH   1   2
BRANCH   1  10
ATOM     10  C   ARG A  1       -1.382  -0.810  -2.399  0.00  0.00    +0.490 C 
ATOM     11  OXT ARG A  1       -1.666  -0.487  -3.540  0.00  0.00    -0.650 OA
ATOM     12  O   ARG A  1       -0.557  -1.685  -2.201  0.00  0.00    -0.650 OA
ENDBRANCH   1  10
BRANCH   1  13
ATOM     13  CB  ARG A  1       -3.520  -0.547  -1.171  0.00  0.00    +0.080 C 
BRANCH  13  14
ATOM     14  CG  ARG A  1       -4.228   0.241  -0.067  0.00  0.00    +0.020 C 
BRANCH  14  15
ATOM     15  CD  ARG A  1       -5.698  -0.180  -0.004  0.00  0.00    +0.290 C 
BRANCH  15  16
ATOM     16  NE  ARG A  1       -6.377   0.574   1.053  0.00  0.00    -0.690 N 
ATOM     17  HE  ARG A  1       -5.883   1.222   1.581  0.00  0.00    +0.440 HD
ATOM     18  CZ  ARG A  1       -7.706   0.365   1.296  0.00  0.00    +0.740 C 
BRANCH  18  19
ATOM     19  NH2 ARG A  1       -8.323   1.051   2.257  0.00  0.00    -0.800 N 
ATOM     20 HH21 ARG A  1       -9.266   0.903   2.430  0.00  0.00    +0.440 HD
ATOM     21 HH22 ARG A  1       -7.830   1.698   2.785  0.00  0.00    +0.440 HD
ENDBRANCH  18  19
BRANCH  18  22
ATOM     22  NH1 ARG A  1       -8.384  -0.523   0.572  0.00  0.00    -0.790 N 
ATOM     23 HH11 ARG A  1       -9.327  -0.671   0.745  0.00  0.00    +0.440 HD
ATOM     24 HH12 ARG A  1       -7.935  -1.023  -0.128  0.00  0.00    +0.440 HD
ENDBRANCH  18  22
ENDBRANCH  15  16
ENDBRANCH  14  15
ENDBRANCH  13  14
ENDBRANCH   1  13
TORSDOF 10
ENDMDL
MODEL      956
REMARK  Name = ZINC000001603966
REMARK                            x       y       z     vdW  Elec       q    Type
REMARK                         _______ _______ _______ _____ _____    ______ ____
ROOT
ATOM      1  C   LIG    1       -1.674   4.566   0.052  0.00  0.00    +0.270 C 
ATOM      2  O   LIG    1       -1.314   5.432  -1.031  0.00  0.00    -0.340 OA
ATOM      3  C   LIG    1       -0.839   6.687  -0.519  0.00  0.00    +0.150 C 
ATOM      4  C   LIG    1       -1.482   6.821   0.884  0.00  0.00    +0.130 C 
ATOM      5  C   LIG    1       -1.451   5.343   1.367  0.00  0.00    +0.180 C 
ENDROOT
BRANCH   1   9
ATOM      6  O   LIG    1        0.002  -0.004   0.002  0.00  0.00    -0.450 OA
ATOM      7  C   LIG    1       -0.014   1.210   0.009  0.00  0.00    +0.550 C 
ATOM      8  C   LIG    1       -1.226   2.059   0.031  0.00  0.00    +0.070 C 
ATOM      9  C   LIG    1       -0.806   3.335   0.032  0.00  0.00    -0.140 C 
ATOM     10  C   LIG    1        0.673   3.298   0.009  0.00  0.00    +0.560 C 
ATOM     11  O   LIG    1        1.407   4.265   0.004  0.00  0.00    -0.450 OA
ATOM     12  N   LIG    1        1.066   2.011   0.003  0.00  0.00    -0.690 N 
ATOM     13  H   LIG    1        1.987   1.708  -0.011  0.00  0.00    +0.430 HD
ENDBRANCH   1   9
BRANCH   4  14
ATOM     14  O   LIG    1       -2.824   7.303   0.792  0.00  0.00    -0.540 OA
ATOM     15  H   LIG    1       -2.900   8.182   0.396  0.00  0.00    +0.380 HD
ENDBRANCH   4  14
BRANCH   5  16
ATOM     16  O   LIG    1       -2.503   5.090   2.300  0.00  0.00    -0.540 OA
ATOM     17  H   LIG    1       -2.450   5.623   3.106  0.00  0.00    +0.390 HD
ENDBRANCH   5  16
BRANCH   3  18
ATOM     18  C   LIG    1       -1.290   7.835  -1.424  0.00  0.00    +0.190 C 
BRANCH  18  19
ATOM     19  O   LIG    1       -0.646   7.722  -2.695  0.00  0.00    -0.560 OA
ATOM     20  H   LIG    1       -0.886   8.418  -3.321  0.00  0.00    +0.380 HD
ENDBRANCH  18  19
ENDBRANCH   3  18
TORSDOF 5
ENDMDL
MODEL      957
REMARK  Name = ZINC000001608201
REMARK                            x       y       z     vdW  Elec       q    Type
REMARK                         _______ _______ _______ _____ _____    ______ ____
ROOT
ATOM      1  C   LIG    1        0.657  -2.104  -1.120  0.00  0.00    +0.130 C 
ATOM      2  C   LIG    1       -0.723  -2.649  -1.387  0.00  0.00    +0.510 C 
ATOM      3  N   LIG    1       -1.175  -2.744  -2.651  0.00  0.00    -0.660 N 
ATOM      4  H   LIG    1       -2.086  -3.035  -2.811  0.00  0.00    +0.440 HD
ATOM      5  C   LIG    1       -0.383  -2.443  -3.693  0.00  0.00    +0.710 C 
ATOM      6  N   LIG    1        0.940  -2.269  -3.544  0.00  0.00    -0.730 N 
ATOM      7  H   LIG    1        1.472  -1.971  -4.299  0.00  0.00    +0.440 HD
ATOM      8  O   LIG    1       -0.876  -2.325  -4.798  0.00  0.00    -0.530 OA
ATOM      9  O   LIG    1       -1.425  -3.001  -0.463  0.00  0.00    -0.440 OA
ATOM     10  F   LIG    1        1.137  -2.615   0.091  0.00  0.00    -0.130 F 
ATOM     11  C   LIG    1        1.592  -2.521  -2.257  0.00  0.00    +0.440 C 
ENDROOT
BRANCH   1  12
ATOM     12  C   LIG    1        0.598  -0.600  -1.043  0.00  0.00    +0.460 C 
ATOM     13  O   LIG    1        1.088   0.070  -1.921  0.00  0.00    -0.460 OA
BRANCH  12  15
ATOM     14  C   LIG    1       -0.018   1.448   0.010  0.00  0.00    +0.290 C 
ATOM     15  O   LIG    1        0.002  -0.004   0.002  0.00  0.00    -0.330 OA
ENDBRANCH  12  15
ENDBRANCH   1  12
BRANCH  11  16
ATOM     16  O   LIG    1        1.891  -3.913  -2.140  0.00  0.00    -0.550 OA
ATOM     17  H   LIG    1        2.481  -4.248  -2.829  0.00  0.00    +0.400 HD
ENDBRANCH  11  16
TORSDOF 3
ENDMDL
MODEL      958
REMARK  Name = ZINC000217403768
REMARK                            x       y       z     vdW  Elec       q    Type
REMARK                         _______ _______ _______ _____ _____    ______ ____
ROOT
ATOM      1  C   LIG    1        2.292   1.279   0.098  0.00  0.00    +0.270 C 
ATOM      2  C   LIG    1        2.506   0.816  -1.357  0.00  0.00    -0.290 C 
ATOM      3  S   LIG    1        3.720   2.036  -2.001  0.00  0.00    +2.380 S 
ATOM      4  C   LIG    1        4.615   2.193  -0.403  0.00  0.00    -0.330 C 
ATOM      5  O   LIG    1        3.060   3.257  -2.306  0.00  0.00    -0.920 OA
ATOM      6  O   LIG    1        4.561   1.417  -2.965  0.00  0.00    -0.930 OA
ATOM      7  C   LIG    1        3.486   2.059   0.635  0.00  0.00    +0.200 C 
ENDROOT
BRANCH   7   8
ATOM      8  N   LIG    1        4.008   1.364   1.819  0.00  0.00    -0.520 NA
ATOM      9  C   LIG    1        5.101   2.128   2.439  0.00  0.00    +0.150 C 
ATOM     10  C   LIG    1        5.574   1.399   3.700  0.00  0.00    +0.220 C 
ATOM     11  O   LIG    1        5.970   0.069   3.356  0.00  0.00    -0.380 OA
ATOM     12  C   LIG    1        4.930  -0.703   2.750  0.00  0.00    +0.220 C 
ATOM     13  C   LIG    1        4.451   0.004   1.480  0.00  0.00    +0.150 C 
ENDBRANCH   7   8
BRANCH   1  16
ATOM     14  O   LIG    1       -0.235   0.370   0.326  0.00  0.00    -0.550 OA
ATOM     15  C   LIG    1       -0.120   1.576   0.271  0.00  0.00    +0.640 C 
ATOM     16  N   LIG    1        1.103   2.132   0.156  0.00  0.00    -0.730 N 
ATOM     17  H   LIG    1        1.195   3.096   0.112  0.00  0.00    +0.410 HD
ENDBRANCH   1  16
TORSDOF 2
ENDMDL
MODEL      959
REMARK  Name = ZINC000001612570
REMARK                            x       y       z     vdW  Elec       q    Type
REMARK                         _______ _______ _______ _____ _____    ______ ____
ROOT
ATOM      1  C   LIG    1        0.002  -0.004   0.002  0.00  0.00    +0.570 A 
ATOM      2  N   LIG    1       -1.151  -0.661   0.004  0.00  0.00    -0.550 NA
ATOM      3  C   LIG    1       -1.186  -1.984  -0.003  0.00  0.00    +0.400 A 
ATOM      4  C   LIG    1        0.010  -2.683  -0.013  0.00  0.00    -0.110 A 
ATOM      5  C   LIG    1        1.220  -1.960  -0.015  0.00  0.00    +0.340 A 
ATOM      6  N   LIG    1        2.215  -2.866  -0.024  0.00  0.00    -0.500 NA
ATOM      7  C   LIG    1        1.717  -4.071  -0.027  0.00  0.00    +0.540 A 
ATOM      8  N   LIG    1        0.366  -4.018  -0.021  0.00  0.00    -0.470 N 
ATOM      9  N   LIG    1        1.168  -0.627  -0.013  0.00  0.00    -0.540 NA
ENDROOT
BRANCH   1  10
ATOM     10  N   LIG    1       -0.017   1.382   0.010  0.00  0.00    -0.820 N 
ATOM     11  H   LIG    1       -0.863   1.855   0.016  0.00  0.00    +0.420 HD
ATOM     12  H   LIG    1        0.817   1.878   0.004  0.00  0.00    +0.420 HD
ENDBRANCH   1  10
BRANCH   8  13
ATOM     13  C   LIG    1       -0.549  -5.161  -0.022  0.00  0.00    +0.290 C 
BRANCH  13  14
ATOM     14  C   LIG    1       -0.973  -5.473  -1.459  0.00  0.00    +0.200 C 
BRANCH  14  15
ATOM     15  O   LIG    1       -1.733  -4.381  -1.980  0.00  0.00    -0.540 OA
ATOM     16  H   LIG    1       -2.538  -4.188  -1.480  0.00  0.00    +0.370 HD
ENDBRANCH  14  15
BRANCH  14  17
ATOM     17  C   LIG    1       -1.829  -6.742  -1.474  0.00  0.00    +0.160 C 
BRANCH  17  18
ATOM     18  O   LIG    1       -2.127  -7.099  -2.825  0.00  0.00    -0.560 OA
ATOM     19  H   LIG    1       -2.668  -7.896  -2.911  0.00  0.00    +0.390 HD
ENDBRANCH  17  18
ENDBRANCH  14  17
ENDBRANCH  13  14
ENDBRANCH   8  13
TORSDOF 6
ENDMDL
MODEL      960
REMARK  Name = ZINC000045556507
REMARK                            x       y       z     vdW  Elec       q    Type
REMARK                         _______ _______ _______ _____ _____    ______ ____
ROOT
ATOM      1  C   LIG    1        0.679  -2.115   1.088  0.00  0.00    +0.250 C 
ENDROOT
BRANCH   1   2
ATOM      2  N   LIG    1        1.766  -2.526   1.987  0.00  0.00    -0.810 NA
ATOM      3  H   LIG    1        1.618  -2.171   2.920  0.00  0.00    +0.360 HD
ATOM      4  H   LIG    1        2.662  -2.235   1.627  0.00  0.00    +0.360 HD
ENDBRANCH   1   2
BRANCH   1   5
ATOM      5  C   LIG    1        0.618  -0.611   1.029  0.00  0.00    +0.430 C 
ATOM      6  O   LIG    1        1.124   0.049   1.905  0.00  0.00    -0.500 OA
BRANCH   5   8
ATOM      7  C   LIG    1       -0.018   1.448   0.010  0.00  0.00    +0.270 C 
ATOM      8  O   LIG    1        0.002  -0.004   0.002  0.00  0.00    -0.350 OA
ENDBRANCH   5   8
ENDBRANCH   1   5
BRANCH   1   9
ATOM      9  C   LIG    1       -0.651  -2.659   1.615  0.00  0.00    +0.120 C 
BRANCH   9  10
ATOM     10  S   LIG    1       -0.579  -4.466   1.687  0.00  0.00    +0.100 S 
BRANCH  10  11
ATOM     11  C   LIG    1       -2.191  -4.813   2.308  0.00  0.00    +0.200 A 
ATOM     12  N   LIG    1       -3.121  -3.931   2.601  0.00  0.00    -0.340 NA
ATOM     13  N   LIG    1       -4.179  -4.519   3.031  0.00  0.00    -0.030 NA
ATOM     14  N   LIG    1       -4.007  -5.796   3.044  0.00  0.00    -0.080 NA
ATOM     15  N   LIG    1       -2.706  -6.037   2.568  0.00  0.00    -0.360 N 
ATOM     16  C   LIG    1       -2.047  -7.334   2.397  0.00  0.00    +0.390 C 
ENDBRANCH  10  11
ENDBRANCH   9  10
ENDBRANCH   1   9
TORSDOF 6
ENDMDL
MODEL      961
REMARK  Name = ZINC000001613040
REMARK                            x       y       z     vdW  Elec       q    Type
REMARK                         _______ _______ _______ _____ _____    ______ ____
ROOT
ATOM      1  C   LIG    1        2.454   1.494  -0.010  0.00  0.00    +0.570 C 
ENDROOT
BRANCH   1   7
ATOM      2  O   LIG    1        0.002  -0.004   0.002  0.00  0.00    -0.500 OA
ATOM      3  C   LIG    1       -0.014   1.209   0.009  0.00  0.00    +0.530 C 
ATOM      4  C   LIG    1       -1.266   2.058   0.032  0.00  0.00    +0.040 C 
ATOM      5  C   LIG    1       -0.765   3.459   0.452  0.00  0.00    +0.020 C 
ATOM      6  C   LIG    1        0.711   3.415   0.001  0.00  0.00    +0.390 C 
ATOM      7  N   LIG    1        1.077   1.993   0.003  0.00  0.00    -0.620 N 
BRANCH   6   8
ATOM      8  O   LIG    1        1.532   4.136   0.922  0.00  0.00    -0.550 OA
ATOM      9  H   LIG    1        1.310   5.074   0.995  0.00  0.00    +0.390 HD
ENDBRANCH   6   8
ENDBRANCH   1   7
BRANCH   1  10
ATOM     10  N   LIG    1        2.928   1.333   1.367  0.00  0.00    -0.620 N 
ATOM     11  C   LIG    1        3.546   2.295   2.074  0.00  0.00    +0.530 C 
ATOM     12  C   LIG    1        3.886   1.787   3.458  0.00  0.00    +0.040 C 
ATOM     13  C   LIG    1        3.013   0.521   3.622  0.00  0.00    +0.020 C 
ATOM     14  O   LIG    1        3.795   3.408   1.662  0.00  0.00    -0.500 OA
ATOM     15  C   LIG    1        2.783   0.103   2.154  0.00  0.00    +0.380 C 
BRANCH  15  16
ATOM     16  O   LIG    1        1.471  -0.443   1.996  0.00  0.00    -0.550 OA
ATOM     17  H   LIG    1        1.310  -1.238   2.521  0.00  0.00    +0.390 HD
ENDBRANCH  15  16
ENDBRANCH   1  10
TORSDOF 4
ENDMDL
MODEL      962
REMARK  Name = ZINC000001613037
REMARK                            x       y       z     vdW  Elec       q    Type
REMARK                         _______ _______ _______ _____ _____    ______ ____
ROOT
ATOM      1  C   LIG    1        2.454   1.494  -0.010  0.00  0.00    +0.580 C 
ENDROOT
BRANCH   1   7
ATOM      2  O   LIG    1        0.002  -0.004   0.002  0.00  0.00    -0.520 OA
ATOM      3  C   LIG    1       -0.014   1.209   0.009  0.00  0.00    +0.530 C 
ATOM      4  C   LIG    1       -1.266   2.058   0.032  0.00  0.00    +0.070 C 
ATOM      5  C   LIG    1       -0.765   3.459   0.452  0.00  0.00    +0.030 C 
ATOM      6  C   LIG    1        0.711   3.415   0.001  0.00  0.00    +0.400 C 
ATOM      7  N   LIG    1        1.077   1.993   0.003  0.00  0.00    -0.610 N 
BRANCH   6   8
ATOM      8  O   LIG    1        0.844   3.965  -1.312  0.00  0.00    -0.580 OA
ATOM      9  H   LIG    1        0.580   4.893  -1.378  0.00  0.00    +0.400 HD
ENDBRANCH   6   8
ENDBRANCH   1   7
BRANCH   1  10
ATOM     10  N   LIG    1        2.928   1.333   1.367  0.00  0.00    -0.610 N 
ATOM     11  C   LIG    1        3.546   2.295   2.074  0.00  0.00    +0.530 C 
ATOM     12  C   LIG    1        3.886   1.787   3.458  0.00  0.00    +0.070 C 
ATOM     13  C   LIG    1        3.013   0.521   3.622  0.00  0.00    +0.030 C 
ATOM     14  O   LIG    1        3.795   3.408   1.662  0.00  0.00    -0.520 OA
ATOM     15  C   LIG    1        2.783   0.103   2.154  0.00  0.00    +0.400 C 
BRANCH  15  16
ATOM     16  O   LIG    1        3.765  -0.853   1.752  0.00  0.00    -0.580 OA
ATOM     17  H   LIG    1        3.747  -1.675   2.262  0.00  0.00    +0.400 HD
ENDBRANCH  15  16
ENDBRANCH   1  10
TORSDOF 4
ENDMDL
MODEL      963
REMARK  Name = ZINC000001627333
REMARK                            x       y       z     vdW  Elec       q    Type
REMARK                         _______ _______ _______ _____ _____    ______ ____
ROOT
ATOM      1  C   LIG    1       -0.043   1.450   0.027  0.00  0.00    +0.350 C 
ATOM      2  N   LIG    1       -0.013  -0.014   0.013  0.00  0.00    -0.530 N 
ATOM      3  C   LIG    1       -0.006  -0.682  -1.185  0.00  0.00    +0.340 A 
ATOM      4  C   LIG    1        0.021  -2.036  -1.196  0.00  0.00    -0.030 A 
ATOM      5  C   LIG    1        0.042  -2.734   0.041  0.00  0.00    +0.550 A 
ATOM      6  N   LIG    1        0.035  -2.036   1.195  0.00  0.00    -0.550 N 
ATOM      7  C   LIG    1        0.056  -2.747   2.476  0.00  0.00    +0.340 C 
ATOM      8  O   LIG    1        0.067  -3.952   0.059  0.00  0.00    -0.490 OA
ATOM      9  C   LIG    1        0.013  -0.691   1.175  0.00  0.00    +0.690 A 
ATOM     10  O   LIG    1        0.007  -0.078   2.225  0.00  0.00    -0.530 OA
ENDROOT
BRANCH   4  11
ATOM     11  N   LIG    1        0.028  -2.740  -2.413  0.00  0.00    -0.660 N 
ATOM     12  H   LIG    1       -0.701  -2.628  -3.043  0.00  0.00    +0.410 HD
ATOM     13  C   LIG    1        1.049  -3.570  -2.706  0.00  0.00    +0.510 C 
ATOM     14  O   LIG    1        1.918  -3.775  -1.884  0.00  0.00    -0.490 OA
BRANCH  13  15
ATOM     15  C   LIG    1        1.111  -4.242  -4.053  0.00  0.00    +0.230 C 
BRANCH  15  16
ATOM     16  O   LIG    1        2.277  -5.066  -4.120  0.00  0.00    -0.550 OA
ATOM     17  H   LIG    1        2.382  -5.531  -4.962  0.00  0.00    +0.390 HD
ENDBRANCH  15  16
ENDBRANCH  13  15
ENDBRANCH   4  11
TORSDOF 3
ENDMDL
MODEL      964
REMARK  Name = ZINC000001629756
REMARK                            x       y       z     vdW  Elec       q    Type
REMARK                         _______ _______ _______ _____ _____    ______ ____
ROOT
ATOM      1  C   LIG    1        0.037  -2.093  -1.325  0.00  0.00    -0.190 A 
ATOM      2  C   LIG    1       -0.067  -2.760  -2.529  0.00  0.00    +0.520 A 
ATOM      3  N   LIG    1        0.029  -4.131  -2.547  0.00  0.00    -0.540 N 
ATOM      4  C   LIG    1        0.223  -4.815  -1.405  0.00  0.00    +0.710 A 
ATOM      5  N   LIG    1        0.328  -4.183  -0.222  0.00  0.00    -0.660 N 
ATOM      6  H   LIG    1        0.467  -4.699   0.587  0.00  0.00    +0.440 HD
ATOM      7  O   LIG    1        0.306  -6.028  -1.442  0.00  0.00    -0.520 OA
ATOM      8  C   LIG    1       -0.079  -4.852  -3.817  0.00  0.00    +0.360 C 
ATOM      9  C   LIG    1        0.245  -2.840  -0.150  0.00  0.00    +0.570 A 
ATOM     10  O   LIG    1        0.341  -2.276   0.927  0.00  0.00    -0.510 OA
ENDROOT
BRANCH   1  13
ATOM     11  C   LIG    1       -1.270   1.430  -1.688  0.00  0.00    +0.130 C 
ATOM     12  C   LIG    1       -1.204  -0.074  -1.631  0.00  0.00    +0.510 C 
ATOM     13  N   LIG    1       -0.058  -0.686  -1.273  0.00  0.00    -0.480 N 
ATOM     14  C   LIG    1        0.998   0.046  -0.866  0.00  0.00    +0.530 C 
ATOM     15  O   LIG    1        0.884   1.244  -0.719  0.00  0.00    -0.500 OA
ATOM     16  C   LIG    1        2.320  -0.625  -0.594  0.00  0.00    +0.120 C 
ATOM     17  O   LIG    1       -2.183  -0.735  -1.907  0.00  0.00    -0.500 OA
ENDBRANCH   1  13
BRANCH   2  18
ATOM     18  N   LIG    1       -0.264  -2.062  -3.695  0.00  0.00    -0.820 N 
ATOM     19  H   LIG    1       -0.416  -2.539  -4.526  0.00  0.00    +0.410 HD
ATOM     20  H   LIG    1       -0.252  -1.092  -3.688  0.00  0.00    +0.420 HD
ENDBRANCH   2  18
TORSDOF 2
ENDMDL
MODEL      965
REMARK  Name = ZINC000169726583
REMARK                            x       y       z     vdW  Elec       q    Type
REMARK                         _______ _______ _______ _____ _____    ______ ____
ROOT
ATOM      1  C   LIG    1       -0.651  -2.659   1.615  0.00  0.00    +0.290 C 
ATOM      2  C   LIG    1       -0.910  -2.103   3.017  0.00  0.00    +0.070 C 
ENDROOT
BRANCH   1   3
ATOM      3  N   LIG    1       -0.592  -4.122   1.673  0.00  0.00    -0.280 N 
ATOM      4  C   LIG    1       -0.094  -4.855   2.695  0.00  0.00    +0.200 A 
ATOM      5  C   LIG    1       -0.237  -6.152   2.333  0.00  0.00    -0.040 A 
ATOM      6  N   LIG    1       -0.808  -6.148   1.124  0.00  0.00    -0.260 NA
ATOM      7  N   LIG    1       -1.011  -4.930   0.763  0.00  0.00    -0.090 NA
BRANCH   5   8
ATOM      8  C   LIG    1        0.167  -7.361   3.136  0.00  0.00    +0.310 C 
BRANCH   8   9
ATOM      9  O   LIG    1        0.743  -6.941   4.375  0.00  0.00    -0.570 OA
ATOM     10  H   LIG    1        1.027  -7.669   4.944  0.00  0.00    +0.390 HD
ENDBRANCH   8   9
ENDBRANCH   5   8
ENDBRANCH   1   3
BRANCH   1  11
ATOM     11  C   LIG    1        0.679  -2.115   1.088  0.00  0.00    +0.220 C 
BRANCH  11  12
ATOM     12  N   LIG    1        1.766  -2.526   1.987  0.00  0.00    -0.810 NA
ATOM     13  H   LIG    1        1.618  -2.171   2.920  0.00  0.00    +0.360 HD
ATOM     14  H   LIG    1        2.662  -2.235   1.627  0.00  0.00    +0.360 HD
ENDBRANCH  11  12
BRANCH  11  15
ATOM     15  C   LIG    1        0.618  -0.611   1.029  0.00  0.00    +0.430 C 
ATOM     16  O   LIG    1        1.124   0.049   1.905  0.00  0.00    -0.500 OA
BRANCH  15  18
ATOM     17  C   LIG    1       -0.018   1.448   0.010  0.00  0.00    +0.280 C 
ATOM     18  O   LIG    1        0.002  -0.004   0.002  0.00  0.00    -0.350 OA
ENDBRANCH  15  18
ENDBRANCH  11  15
ENDBRANCH   1  11
TORSDOF 7
ENDMDL
MODEL      966
REMARK  Name = ZINC000001638992
REMARK                            x       y       z     vdW  Elec       q    Type
REMARK                         _______ _______ _______ _____ _____    ______ ____
ROOT
ATOM      1  C   LIG    1       -0.018   1.503   0.010  0.00  0.00    +0.130 C 
ATOM      2  C   LIG    1        0.002  -0.004   0.002  0.00  0.00    -0.260 A 
ATOM      3  C   LIG    1       -1.153  -0.704   0.004  0.00  0.00    +0.350 A 
ATOM      4  N   LIG    1       -1.116  -2.072  -0.004  0.00  0.00    -0.520 N 
ATOM      5  C   LIG    1        0.060  -2.726  -0.013  0.00  0.00    +0.700 A 
ATOM      6  N   LIG    1        1.226  -2.053  -0.016  0.00  0.00    -0.660 N 
ATOM      7  H   LIG    1        2.064  -2.540  -0.023  0.00  0.00    +0.430 HD
ATOM      8  O   LIG    1        0.069  -3.942  -0.020  0.00  0.00    -0.540 OA
ATOM      9  C   LIG    1        1.232  -0.705  -0.013  0.00  0.00    +0.550 A 
ATOM     10  O   LIG    1        2.287  -0.095  -0.016  0.00  0.00    -0.510 OA
ENDROOT
BRANCH   4  11
ATOM     11  C   LIG    1       -2.369  -2.831  -0.002  0.00  0.00    +0.350 C 
BRANCH  11  12
ATOM     12  C   LIG    1       -2.805  -3.084  -1.422  0.00  0.00    +0.500 C 
ATOM     13  N   LIG    1       -3.939  -3.770  -1.667  0.00  0.00    -0.720 N 
ATOM     14  H   LIG    1       -4.475  -4.100  -0.929  0.00  0.00    +0.410 HD
ATOM     15  O   LIG    1       -2.135  -2.670  -2.345  0.00  0.00    -0.530 OA
BRANCH  13  16
ATOM     16  C   LIG    1       -4.363  -4.015  -3.047  0.00  0.00    +0.290 C 
BRANCH  16  17
ATOM     17  C   LIG    1       -5.672  -4.808  -3.046  0.00  0.00    +0.190 C 
BRANCH  17  18
ATOM     18  O   LIG    1       -6.709  -4.014  -2.467  0.00  0.00    -0.570 OA
ATOM     19  H   LIG    1       -7.569  -4.455  -2.433  0.00  0.00    +0.390 HD
ENDBRANCH  17  18
ENDBRANCH  16  17
ENDBRANCH  13  16
ENDBRANCH  11  12
ENDBRANCH   4  11
TORSDOF 5
ENDMDL
MODEL      967
REMARK  Name = ZINC000001642844
REMARK                            x       y       z     vdW  Elec       q    Type
REMARK                         _______ _______ _______ _____ _____    ______ ____
ROOT
ATOM      1  C   LIG    1        0.002  -0.004   0.002  0.00  0.00    +0.500 A 
ATOM      2  N   LIG    1       -1.135  -0.687   0.004  0.00  0.00    -0.620 NA
ATOM      3  C   LIG    1       -1.129  -2.018  -0.004  0.00  0.00    +0.660 A 
ATOM      4  N   LIG    1        0.026  -2.708  -0.014  0.00  0.00    -0.540 N 
ATOM      5  C   LIG    1        1.220  -2.050  -0.016  0.00  0.00    +0.380 A 
ATOM      6  O   LIG    1       -2.189  -2.623  -0.003  0.00  0.00    -0.530 OA
ATOM      7  C   LIG    1        1.230  -0.697  -0.013  0.00  0.00    -0.140 A 
ENDROOT
BRANCH   4   8
ATOM      8  C   LIG    1        0.001  -4.173  -0.023  0.00  0.00    +0.400 C 
ATOM      9  C   LIG    1       -0.669  -4.716   1.264  0.00  0.00    +0.230 C 
ATOM     10  O   LIG    1       -1.165  -6.001   0.817  0.00  0.00    -0.360 OA
ATOM     11  C   LIG    1       -1.582  -5.781  -0.541  0.00  0.00    +0.350 C 
ATOM     12  O   LIG    1       -0.857  -4.661  -1.073  0.00  0.00    -0.360 OA
BRANCH  11  13
ATOM     13  C   LIG    1       -1.281  -7.025  -1.379  0.00  0.00    +0.200 C 
BRANCH  13  14
ATOM     14  O   LIG    1        0.118  -7.310  -1.323  0.00  0.00    -0.560 OA
ATOM     15  H   LIG    1        0.382  -8.088  -1.833  0.00  0.00    +0.380 HD
ENDBRANCH  13  14
ENDBRANCH  11  13
ENDBRANCH   4   8
BRANCH   1  16
ATOM     16  N   LIG    1       -0.017   1.371   0.010  0.00  0.00    -0.810 N 
ATOM     17  H   LIG    1       -0.863   1.845   0.016  0.00  0.00    +0.410 HD
ATOM     18  H   LIG    1        0.817   1.868   0.004  0.00  0.00    +0.420 HD
ENDBRANCH   1  16
TORSDOF 4
ENDMDL
MODEL      968
REMARK  Name = ZINC000001659812
REMARK                            x       y       z     vdW  Elec       q    Type
REMARK                         _______ _______ _______ _____ _____    ______ ____
ROOT
ATOM      1  N   LIG    1        0.823  -0.494   1.187  0.00  0.00    -0.500 N 
ATOM      2  H   LIG    1        0.865  -1.468   1.447  0.00  0.00    +0.440 HD
ATOM      3  H   LIG    1        0.365   0.030   1.917  0.00  0.00    +0.430 HD
ENDROOT
BRANCH   1   5
ATOM      4  C   LIG    1       -0.174   1.130  -0.351  0.00  0.00    +0.080 C 
ATOM      5  C   LIG    1        0.066  -0.354  -0.064  0.00  0.00    +0.200 C 
BRANCH   5   6
ATOM      6  C   LIG    1       -1.278  -1.071   0.070  0.00  0.00    -0.440 C 
BRANCH   6   7
ATOM      7  S   LIG    1       -0.994  -2.830   0.409  0.00  0.00    +2.620 S 
ATOM      8  O   LIG    1       -0.244  -2.953   1.650  0.00  0.00    -1.060 OA
ATOM      9  O   LIG    1       -0.236  -3.404  -0.692  0.00  0.00    -1.020 OA
ATOM     10  O   LIG    1       -2.280  -3.498   0.534  0.00  0.00    -1.030 OA
ENDBRANCH   6   7
ENDBRANCH   5   6
ENDBRANCH   1   5
BRANCH   1  11
ATOM     11  C   LIG    1        2.186   0.020   0.995  0.00  0.00    +0.070 C 
BRANCH  11  12
ATOM     12  C   LIG    1        2.179   1.544   1.129  0.00  0.00    +0.240 C 
BRANCH  12  13
ATOM     13  O   LIG    1        1.550   1.912   2.358  0.00  0.00    -0.580 OA
ATOM     14  H   LIG    1        1.510   2.866   2.509  0.00  0.00    +0.410 HD
ENDBRANCH  12  13
ENDBRANCH  11  12
BRANCH  11  15
ATOM     15  C   LIG    1        2.686  -0.368  -0.398  0.00  0.00    +0.220 C 
BRANCH  15  16
ATOM     16  O   LIG    1        2.583  -1.783  -0.564  0.00  0.00    -0.560 OA
ATOM     17  H   LIG    1        2.883  -2.101  -1.426  0.00  0.00    +0.410 HD
ENDBRANCH  15  16
ENDBRANCH  11  15
BRANCH  11  18
ATOM     18  C   LIG    1        3.111  -0.581   2.055  0.00  0.00    +0.230 C 
BRANCH  18  19
ATOM     19  O   LIG    1        4.437  -0.080   1.869  0.00  0.00    -0.560 OA
ATOM     20  H   LIG    1        5.079  -0.420   2.507  0.00  0.00    +0.400 HD
ENDBRANCH  18  19
ENDBRANCH  11  18
ENDBRANCH   1  11
TORSDOF 10
ENDMDL
MODEL      969
REMARK  Name = ZINC000217403924
REMARK                            x       y       z     vdW  Elec       q    Type
REMARK                         _______ _______ _______ _____ _____    ______ ____
ROOT
ATOM      1  C   LIG    1        2.482   1.039   0.165  0.00  0.00    +0.270 C 
ATOM      2  C   LIG    1        2.674   0.501  -1.261  0.00  0.00    -0.300 C 
ATOM      3  S   LIG    1        4.069   1.463  -1.958  0.00  0.00    +2.390 S 
ATOM      4  C   LIG    1        3.926   2.857  -0.769  0.00  0.00    -0.300 C 
ATOM      5  O   LIG    1        3.735   1.910  -3.265  0.00  0.00    -0.930 OA
ATOM      6  O   LIG    1        5.287   0.767  -1.734  0.00  0.00    -0.920 OA
ATOM      7  C   LIG    1        3.515   2.109   0.522  0.00  0.00    +0.160 C 
ENDROOT
BRANCH   7   8
ATOM      8  N   LIG    1        2.928   3.058   1.478  0.00  0.00    -0.520 NA
ATOM      9  C   LIG    1        3.802   4.224   1.666  0.00  0.00    +0.160 C 
ATOM     10  C   LIG    1        3.126   5.213   2.621  0.00  0.00    +0.220 C 
ATOM     11  O   LIG    1        2.833   4.551   3.854  0.00  0.00    -0.380 OA
ATOM     12  C   LIG    1        1.983   3.410   3.708  0.00  0.00    +0.230 C 
ATOM     13  C   LIG    1        2.647   2.404   2.764  0.00  0.00    +0.150 C 
ENDBRANCH   7   8
BRANCH   1  16
ATOM     14  O   LIG    1        0.245  -0.368   0.697  0.00  0.00    -0.550 OA
ATOM     15  C   LIG    1        0.085   0.825   0.548  0.00  0.00    +0.630 C 
ATOM     16  N   LIG    1        1.140   1.618   0.278  0.00  0.00    -0.720 N 
ATOM     17  H   LIG    1        1.012   2.572   0.159  0.00  0.00    +0.410 HD
ENDBRANCH   1  16
TORSDOF 2
ENDMDL
MODEL      970
REMARK  Name = ZINC000001670434
REMARK                            x       y       z     vdW  Elec       q    Type
REMARK                         _______ _______ _______ _____ _____    ______ ____
ROOT
ATOM      1  C   LIG    1       -0.018   1.461   0.010  0.00  0.00    +0.350 C 
ATOM      2  N   LIG    1        0.002  -0.004   0.002  0.00  0.00    -0.410 N 
ATOM      3  C   LIG    1        0.009  -0.799  -1.089  0.00  0.00    +0.490 A 
ATOM      4  N   LIG    1        0.027  -2.046  -0.702  0.00  0.00    -0.480 NA
ATOM      5  C   LIG    1        0.034  -2.095   0.640  0.00  0.00    +0.400 A 
ATOM      6  C   LIG    1        0.024  -0.824   1.103  0.00  0.00    -0.650 A 
ENDROOT
BRANCH   5   7
ATOM      7  N   LIG    1        0.054  -3.260   1.425  0.00  0.00    -0.660 N 
ATOM      8  H   LIG    1        0.057  -3.194   2.393  0.00  0.00    +0.420 HD
ATOM      9  C   LIG    1        0.068  -4.471   0.833  0.00  0.00    +0.700 C 
ATOM     10  O   LIG    1        0.064  -4.555  -0.380  0.00  0.00    -0.540 OA
ATOM     11  N   LIG    1        0.087  -5.589   1.586  0.00  0.00    -0.860 N 
ATOM     12  H   LIG    1        0.097  -6.460   1.160  0.00  0.00    +0.420 HD
ATOM     13  H   LIG    1        0.091  -5.522   2.554  0.00  0.00    +0.400 HD
ENDBRANCH   5   7
BRANCH   6  14
ATOM     14  S   LIG    1        0.027  -0.320   2.791  0.00  0.00    +2.730 S 
ATOM     15  O   LIG    1        0.559   0.998   2.815  0.00  0.00    -0.960 OA
ATOM     16  O   LIG    1        0.585  -1.397   3.531  0.00  0.00    -0.960 OA
BRANCH  14  17
ATOM     17  N   LIG    1       -1.554  -0.194   3.268  0.00  0.00    -1.250 NA
ATOM     18  H   LIG    1       -1.766   0.075   4.176  0.00  0.00    +0.420 HD
ATOM     19  H   LIG    1       -2.267  -0.389   2.640  0.00  0.00    +0.420 HD
ENDBRANCH  14  17
ENDBRANCH   6  14
TORSDOF 3
ENDMDL
MODEL      971
REMARK  Name = ZINC000217403849
REMARK                            x       y       z     vdW  Elec       q    Type
REMARK                         _______ _______ _______ _____ _____    ______ ____
ROOT
ATOM      1  C   LIG    1        2.318   1.257  -0.100  0.00  0.00    +0.270 C 
ATOM      2  C   LIG    1        2.590   0.799   1.347  0.00  0.00    -0.310 C 
ATOM      3  S   LIG    1        4.426   0.772   1.429  0.00  0.00    +2.390 S 
ATOM      4  C   LIG    1        4.633   2.228   0.325  0.00  0.00    -0.290 C 
ATOM      5  O   LIG    1        4.920  -0.395   0.786  0.00  0.00    -0.910 OA
ATOM      6  O   LIG    1        4.855   1.100   2.743  0.00  0.00    -0.930 OA
ATOM      7  C   LIG    1        3.474   2.066  -0.675  0.00  0.00    +0.160 C 
ENDROOT
BRANCH   7   8
ATOM      8  N   LIG    1        3.973   1.384  -1.877  0.00  0.00    -0.530 NA
ATOM      9  C   LIG    1        5.090   2.127  -2.479  0.00  0.00    +0.150 C 
ATOM     10  C   LIG    1        5.616   1.352  -3.690  0.00  0.00    +0.230 C 
ATOM     11  O   LIG    1        4.547   1.138  -4.615  0.00  0.00    -0.380 OA
ATOM     12  C   LIG    1        3.443   0.417  -4.062  0.00  0.00    +0.230 C 
ATOM     13  C   LIG    1        2.894   1.182  -2.854  0.00  0.00    +0.150 C 
ENDBRANCH   7   8
BRANCH   1  16
ATOM     14  O   LIG    1       -0.193   0.287  -0.244  0.00  0.00    -0.540 OA
ATOM     15  C   LIG    1       -0.105   1.496  -0.192  0.00  0.00    +0.630 C 
ATOM     16  N   LIG    1        1.106   2.081  -0.118  0.00  0.00    -0.730 N 
ATOM     17  H   LIG    1        1.176   3.047  -0.076  0.00  0.00    +0.400 HD
ENDBRANCH   1  16
TORSDOF 2
ENDMDL
MODEL      972
REMARK  Name = ZINC000001681570
REMARK                            x       y       z     vdW  Elec       q    Type
REMARK                         _______ _______ _______ _____ _____    ______ ____
ROOT
ATOM      1  O   LIG    1       -0.008  -0.049  -0.029  0.00  0.00    -0.500 OA
ATOM      2  C   LIG    1        0.009   1.166  -0.018  0.00  0.00    +0.550 C 
ATOM      3  N   LIG    1       -1.149   1.855   0.011  0.00  0.00    -0.580 N 
ENDROOT
BRANCH   2   4
ATOM      4  C   LIG    1        1.303   1.890  -0.044  0.00  0.00    +0.160 A 
ATOM      5  C   LIG    1        1.883   2.298   1.115  0.00  0.00    -0.050 A 
ATOM      6  C   LIG    1        3.163   3.011   1.041  0.00  0.00    +0.550 A 
ATOM      7  N   LIG    1        3.715   3.235  -0.169  0.00  0.00    -0.660 N 
ATOM      8  H   LIG    1        4.561   3.706  -0.234  0.00  0.00    +0.440 HD
ATOM      9  C   LIG    1        3.099   2.811  -1.287  0.00  0.00    +0.710 A 
ATOM     10  O   LIG    1        3.617   3.025  -2.366  0.00  0.00    -0.530 OA
ATOM     11  O   LIG    1        3.718   3.394   2.055  0.00  0.00    -0.490 OA
ATOM     12  N   LIG    1        1.930   2.151  -1.243  0.00  0.00    -0.630 N 
ATOM     13  H   LIG    1        1.516   1.860  -2.070  0.00  0.00    +0.440 HD
ENDBRANCH   2   4
BRANCH   3  14
ATOM     14  C   LIG    1       -1.135   3.316  -0.096  0.00  0.00    +0.300 C 
BRANCH  14  15
ATOM     15  C   LIG    1       -1.319   3.721  -1.560  0.00  0.00    +0.160 C 
BRANCH  15  16
ATOM     16  O   LIG    1       -2.617   3.322  -2.005  0.00  0.00    -0.570 OA
ATOM     17  H   LIG    1       -2.803   3.548  -2.927  0.00  0.00    +0.380 HD
ENDBRANCH  15  16
ENDBRANCH  14  15
ENDBRANCH   3  14
BRANCH   3  18
ATOM     18  C   LIG    1       -2.422   1.143   0.151  0.00  0.00    +0.330 C 
BRANCH  18  19
ATOM     19  C   LIG    1       -2.766   1.000   1.635  0.00  0.00    +0.170 C 
BRANCH  19  20
ATOM     20  O   LIG    1       -2.993   2.294   2.198  0.00  0.00    -0.570 OA
ATOM     21  H   LIG    1       -3.216   2.280   3.139  0.00  0.00    +0.380 HD
ENDBRANCH  19  20
ENDBRANCH  18  19
ENDBRANCH   3  18
TORSDOF 7
ENDMDL
MODEL      973
REMARK  Name = ZINC000011678823
REMARK                            x       y       z     vdW  Elec       q    Type
REMARK                         _______ _______ _______ _____ _____    ______ ____
ROOT
ATOM      1  C   LIG    1        0.002  -0.004   0.002  0.00  0.00    +0.630 A 
ATOM      2  N   LIG    1       -1.139  -0.678   0.004  0.00  0.00    -0.640 NA
ATOM      3  C   LIG    1       -1.126  -2.014  -0.004  0.00  0.00    +0.650 A 
ATOM      4  N   LIG    1        0.054  -2.668  -0.013  0.00  0.00    -0.570 N 
ATOM      5  C   LIG    1        1.207  -1.963  -0.014  0.00  0.00    +0.650 A 
ATOM      6  O   LIG    1       -2.173  -2.638  -0.002  0.00  0.00    -0.490 OA
ATOM      7  N   LIG    1        1.174  -0.654  -0.013  0.00  0.00    -0.600 NA
ENDROOT
BRANCH   4   8
ATOM      8  C1* LIG    1        0.085  -4.133  -0.021  0.00  0.00    +0.410 C 
ATOM      9  C2* LIG    1        0.812  -4.633  -1.288  0.00  0.00    +0.010 C 
ATOM     10  C3* LIG    1       -0.039  -5.869  -1.690  0.00  0.00    +0.170 C 
ATOM     11  C4* LIG    1       -1.453  -5.403  -1.262  0.00  0.00    +0.180 C 
ATOM     12  O4* LIG    1       -1.251  -4.647  -0.055  0.00  0.00    -0.310 OA
BRANCH  10  13
ATOM     13  O3* LIG    1        0.364  -7.031  -0.961  0.00  0.00    -0.550 OA
ATOM     14  H3* LIG    1        1.281  -7.295  -1.118  0.00  0.00    +0.390 HD
ENDBRANCH  10  13
BRANCH  11  15
ATOM     15  C5* LIG    1       -2.350  -6.612  -0.988  0.00  0.00    +0.210 C 
BRANCH  15  16
ATOM     16  O5* LIG    1       -3.679  -6.166  -0.710  0.00  0.00    -0.560 OA
ATOM     17  H5* LIG    1       -4.304  -6.881  -0.526  0.00  0.00    +0.380 HD
ENDBRANCH  15  16
ENDBRANCH  11  15
ENDBRANCH   4   8
BRANCH   1  18
ATOM     18  N   LIG    1       -0.017   1.368   0.010  0.00  0.00    -0.790 N 
ATOM     19  H   LIG    1       -0.863   1.842   0.016  0.00  0.00    +0.420 HD
ATOM     20  H   LIG    1        0.817   1.865   0.004  0.00  0.00    +0.420 HD
ENDBRANCH   1  18
TORSDOF 5
ENDMDL
MODEL      974
REMARK  Name = ZINC000001692414
REMARK                            x       y       z     vdW  Elec       q    Type
REMARK                         _______ _______ _______ _____ _____    ______ ____
ROOT
ATOM      1  C   LIG    1       -0.083   1.280  -0.995  0.00  0.00    +0.360 C 
ATOM      2  N   LIG    1       -0.029  -0.091  -0.483  0.00  0.00    -0.540 N 
ATOM      3  C   LIG    1       -1.183  -0.709  -0.064  0.00  0.00    +0.590 A 
ATOM      4  C   LIG    1       -1.123  -1.990   0.412  0.00  0.00    -0.930 A 
ATOM      5  C   LIG    1        0.119  -2.642   0.461  0.00  0.00    +0.600 A 
ATOM      6  N   LIG    1        1.226  -1.998   0.040  0.00  0.00    -0.560 N 
ATOM      7  C   LIG    1        2.523  -2.677   0.089  0.00  0.00    +0.350 C 
ATOM      8  O   LIG    1        0.196  -3.784   0.881  0.00  0.00    -0.490 OA
ATOM      9  C   LIG    1        1.148  -0.740  -0.430  0.00  0.00    +0.710 A 
ATOM     10  O   LIG    1        2.159  -0.178  -0.805  0.00  0.00    -0.520 OA
ENDROOT
BRANCH   4  11
ATOM     11  S   LIG    1       -2.585  -2.809   0.957  0.00  0.00    +2.740 S 
ATOM     12  O   LIG    1       -3.526  -1.790   1.263  0.00  0.00    -0.970 OA
ATOM     13  O   LIG    1       -2.168  -3.791   1.896  0.00  0.00    -0.930 OA
BRANCH  11  14
ATOM     14  N   LIG    1       -3.196  -3.635  -0.342  0.00  0.00    -1.250 NA
ATOM     15  H   LIG    1       -3.055  -3.299  -1.241  0.00  0.00    +0.410 HD
ATOM     16  H   LIG    1       -3.695  -4.455  -0.204  0.00  0.00    +0.420 HD
ENDBRANCH  11  14
ENDBRANCH   4  11
BRANCH   3  17
ATOM     17  N   LIG    1       -2.383  -0.048  -0.123  0.00  0.00    -0.820 N 
ATOM     18  H   LIG    1       -3.210  -0.550  -0.187  0.00  0.00    +0.440 HD
ATOM     19  H   LIG    1       -2.404   0.921  -0.100  0.00  0.00    +0.420 HD
ENDBRANCH   3  17
TORSDOF 3
ENDMDL
MODEL      975
REMARK  Name = ZINC000001698414
REMARK                            x       y       z     vdW  Elec       q    Type
REMARK                         _______ _______ _______ _____ _____    ______ ____
ROOT
ATOM      1  O   LIG    1        0.002  -0.004   0.002  0.00  0.00    -0.530 OA
ATOM      2  C   LIG    1       -0.014   1.212   0.009  0.00  0.00    +0.730 C 
ATOM      3  N   LIG    1       -1.160   1.951   0.029  0.00  0.00    -0.720 N 
ATOM      4  H   LIG    1       -2.063   1.638  -0.139  0.00  0.00    +0.440 HD
ATOM      5  C   LIG    1       -0.748   3.302   0.354  0.00  0.00    +0.300 C 
ATOM      6  C   LIG    1       -1.468   4.486  -0.187  0.00  0.00    +0.540 C 
ATOM      7  N   LIG    1       -0.728   5.633  -0.236  0.00  0.00    -0.670 N 
ATOM      8  H   LIG    1       -1.146   6.455  -0.539  0.00  0.00    +0.440 HD
ATOM      9  C   LIG    1        0.570   5.649   0.127  0.00  0.00    +0.740 C 
ATOM     10  N   LIG    1        1.323   4.511   0.155  0.00  0.00    -0.710 N 
ATOM     11  H   LIG    1        2.241   4.505   0.466  0.00  0.00    +0.440 HD
ATOM     12  O   LIG    1        1.084   6.706   0.438  0.00  0.00    -0.520 OA
ATOM     13  O   LIG    1       -2.622   4.436  -0.556  0.00  0.00    -0.450 OA
ATOM     14  C   LIG    1        0.661   3.321  -0.307  0.00  0.00    +0.540 C 
ATOM     15  N   LIG    1        1.111   1.982   0.002  0.00  0.00    -0.720 N 
ATOM     16  H   LIG    1        2.022   1.693   0.167  0.00  0.00    +0.440 HD
ENDROOT
BRANCH   5  17
ATOM     17  O   LIG    1       -0.614   3.436   1.771  0.00  0.00    -0.530 OA
ATOM     18  H   LIG    1       -1.435   3.284   2.259  0.00  0.00    +0.400 HD
ENDBRANCH   5  17
BRANCH  14  19
ATOM     19  O   LIG    1        0.486   3.417  -1.722  0.00  0.00    -0.560 OA
ATOM     20  H   LIG    1        1.312   3.515  -2.215  0.00  0.00    +0.400 HD
ENDBRANCH  14  19
TORSDOF 2
ENDMDL
MODEL      976
REMARK  Name = ZINC000001698415
REMARK                            x       y       z     vdW  Elec       q    Type
REMARK                         _______ _______ _______ _____ _____    ______ ____
ROOT
ATOM      1  O   LIG    1        0.002  -0.004   0.002  0.00  0.00    -0.550 OA
ATOM      2  C   LIG    1       -0.014   1.212   0.009  0.00  0.00    +0.710 C 
ATOM      3  N   LIG    1       -1.147   1.926   0.029  0.00  0.00    -0.740 N 
ATOM      4  H   LIG    1       -2.043   1.556   0.040  0.00  0.00    +0.440 HD
ATOM      5  C   LIG    1       -0.819   3.358   0.033  0.00  0.00    +0.550 C 
ATOM      6  N   LIG    1       -1.454   3.933   1.229  0.00  0.00    -0.720 N 
ATOM      7  H   LIG    1       -2.421   3.950   1.302  0.00  0.00    +0.440 HD
ATOM      8  C   LIG    1       -0.700   4.432   2.219  0.00  0.00    +0.720 C 
ATOM      9  N   LIG    1        0.634   4.460   2.223  0.00  0.00    -0.660 N 
ATOM     10  H   LIG    1        1.078   4.846   2.994  0.00  0.00    +0.440 HD
ATOM     11  C   LIG    1        1.400   3.987   1.225  0.00  0.00    +0.510 C 
ATOM     12  O   LIG    1        2.609   4.046   1.297  0.00  0.00    -0.460 OA
ATOM     13  O   LIG    1       -1.275   4.894   3.185  0.00  0.00    -0.540 OA
ATOM     14  C   LIG    1        0.732   3.380   0.009  0.00  0.00    +0.350 C 
ATOM     15  N   LIG    1        1.098   1.956   0.002  0.00  0.00    -0.730 N 
ATOM     16  H   LIG    1        2.004   1.611  -0.010  0.00  0.00    +0.440 HD
ENDROOT
BRANCH   5  17
ATOM     17  O   LIG    1       -1.333   3.977  -1.149  0.00  0.00    -0.510 OA
ATOM     18  H   LIG    1       -2.295   3.927  -1.233  0.00  0.00    +0.400 HD
ENDBRANCH   5  17
BRANCH  14  19
ATOM     19  O   LIG    1        1.194   4.029  -1.177  0.00  0.00    -0.500 OA
ATOM     20  H   LIG    1        2.150   3.969  -1.312  0.00  0.00    +0.400 HD
ENDBRANCH  14  19
TORSDOF 2
ENDMDL
MODEL      977
REMARK  Name = ZINC000001698416
REMARK                            x       y       z     vdW  Elec       q    Type
REMARK                         _______ _______ _______ _____ _____    ______ ____
ROOT
ATOM      1  O   LIG    1        0.002  -0.004   0.002  0.00  0.00    -0.550 OA
ATOM      2  C   LIG    1       -0.014   1.212   0.009  0.00  0.00    +0.710 C 
ATOM      3  N   LIG    1       -1.147   1.926   0.029  0.00  0.00    -0.740 N 
ATOM      4  H   LIG    1       -2.043   1.556   0.040  0.00  0.00    +0.440 HD
ATOM      5  C   LIG    1       -0.819   3.358   0.031  0.00  0.00    +0.550 C 
ATOM      6  N   LIG    1       -1.489   3.945  -1.140  0.00  0.00    -0.720 N 
ATOM      7  H   LIG    1       -2.458   3.963  -1.185  0.00  0.00    +0.440 HD
ATOM      8  C   LIG    1       -0.764   4.455  -2.146  0.00  0.00    +0.720 C 
ATOM      9  N   LIG    1        0.569   4.484  -2.189  0.00  0.00    -0.660 N 
ATOM     10  H   LIG    1        0.991   4.877  -2.969  0.00  0.00    +0.440 HD
ATOM     11  C   LIG    1        1.364   4.000  -1.219  0.00  0.00    +0.510 C 
ATOM     12  O   LIG    1        2.571   4.060  -1.326  0.00  0.00    -0.460 OA
ATOM     13  O   LIG    1       -1.367   4.928  -3.090  0.00  0.00    -0.540 OA
ATOM     14  C   LIG    1        0.732   3.380   0.010  0.00  0.00    +0.350 C 
ATOM     15  N   LIG    1        1.098   1.956   0.002  0.00  0.00    -0.730 N 
ATOM     16  H   LIG    1        2.004   1.611  -0.010  0.00  0.00    +0.440 HD
ENDROOT
BRANCH   5  17
ATOM     17  O   LIG    1       -1.298   3.964   1.234  0.00  0.00    -0.510 OA
ATOM     18  H   LIG    1       -2.257   3.913   1.345  0.00  0.00    +0.400 HD
ENDBRANCH   5  17
BRANCH  14  19
ATOM     19  O   LIG    1        1.228   4.016   1.189  0.00  0.00    -0.500 OA
ATOM     20  H   LIG    1        2.188   3.955   1.294  0.00  0.00    +0.400 HD
ENDBRANCH  14  19
TORSDOF 2
ENDMDL
MODEL      978
REMARK  Name = ZINC000001709546
REMARK                            x       y       z     vdW  Elec       q    Type
REMARK                         _______ _______ _______ _____ _____    ______ ____
ROOT
ATOM      1  C1* LIG    1        0.183  -4.175  -0.022  0.00  0.00    +0.430 C 
ATOM      2  O4* LIG    1        1.141  -4.623   0.962  0.00  0.00    -0.330 OA
ATOM      3  C4* LIG    1        2.436  -4.403   0.361  0.00  0.00    +0.110 C 
ATOM      4  C3* LIG    1        2.261  -4.823  -1.116  0.00  0.00    +0.130 C 
ATOM      5  C2* LIG    1        0.743  -4.669  -1.374  0.00  0.00    +0.180 C 
ENDROOT
BRANCH   1   9
ATOM      6  C   LIG    1       -0.023  -0.006   0.065  0.00  0.00    +0.450 A 
ATOM      7  C   LIG    1       -0.845  -0.691  -0.815  0.00  0.00    -0.250 A 
ATOM      8  C   LIG    1       -0.774  -2.090  -0.843  0.00  0.00    +0.540 A 
ATOM      9  N   LIG    1        0.089  -2.713  -0.013  0.00  0.00    -0.550 N 
ATOM     10  C   LIG    1        0.866  -1.995   0.823  0.00  0.00    +0.620 A 
ATOM     11  O   LIG    1       -1.480  -2.734  -1.603  0.00  0.00    -0.540 OA
ATOM     12  N   LIG    1        0.816  -0.692   0.857  0.00  0.00    -0.560 NA
BRANCH   6  13
ATOM     13  N   LIG    1       -0.062   1.372   0.123  0.00  0.00    -0.830 N 
ATOM     14  H   LIG    1       -0.667   1.865  -0.454  0.00  0.00    +0.420 HD
ATOM     15  H   LIG    1        0.517   1.848   0.738  0.00  0.00    +0.410 HD
ENDBRANCH   6  13
ENDBRANCH   1   9
BRANCH   4  16
ATOM     16  O3* LIG    1        2.668  -6.180  -1.302  0.00  0.00    -0.540 OA
ATOM     17  H3* LIG    1        3.599  -6.343  -1.096  0.00  0.00    +0.380 HD
ENDBRANCH   4  16
BRANCH   5  18
ATOM     18  O2* LIG    1        0.166  -5.927  -1.730  0.00  0.00    -0.530 OA
ATOM     19  H2* LIG    1        0.527  -6.311  -2.541  0.00  0.00    +0.390 HD
ENDBRANCH   5  18
BRANCH   3  20
ATOM     20  C5* LIG    1        3.494  -5.273   1.043  0.00  0.00    +0.210 C 
BRANCH  20  21
ATOM     21  O5* LIG    1        3.669  -4.838   2.393  0.00  0.00    -0.560 OA
ATOM     22  H5* LIG    1        4.327  -5.346   2.887  0.00  0.00    +0.390 HD
ENDBRANCH  20  21
ENDBRANCH   3  20
TORSDOF 6
ENDMDL
MODEL      979
REMARK  Name = ZINC000001723459
REMARK                            x       y       z     vdW  Elec       q    Type
REMARK                         _______ _______ _______ _____ _____    ______ ____
ROOT
ATOM      1  C   LIG    1        0.657  -2.104  -1.120  0.00  0.00    -0.190 C 
ATOM      2  C   LIG    1       -0.691  -2.654  -1.503  0.00  0.00    +0.370 C 
ATOM      3  O   LIG    1       -0.795  -2.218  -2.918  0.00  0.00    -0.340 OA
ATOM      4  C   LIG    1        0.458  -2.041  -3.443  0.00  0.00    +0.520 C 
ATOM      5  O   LIG    1        0.728  -1.559  -4.518  0.00  0.00    -0.410 OA
ATOM      6  C   LIG    1        1.605  -2.622  -0.122  0.00  0.00    +0.520 C 
ATOM      7  O   LIG    1        1.333  -3.113   0.948  0.00  0.00    -0.400 OA
ATOM      8  O   LIG    1        2.853  -2.439  -0.639  0.00  0.00    -0.330 OA
ATOM      9  C   LIG    1        2.752  -1.990  -2.050  0.00  0.00    +0.340 C 
ATOM     10  C   LIG    1        1.411  -2.549  -2.445  0.00  0.00    -0.030 C 
ENDROOT
BRANCH   1  11
ATOM     11  C   LIG    1        0.598  -0.600  -1.043  0.00  0.00    +0.480 C 
ATOM     12  O   LIG    1        1.088   0.070  -1.921  0.00  0.00    -0.470 OA
BRANCH  11  14
ATOM     13  C   LIG    1       -0.018   1.448   0.010  0.00  0.00    +0.280 C 
ATOM     14  O   LIG    1        0.002  -0.004   0.002  0.00  0.00    -0.340 OA
ENDBRANCH  11  14
ENDBRANCH   1  11
TORSDOF 2
ENDMDL
MODEL      980
REMARK  Name = ZINC000001842507
REMARK                            x       y       z     vdW  Elec       q    Type
REMARK                         _______ _______ _______ _____ _____    ______ ____
ROOT
ATOM      1  C   LIG    1       -1.208   1.833  -0.210  0.00  0.00    +0.130 C 
ATOM      2  C   LIG    1       -0.862   0.366  -0.234  0.00  0.00    -0.250 A 
ATOM      3  C   LIG    1       -1.832  -0.568  -0.134  0.00  0.00    +0.340 A 
ATOM      4  N   LIG    1       -1.500  -1.895  -0.157  0.00  0.00    -0.550 N 
ATOM      5  C   LIG    1       -0.216  -2.278  -0.279  0.00  0.00    +0.700 A 
ATOM      6  N   LIG    1        0.770  -1.368  -0.381  0.00  0.00    -0.660 N 
ATOM      7  H   LIG    1        1.691  -1.662  -0.468  0.00  0.00    +0.430 HD
ATOM      8  O   LIG    1        0.056  -3.463  -0.298  0.00  0.00    -0.520 OA
ATOM      9  C   LIG    1        0.484  -0.051  -0.367  0.00  0.00    +0.550 A 
ATOM     10  O   LIG    1        1.376   0.773  -0.460  0.00  0.00    -0.510 OA
ENDROOT
BRANCH   4  11
ATOM     11  C   LIG    1       -2.553  -2.908  -0.049  0.00  0.00    +0.510 C 
BRANCH  11  12
ATOM     12  O   LIG    1       -2.531  -3.479   1.261  0.00  0.00    -0.360 OA
BRANCH  12  13
ATOM     13  C   LIG    1       -3.130  -2.656   2.264  0.00  0.00    +0.180 C 
BRANCH  13  14
ATOM     14  C   LIG    1       -3.141  -3.404   3.599  0.00  0.00    +0.200 C 
BRANCH  14  15
ATOM     15  O   LIG    1       -1.797  -3.615   4.037  0.00  0.00    -0.570 OA
ATOM     16  H   LIG    1       -1.727  -4.085   4.879  0.00  0.00    +0.380 HD
ENDBRANCH  14  15
ENDBRANCH  13  14
ENDBRANCH  12  13
ENDBRANCH  11  12
ENDBRANCH   4  11
TORSDOF 5
ENDMDL
MODEL      981
REMARK  Name = ZINC000001867011
REMARK                            x       y       z     vdW  Elec       q    Type
REMARK                         _______ _______ _______ _____ _____    ______ ____
ROOT
ATOM      1  O   LIG    1       -0.375  -0.125  -0.027  0.00  0.00    -0.400 OA
ATOM      2  C   LIG    1       -0.413   1.082  -0.032  0.00  0.00    +0.390 C 
ATOM      3  C   LIG    1       -1.734   1.817   0.023  0.00  0.00    -0.100 C 
ATOM      4  C   LIG    1       -1.668   2.853   1.150  0.00  0.00    +0.050 C 
ATOM      5  C   LIG    1       -0.452   3.757   0.940  0.00  0.00    +0.020 C 
ATOM      6  C   LIG    1        0.831   2.930   1.038  0.00  0.00    +0.050 C 
ATOM      7  C   LIG    1        0.860   1.897  -0.088  0.00  0.00    -0.110 C 
ENDROOT
BRANCH   3   8
ATOM      8  C   LIG    1       -2.864   0.823   0.299  0.00  0.00    +0.200 C 
BRANCH   8   9
ATOM      9  O   LIG    1       -2.906  -0.151  -0.746  0.00  0.00    -0.560 OA
ATOM     10  H   LIG    1       -3.601  -0.815  -0.636  0.00  0.00    +0.380 HD
ENDBRANCH   8   9
ENDBRANCH   3   8
BRANCH   3  11
ATOM     11  C   LIG    1       -1.985   2.523  -1.310  0.00  0.00    +0.210 C 
BRANCH  11  12
ATOM     12  O   LIG    1       -3.303   3.075  -1.316  0.00  0.00    -0.570 OA
ATOM     13  H   LIG    1       -3.531   3.539  -2.134  0.00  0.00    +0.380 HD
ENDBRANCH  11  12
ENDBRANCH   3  11
BRANCH   7  14
ATOM     14  C   LIG    1        0.945   2.611  -1.438  0.00  0.00    +0.190 C 
BRANCH  14  15
ATOM     15  O   LIG    1        0.802   1.656  -2.492  0.00  0.00    -0.540 OA
ATOM     16  H   LIG    1        0.846   2.039  -3.378  0.00  0.00    +0.370 HD
ENDBRANCH  14  15
ENDBRANCH   7  14
BRANCH   7  17
ATOM     17  C   LIG    1        2.070   0.978   0.089  0.00  0.00    +0.190 C 
BRANCH  17  18
ATOM     18  O   LIG    1        2.093   0.013  -0.965  0.00  0.00    -0.540 OA
ATOM     19  H   LIG    1        2.836  -0.605  -0.916  0.00  0.00    +0.370 HD
ENDBRANCH  17  18
ENDBRANCH   7  17
TORSDOF 8
ENDMDL
MODEL      982
REMARK  Name = ZINC000217406853
REMARK                            x       y       z     vdW  Elec       q    Type
REMARK                         _______ _______ _______ _____ _____    ______ ____
ROOT
ATOM      1  C   LIG    1       -2.089  -0.679   1.279  0.00  0.00    +0.280 C 
ATOM      2  C   LIG    1       -3.348   0.211   1.264  0.00  0.00    -0.280 C 
ATOM      3  S   LIG    1       -4.663  -0.949   0.714  0.00  0.00    +2.380 S 
ATOM      4  C   LIG    1       -3.943  -2.395   1.592  0.00  0.00    -0.320 C 
ATOM      5  O   LIG    1       -4.576  -1.146  -0.691  0.00  0.00    -0.920 OA
ATOM      6  O   LIG    1       -5.902  -0.591   1.311  0.00  0.00    -0.920 OA
ATOM      7  C   LIG    1       -2.429  -2.153   1.463  0.00  0.00    +0.190 C 
ENDROOT
BRANCH   1   8
ATOM      8  N   LIG    1       -1.372  -0.511   0.012  0.00  0.00    -0.620 N 
ATOM      9  C   LIG    1       -0.360   0.375  -0.077  0.00  0.00    +0.640 C 
ATOM     10  O   LIG    1        0.013   0.971   0.911  0.00  0.00    -0.540 OA
BRANCH   8  12
ATOM     11  C   LIG    1       -0.831  -2.519  -1.274  0.00  0.00    +0.020 C 
ATOM     12  C   LIG    1       -1.756  -1.306  -1.157  0.00  0.00    +0.270 C 
ENDBRANCH   8  12
ENDBRANCH   1   8
BRANCH   7  13
ATOM     13  O   LIG    1       -1.781  -2.627   2.646  0.00  0.00    -0.550 OA
ATOM     14  H   LIG    1       -1.893  -3.575   2.802  0.00  0.00    +0.390 HD
ENDBRANCH   7  13
TORSDOF 3
ENDMDL
MODEL      983
REMARK  Name = ZINC000217406779
REMARK                            x       y       z     vdW  Elec       q    Type
REMARK                         _______ _______ _______ _____ _____    ______ ____
ROOT
ATOM      1  C   LIG    1       -2.047  -0.771   1.286  0.00  0.00    +0.280 C 
ATOM      2  C   LIG    1       -2.423  -2.265   1.357  0.00  0.00    -0.300 C 
ATOM      3  S   LIG    1       -4.009  -2.245   2.285  0.00  0.00    +2.390 S 
ATOM      4  C   LIG    1       -4.578  -0.660   1.548  0.00  0.00    -0.310 C 
ATOM      5  O   LIG    1       -3.754  -2.068   3.672  0.00  0.00    -0.930 OA
ATOM      6  O   LIG    1       -4.841  -3.309   1.841  0.00  0.00    -0.930 OA
ATOM      7  C   LIG    1       -3.268   0.134   1.393  0.00  0.00    +0.190 C 
ENDROOT
BRANCH   1   8
ATOM      8  N   LIG    1       -1.372  -0.511   0.012  0.00  0.00    -0.600 N 
ATOM      9  C   LIG    1       -2.016  -0.738  -1.150  0.00  0.00    +0.640 C 
ATOM     10  O   LIG    1       -3.154  -1.158  -1.141  0.00  0.00    -0.540 OA
BRANCH   8  12
ATOM     11  C   LIG    1       -0.019   1.526   0.010  0.00  0.00    +0.020 C 
ATOM     12  C   LIG    1        0.002  -0.004   0.002  0.00  0.00    +0.270 C 
ENDBRANCH   8  12
ENDBRANCH   1   8
BRANCH   7  13
ATOM     13  O   LIG    1       -3.351   0.938   0.214  0.00  0.00    -0.540 OA
ATOM     14  H   LIG    1       -4.064   1.590   0.232  0.00  0.00    +0.380 HD
ENDBRANCH   7  13
TORSDOF 3
ENDMDL
MODEL      984
REMARK  Name = ZINC000002172998
REMARK                            x       y       z     vdW  Elec       q    Type
REMARK                         _______ _______ _______ _____ _____    ______ ____
ROOT
ATOM      1  C   LIG    1       -0.018   1.461   0.010  0.00  0.00    +0.340 C 
ATOM      2  N   LIG    1        0.002  -0.004   0.002  0.00  0.00    -0.470 N 
ATOM      3  C   LIG    1        0.009  -0.806  -1.107  0.00  0.00    +0.500 A 
ATOM      4  N   LIG    1        0.027  -2.061  -0.734  0.00  0.00    -0.440 NA
ATOM      5  C   LIG    1        0.033  -2.119   0.624  0.00  0.00    -0.070 A 
ATOM      6  C   LIG    1        0.052  -3.211   1.596  0.00  0.00    +0.590 A 
ATOM      7  O   LIG    1        0.061  -4.372   1.228  0.00  0.00    -0.480 OA
ATOM      8  N   LIG    1        0.050  -2.904   2.911  0.00  0.00    -0.550 N 
ATOM      9  C   LIG    1        0.064  -3.981   3.905  0.00  0.00    +0.360 C 
ATOM     10  C   LIG    1        0.040  -1.625   3.321  0.00  0.00    +0.710 A 
ATOM     11  O   LIG    1        0.043  -1.390   4.514  0.00  0.00    -0.530 OA
ATOM     12  N   LIG    1        0.027  -0.595   2.457  0.00  0.00    -0.510 N 
ATOM     13  C   LIG    1        0.017   0.778   2.967  0.00  0.00    +0.330 C 
ATOM     14  C   LIG    1        0.024  -0.815   1.098  0.00  0.00    +0.250 A 
ENDROOT
BRANCH   3  15
ATOM     15  N   LIG    1       -0.002  -0.360  -2.417  0.00  0.00    -0.560 N 
ATOM     16  H   LIG    1       -0.015   0.591  -2.605  0.00  0.00    +0.410 HD
BRANCH  15  17
ATOM     17  N   LIG    1        0.006  -1.260  -3.444  0.00  0.00    -0.580 NA
ATOM     18  H   LIG    1       -0.004  -0.790  -4.337  0.00  0.00    +0.360 HD
ATOM     19  H   LIG    1       -0.767  -1.905  -3.367  0.00  0.00    +0.350 HD
ENDBRANCH  15  17
ENDBRANCH   3  15
TORSDOF 2
ENDMDL
MODEL      985
REMARK  Name = ZINC000004982791
REMARK                            x       y       z     vdW  Elec       q    Type
REMARK                         _______ _______ _______ _____ _____    ______ ____
ROOT
ATOM      1  C   LIG    1        1.288  -4.565  -2.446  0.00  0.00    +0.180 C 
ENDROOT
BRANCH   1   2
ATOM      2  O   LIG    1       -0.104  -4.888  -2.458  0.00  0.00    -0.540 OA
ATOM      3  H   LIG    1       -0.570  -4.588  -3.251  0.00  0.00    +0.370 HD
ENDBRANCH   1   2
BRANCH   1   4
ATOM      4  C   LIG    1        1.461  -3.047  -2.524  0.00  0.00    +0.210 C 
BRANCH   4   5
ATOM      5  O   LIG    1        2.853  -2.725  -2.512  0.00  0.00    -0.540 OA
ATOM      6  H   LIG    1        3.319  -3.025  -1.719  0.00  0.00    +0.370 HD
ENDBRANCH   4   5
BRANCH   4   7
ATOM      7  C   LIG    1        0.775  -2.394  -1.322  0.00  0.00    +0.060 C 
BRANCH   7   8
ATOM      8  S   LIG    1        0.851  -0.589  -1.490  0.00  0.00    -0.240 S 
BRANCH   8  10
ATOM      9  C   LIG    1       -0.019   1.526   0.010  0.00  0.00    +0.070 C 
ATOM     10  C   LIG    1        0.002  -0.004   0.002  0.00  0.00    +0.060 C 
ENDBRANCH   8  10
ENDBRANCH   7   8
ENDBRANCH   4   7
ENDBRANCH   1   4
BRANCH   1  11
ATOM     11  C   LIG    1        1.974  -5.219  -3.648  0.00  0.00    +0.170 C 
BRANCH  11  12
ATOM     12  O   LIG    1        1.464  -4.649  -4.855  0.00  0.00    -0.540 OA
ATOM     13  H   LIG    1        0.511  -4.764  -4.973  0.00  0.00    +0.370 HD
ENDBRANCH  11  12
BRANCH  11  14
ATOM     14  C   LIG    1        1.696  -6.723  -3.637  0.00  0.00    +0.190 C 
BRANCH  14  15
ATOM     15  O   LIG    1        2.205  -7.294  -2.430  0.00  0.00    -0.540 OA
ATOM     16  H   LIG    1        3.158  -7.179  -2.312  0.00  0.00    +0.370 HD
ENDBRANCH  14  15
BRANCH  14  17
ATOM     17  C   LIG    1        2.381  -7.377  -4.839  0.00  0.00    +0.150 C 
BRANCH  17  18
ATOM     18  O   LIG    1        2.027  -8.760  -4.895  0.00  0.00    -0.570 OA
ATOM     19  H   LIG    1        2.427  -9.239  -5.634  0.00  0.00    +0.380 HD
ENDBRANCH  17  18
ENDBRANCH  14  17
ENDBRANCH  11  14
ENDBRANCH   1  11
TORSDOF 12
ENDMDL
MODEL      986
REMARK  Name = ZINC000217406938
REMARK                            x       y       z     vdW  Elec       q    Type
REMARK                         _______ _______ _______ _____ _____    ______ ____
ROOT
ATOM      1  C   LIG    1       -2.047  -0.771   1.286  0.00  0.00    +0.280 C 
ATOM      2  C   LIG    1       -2.423  -2.265   1.357  0.00  0.00    -0.300 C 
ATOM      3  S   LIG    1       -4.009  -2.245   2.285  0.00  0.00    +2.390 S 
ATOM      4  C   LIG    1       -4.578  -0.660   1.548  0.00  0.00    -0.320 C 
ATOM      5  O   LIG    1       -3.754  -2.068   3.672  0.00  0.00    -0.920 OA
ATOM      6  O   LIG    1       -4.841  -3.309   1.841  0.00  0.00    -0.930 OA
ATOM      7  C   LIG    1       -3.268   0.134   1.393  0.00  0.00    +0.200 C 
ENDROOT
BRANCH   1   8
ATOM      8  N   LIG    1       -1.372  -0.511   0.012  0.00  0.00    -0.610 N 
ATOM      9  C   LIG    1       -2.016  -0.738  -1.150  0.00  0.00    +0.630 C 
ATOM     10  O   LIG    1       -3.154  -1.158  -1.141  0.00  0.00    -0.550 OA
BRANCH   8  12
ATOM     11  C   LIG    1       -0.019   1.526   0.010  0.00  0.00    +0.010 C 
ATOM     12  C   LIG    1        0.002  -0.004   0.002  0.00  0.00    +0.280 C 
ENDBRANCH   8  12
ENDBRANCH   1   8
BRANCH   7  13
ATOM     13  O   LIG    1       -3.107   0.988   2.527  0.00  0.00    -0.560 OA
ATOM     14  H   LIG    1       -3.811   1.642   2.631  0.00  0.00    +0.390 HD
ENDBRANCH   7  13
TORSDOF 3
ENDMDL
MODEL      987
REMARK  Name = ZINC000002384865
REMARK                            x       y       z     vdW  Elec       q    Type
REMARK                         _______ _______ _______ _____ _____    ______ ____
ROOT
ATOM      1  CA  PRO A  1       -1.330   1.951   0.019  0.00  0.00    +0.150 C 
ATOM      2  CB  PRO A  1       -1.816   2.177  -1.428  0.00  0.00    +0.070 C 
ATOM      3  CG  PRO A  1       -3.348   1.961  -1.318  0.00  0.00    +0.180 C 
ATOM      4  CD  PRO A  1       -3.428   0.835  -0.257  0.00  0.00    +0.230 C 
ATOM      5  N   PRO A  1       -2.349   1.143   0.704  0.00  0.00    -0.550 N 
ATOM      6  C   PRO A  1       -2.307   0.746   1.992  0.00  0.00    +0.510 C 
ATOM      7  O   PRO A  1       -1.368   1.059   2.692  0.00  0.00    -0.530 OA
ENDROOT
BRANCH   6   8
ATOM      8  CA  PRO A  1       -3.427  -0.086   2.561  0.00  0.00    +0.170 C 
ATOM      9  CB  PRO A  1       -3.514  -1.448   1.827  0.00  0.00    +0.100 C 
ATOM     10  CG  PRO A  1       -4.210  -2.334   2.893  0.00  0.00    +0.080 C 
ATOM     11  CD  PRO A  1       -3.627  -1.804   4.220  0.00  0.00    +0.250 C 
ATOM     12  N   PRO A  1       -3.147  -0.431   3.971  0.00  0.00    -0.500 N 
ATOM     13  H1  PRO A  1       -3.629   0.213   4.580  0.00  0.00    +0.430 HD
ATOM     14  H2  PRO A  1       -2.154  -0.382   4.140  0.00  0.00    +0.440 HD
ENDBRANCH   6   8
BRANCH   1  16
ATOM     15  O   PRO A  1        0.002  -0.004   0.002  0.00  0.00    -0.690 OA
ATOM     16  C   PRO A  1       -0.015   1.215   0.009  0.00  0.00    +0.500 C 
ATOM     17  OXT PRO A  1        1.033   1.839   0.002  0.00  0.00    -0.680 OA
ENDBRANCH   1  16
BRANCH   3  18
ATOM     18  OD  PRO A  1       -4.001   3.146  -0.857  0.00  0.00    -0.550 OA
ATOM     19  HD  PRO A  1       -4.960   3.059  -0.772  0.00  0.00    +0.380 HD
ENDBRANCH   3  18
TORSDOF 3
ENDMDL
MODEL      988
REMARK  Name = ZINC000002391100
REMARK                            x       y       z     vdW  Elec       q    Type
REMARK                         _______ _______ _______ _____ _____    ______ ____
ROOT
ATOM      1  C   ALA A  1        0.731  -0.503   1.223  0.00  0.00    +0.500 C 
ATOM      2  N   ALA A  2        2.019  -0.161   1.426  0.00  0.00    -0.680 N 
ATOM      3  H   ALA A  2        2.476   0.406   0.786  0.00  0.00    +0.420 HD
ATOM      4  O   ALA A  1        0.159  -1.213   2.023  0.00  0.00    -0.530 OA
ENDROOT
BRANCH   1   6
ATOM      5  CB  ALA A  1       -0.019   1.526   0.010  0.00  0.00    +0.130 C 
ATOM      6  CA  ALA A  1        0.002  -0.004   0.002  0.00  0.00    +0.180 C 
BRANCH   6   7
ATOM      7  N   ALA A  1       -1.376  -0.512   0.012  0.00  0.00    -0.620 N 
ATOM      8  H1  ALA A  1       -1.848  -0.187   0.843  0.00  0.00    +0.440 HD
ATOM      9  H2  ALA A  1       -1.362  -1.521   0.007  0.00  0.00    +0.440 HD
ATOM     10  H3  ALA A  1       -1.864  -0.178  -0.805  0.00  0.00    +0.440 HD
ENDBRANCH   6   7
ENDBRANCH   1   6
BRANCH   2  11
ATOM     11  CA  ALA A  2        2.727  -0.647   2.613  0.00  0.00    +0.240 C 
ATOM     12  CB  ALA A  2        3.294  -2.040   2.334  0.00  0.00    +0.070 C 
BRANCH  11  13
ATOM     13  C   ALA A  2        3.854   0.297   2.946  0.00  0.00    +0.500 C 
ATOM     14  N   GLY A  3        4.648   0.050   4.006  0.00  0.00    -0.680 N 
ATOM     15  H   GLY A  3        4.495  -0.735   4.555  0.00  0.00    +0.410 HD
ATOM     16  O   ALA A  2        4.047   1.278   2.259  0.00  0.00    -0.560 OA
BRANCH  14  17
ATOM     17  CA  GLY A  3        5.744   0.967   4.330  0.00  0.00    +0.190 C 
BRANCH  17  18
ATOM     18  C   GLY A  3        6.473   0.468   5.551  0.00  0.00    +0.490 C 
ATOM     19  OXT GLY A  3        7.425   1.091   5.990  0.00  0.00    -0.680 OA
ATOM     20  O   GLY A  3        6.111  -0.559   6.100  0.00  0.00    -0.690 OA
ENDBRANCH  17  18
ENDBRANCH  14  17
ENDBRANCH  11  13
ENDBRANCH   2  11
TORSDOF 6
ENDMDL
MODEL      989
REMARK  Name = ZINC000070453834
REMARK                            x       y       z     vdW  Elec       q    Type
REMARK                         _______ _______ _______ _____ _____    ______ ____
ROOT
ATOM      1  C   LIG    1       -1.268  -0.761   0.010  0.00  0.00    -0.130 A 
ATOM      2  C   LIG    1       -1.263  -2.160   0.008  0.00  0.00    +0.130 A 
ATOM      3  C   LIG    1       -2.479  -2.821   0.017  0.00  0.00    +0.090 A 
ATOM      4  C   LIG    1       -3.649  -2.084   0.026  0.00  0.00    -0.430 A 
ATOM      5  N   LIG    1       -3.624  -0.765   0.028  0.00  0.00    -0.390 NA
ATOM      6  C   LIG    1       -2.493  -0.091   0.025  0.00  0.00    +0.280 A 
ENDROOT
BRANCH   1  10
ATOM      7  N   LIG    1       -0.016   1.344   0.009  0.00  0.00    -0.840 N 
ATOM      8  H   LIG    1       -0.863   1.817   0.016  0.00  0.00    +0.400 HD
ATOM      9  H   LIG    1        0.817   1.840   0.004  0.00  0.00    +0.410 HD
ATOM     10  C   LIG    1        0.002  -0.004   0.002  0.00  0.00    +0.560 C 
ATOM     11  O   LIG    1        1.063  -0.597  -0.011  0.00  0.00    -0.520 OA
ENDBRANCH   1  10
BRANCH   4  12
ATOM     12  S   LIG    1       -5.200  -2.921   0.037  0.00  0.00    +2.710 S 
ATOM     13  O   LIG    1       -4.964  -4.211  -0.511  0.00  0.00    -0.950 OA
ATOM     14  O   LIG    1       -6.151  -2.011  -0.499  0.00  0.00    -0.930 OA
BRANCH  12  15
ATOM     15  N   LIG    1       -5.620  -3.156   1.621  0.00  0.00    -1.250 NA
ATOM     16  H   LIG    1       -6.450  -3.605   1.842  0.00  0.00    +0.430 HD
ATOM     17  H   LIG    1       -5.034  -2.844   2.329  0.00  0.00    +0.420 HD
ENDBRANCH  12  15
ENDBRANCH   4  12
TORSDOF 3
ENDMDL
MODEL      990
REMARK  Name = ZINC000002522600
REMARK                            x       y       z     vdW  Elec       q    Type
REMARK                         _______ _______ _______ _____ _____    ______ ____
ROOT
ATOM      1  C   THR A  1       -1.414  -2.036   0.129  0.00  0.00    +0.500 C 
ATOM      2  N   SER A  2       -1.178  -2.793  -0.962  0.00  0.00    -0.650 N 
ATOM      3  H   SER A  2       -1.022  -2.370  -1.821  0.00  0.00    +0.400 HD
ATOM      4  O   THR A  1       -1.609  -2.564   1.202  0.00  0.00    -0.530 OA
ENDROOT
BRANCH   1   5
ATOM      5  CA  THR A  1       -1.433  -0.534   0.013  0.00  0.00    +0.140 C 
BRANCH   5   6
ATOM      6  N   THR A  1       -2.157   0.036   1.157  0.00  0.00    -0.620 N 
ATOM      7  H1  THR A  1       -3.103  -0.313   1.165  0.00  0.00    +0.440 HD
ATOM      8  H2  THR A  1       -2.170   1.042   1.080  0.00  0.00    +0.440 HD
ATOM      9  H3  THR A  1       -1.694  -0.229   2.014  0.00  0.00    +0.440 HD
ENDBRANCH   5   6
BRANCH   5  11
ATOM     10  CG2 THR A  1       -0.019   1.526   0.010  0.00  0.00    +0.050 C 
ATOM     11  CB  THR A  1        0.002  -0.004   0.002  0.00  0.00    +0.240 C 
BRANCH  11  12
ATOM     12  OG1 THR A  1        0.693  -0.477   1.160  0.00  0.00    -0.520 OA
ATOM     13  HG1 THR A  1        0.294  -0.202   1.996  0.00  0.00    +0.370 HD
ENDBRANCH  11  12
ENDBRANCH   5  11
ENDBRANCH   1   5
BRANCH   2  14
ATOM     14  CA  SER A  2       -1.159  -4.253  -0.849  0.00  0.00    +0.170 C 
BRANCH  14  15
ATOM     15  C   SER A  2        0.212  -4.706  -0.417  0.00  0.00    +0.500 C 
ATOM     16  OXT SER A  2        1.195  -4.056  -0.730  0.00  0.00    -0.670 OA
ATOM     17  O   SER A  2        0.338  -5.722   0.245  0.00  0.00    -0.690 OA
ENDBRANCH  14  15
BRANCH  14  18
ATOM     18  CB  SER A  2       -1.497  -4.874  -2.207  0.00  0.00    +0.190 C 
BRANCH  18  19
ATOM     19  OG  SER A  2       -0.469  -4.553  -3.146  0.00  0.00    -0.550 OA
ATOM     20  H   SER A  2       -0.617  -4.915  -4.030  0.00  0.00    +0.370 HD
ENDBRANCH  18  19
ENDBRANCH  14  18
ENDBRANCH   2  14
TORSDOF 8
ENDMDL
MODEL      991
REMARK  Name = ZINC000002522522
REMARK                            x       y       z     vdW  Elec       q    Type
REMARK                         _______ _______ _______ _____ _____    ______ ____
ROOT
ATOM      1  O   LIG    1        0.002  -0.004   0.002  0.00  0.00    -0.510 OA
ATOM      2  C   LIG    1       -0.014   1.214   0.009  0.00  0.00    +0.530 A 
ATOM      3  N   LIG    1       -1.188   1.878   0.029  0.00  0.00    -0.650 N 
ATOM      4  H   LIG    1       -2.022   1.384   0.038  0.00  0.00    +0.440 HD
ATOM      5  C   LIG    1       -1.207   3.224   0.037  0.00  0.00    +0.700 A 
ATOM      6  N   LIG    1       -0.064   3.933   0.024  0.00  0.00    -0.520 N 
ATOM      7  C   LIG    1        1.153   3.298   0.004  0.00  0.00    +0.310 A 
ATOM      8  O   LIG    1       -2.273   3.807   0.055  0.00  0.00    -0.530 OA
ATOM      9  C   LIG    1        1.201   1.946   0.001  0.00  0.00    -0.040 A 
ENDROOT
BRANCH   6  10
ATOM     10  C1* LIG    1       -0.118   5.397   0.033  0.00  0.00    +0.440 C 
ATOM     11  C2* LIG    1       -0.833   5.925  -1.237  0.00  0.00    +0.010 C 
ATOM     12  C3* LIG    1       -0.248   7.352  -1.369  0.00  0.00    +0.170 C 
ATOM     13  C4* LIG    1        1.062   7.300  -0.559  0.00  0.00    +0.190 C 
ATOM     14  O4* LIG    1        1.210   5.955  -0.067  0.00  0.00    -0.360 OA
BRANCH  12  15
ATOM     15  O3* LIG    1       -1.145   8.314  -0.812  0.00  0.00    -0.550 OA
ATOM     16  H3* LIG    1       -2.007   8.347  -1.249  0.00  0.00    +0.390 HD
ENDBRANCH  12  15
BRANCH  13  17
ATOM     17  C5* LIG    1        2.245   7.662  -1.458  0.00  0.00    +0.210 C 
BRANCH  17  18
ATOM     18  O5* LIG    1        3.438   7.725  -0.674  0.00  0.00    -0.560 OA
ATOM     19  H5* LIG    1        4.230   7.951  -1.181  0.00  0.00    +0.390 HD
ENDBRANCH  17  18
ENDBRANCH  13  17
ENDBRANCH   6  10
BRANCH   9  20
ATOM     20  O   LIG    1        2.399   1.298  -0.019  0.00  0.00    -0.450 OA
ATOM     21  H   LIG    1        2.324   0.334  -0.019  0.00  0.00    +0.410 HD
ENDBRANCH   9  20
TORSDOF 5
ENDMDL
MODEL      992
REMARK  Name = ZINC000002522621
REMARK                            x       y       z     vdW  Elec       q    Type
REMARK                         _______ _______ _______ _____ _____    ______ ____
ROOT
ATOM      1  C   THR A  1       -1.414  -2.036   0.129  0.00  0.00    +0.510 C 
ATOM      2  N   GLN A  2       -1.178  -2.793  -0.962  0.00  0.00    -0.660 N 
ATOM      3  H   GLN A  2       -1.022  -2.370  -1.821  0.00  0.00    +0.400 HD
ATOM      4  O   THR A  1       -1.609  -2.564   1.202  0.00  0.00    -0.530 OA
ENDROOT
BRANCH   1   5
ATOM      5  CA  THR A  1       -1.433  -0.534   0.013  0.00  0.00    +0.140 C 
BRANCH   5   6
ATOM      6  N   THR A  1       -2.157   0.036   1.157  0.00  0.00    -0.620 N 
ATOM      7  H1  THR A  1       -1.694  -0.229   2.014  0.00  0.00    +0.440 HD
ATOM      8  H2  THR A  1       -3.103  -0.313   1.165  0.00  0.00    +0.440 HD
ATOM      9  H3  THR A  1       -2.170   1.042   1.080  0.00  0.00    +0.440 HD
ENDBRANCH   5   6
BRANCH   5  11
ATOM     10  CG2 THR A  1       -0.019   1.526   0.010  0.00  0.00    +0.050 C 
ATOM     11  CB  THR A  1        0.002  -0.004   0.002  0.00  0.00    +0.250 C 
BRANCH  11  12
ATOM     12  OG1 THR A  1        0.693  -0.477   1.160  0.00  0.00    -0.510 OA
ATOM     13  HG1 THR A  1        0.294  -0.202   1.996  0.00  0.00    +0.360 HD
ENDBRANCH  11  12
ENDBRANCH   5  11
ENDBRANCH   1   5
BRANCH   2  14
ATOM     14  CA  GLN A  2       -1.159  -4.253  -0.849  0.00  0.00    +0.160 C 
BRANCH  14  15
ATOM     15  C   GLN A  2        0.212  -4.706  -0.417  0.00  0.00    +0.490 C 
ATOM     16  OXT GLN A  2        0.442  -5.894  -0.264  0.00  0.00    -0.680 OA
ATOM     17  O   GLN A  2        1.091  -3.885  -0.222  0.00  0.00    -0.680 OA
ENDBRANCH  14  15
BRANCH  14  18
ATOM     18  CB  GLN A  2       -1.497  -4.874  -2.207  0.00  0.00    +0.070 C 
BRANCH  18  19
ATOM     19  CG  GLN A  2       -2.935  -4.516  -2.587  0.00  0.00    +0.030 C 
BRANCH  19  20
ATOM     20  CD  GLN A  2       -3.268  -5.127  -3.924  0.00  0.00    +0.510 C 
ATOM     21  OE1 GLN A  2       -2.437  -5.784  -4.514  0.00  0.00    -0.530 OA
ATOM     22  NE2 GLN A  2       -4.489  -4.943  -4.464  0.00  0.00    -0.860 N 
ATOM     23 HE21 GLN A  2       -4.703  -5.337  -5.324  0.00  0.00    +0.400 HD
ATOM     24 HE22 GLN A  2       -5.154  -4.418  -3.992  0.00  0.00    +0.400 HD
ENDBRANCH  19  20
ENDBRANCH  18  19
ENDBRANCH  14  18
ENDBRANCH   2  14
TORSDOF 9
ENDMDL
MODEL      993
REMARK  Name = ZINC000002530708
REMARK                            x       y       z     vdW  Elec       q    Type
REMARK                         _______ _______ _______ _____ _____    ______ ____
ROOT
ATOM      1  N   LIG    1       -2.807   1.334  -0.016  0.00  0.00    -0.540 N 
ATOM      2  C   LIG    1       -3.482   2.525  -0.082  0.00  0.00    +0.330 A 
ATOM      3  C   LIG    1       -4.101   2.880  -1.229  0.00  0.00    -0.050 A 
ATOM      4  C   LIG    1       -4.038   2.007  -2.345  0.00  0.00    +0.540 A 
ATOM      5  N   LIG    1       -3.363   0.845  -2.238  0.00  0.00    -0.650 N 
ATOM      6  H   LIG    1       -3.315   0.243  -2.997  0.00  0.00    +0.440 HD
ATOM      7  O   LIG    1       -4.587   2.305  -3.390  0.00  0.00    -0.470 OA
ATOM      8  F   LIG    1       -4.771   4.050  -1.312  0.00  0.00    -0.090 F 
ATOM      9  C   LIG    1       -2.751   0.519  -1.085  0.00  0.00    +0.680 A 
ATOM     10  O   LIG    1       -2.146  -0.533  -1.004  0.00  0.00    -0.530 OA
ENDROOT
BRANCH   1  11
ATOM     11  C   LIG    1       -2.135   0.949   1.227  0.00  0.00    +0.390 C 
BRANCH  11  12
ATOM     12  CA  LIG    1       -0.699   1.479   1.216  0.00  0.00    +0.070 C 
BRANCH  12  13
ATOM     13  N   LIG    1       -0.012   1.005   0.008  0.00  0.00    -0.610 N 
ATOM     14  H1  LIG    1       -0.500   1.339  -0.810  0.00  0.00    +0.400 HD
ATOM     15  H2  LIG    1        0.935   1.354   0.000  0.00  0.00    +0.440 HD
ATOM     16  H3  LIG    1        0.002  -0.004   0.002  0.00  0.00    +0.440 HD
ENDBRANCH  12  13
BRANCH  12  17
ATOM     17  C   LIG    1        0.030   0.979   2.437  0.00  0.00    +0.500 C 
ATOM     18  OXT LIG    1       -0.380   1.262   3.550  0.00  0.00    -0.630 OA
ATOM     19  O   LIG    1        1.029   0.293   2.312  0.00  0.00    -0.660 OA
ENDBRANCH  12  17
ENDBRANCH  11  12
ENDBRANCH   1  11
TORSDOF 4
ENDMDL
MODEL      994
REMARK  Name = ZINC000002556519
REMARK                            x       y       z     vdW  Elec       q    Type
REMARK                         _______ _______ _______ _____ _____    ______ ____
ROOT
ATOM      1  C   ALA A  1        0.707  -0.490  -1.238  0.00  0.00    +0.500 C 
ATOM      2  N   GLY A  2        0.053  -0.526  -2.415  0.00  0.00    -0.680 N 
ATOM      3  H   GLY A  2       -0.873  -0.239  -2.465  0.00  0.00    +0.420 HD
ATOM      4  O   ALA A  1        1.864  -0.849  -1.176  0.00  0.00    -0.530 OA
ENDROOT
BRANCH   1   6
ATOM      5  CB  ALA A  1       -0.019   1.526   0.010  0.00  0.00    +0.120 C 
ATOM      6  CA  ALA A  1        0.002  -0.004   0.002  0.00  0.00    +0.180 C 
BRANCH   6   7
ATOM      7  N   ALA A  1        0.713  -0.491   1.192  0.00  0.00    -0.620 N 
ATOM      8  H1  ALA A  1        0.240  -0.165   2.022  0.00  0.00    +0.440 HD
ATOM      9  H2  ALA A  1        1.659  -0.141   1.185  0.00  0.00    +0.440 HD
ATOM     10  H3  ALA A  1        0.726  -1.500   1.187  0.00  0.00    +0.440 HD
ENDBRANCH   6   7
ENDBRANCH   1   6
BRANCH   2  11
ATOM     11  CA  GLY A  2        0.738  -0.999  -3.621  0.00  0.00    +0.310 C 
BRANCH  11  12
ATOM     12  C   GLY A  2       -0.207  -0.940  -4.792  0.00  0.00    +0.500 C 
ATOM     13  N   ALA A  3        0.208  -1.329  -6.014  0.00  0.00    -0.680 N 
ATOM     14  H   ALA A  3        1.116  -1.647  -6.139  0.00  0.00    +0.410 HD
ATOM     15  O   GLY A  2       -1.343  -0.542  -4.636  0.00  0.00    -0.560 OA
BRANCH  13  16
ATOM     16  CA  ALA A  3       -0.712  -1.272  -7.153  0.00  0.00    +0.160 C 
ATOM     17  CB  ALA A  3       -0.691   0.135  -7.755  0.00  0.00    +0.030 C 
BRANCH  16  18
ATOM     18  C   ALA A  3       -0.282  -2.271  -8.196  0.00  0.00    +0.490 C 
ATOM     19  OXT ALA A  3        0.794  -2.834  -8.094  0.00  0.00    -0.690 OA
ATOM     20  O   ALA A  3       -1.011  -2.516  -9.142  0.00  0.00    -0.680 OA
ENDBRANCH  16  18
ENDBRANCH  13  16
ENDBRANCH  11  12
ENDBRANCH   2  11
TORSDOF 6
ENDMDL
MODEL      995
REMARK  Name = ZINC000002561137
REMARK                            x       y       z     vdW  Elec       q    Type
REMARK                         _______ _______ _______ _____ _____    ______ ____
ROOT
ATOM      1  C   VAL A  1       -1.413  -2.041   0.005  0.00  0.00    +0.500 C 
ATOM      2  N   ASN A  2       -1.212  -2.705  -1.150  0.00  0.00    -0.650 N 
ATOM      3  H   ASN A  2       -1.081  -2.214  -1.976  0.00  0.00    +0.400 HD
ATOM      4  O   VAL A  1       -1.577  -2.655   1.037  0.00  0.00    -0.530 OA
ENDROOT
BRANCH   1   5
ATOM      5  CA  VAL A  1       -1.433  -0.534   0.013  0.00  0.00    +0.170 C 
BRANCH   5   6
ATOM      6  N   VAL A  1       -2.121  -0.060   1.222  0.00  0.00    -0.620 N 
ATOM      7  H1  VAL A  1       -3.067  -0.409   1.229  0.00  0.00    +0.440 HD
ATOM      8  H2  VAL A  1       -2.135   0.949   1.227  0.00  0.00    +0.430 HD
ATOM      9  H3  VAL A  1       -1.633  -0.394   2.039  0.00  0.00    +0.440 HD
ENDBRANCH   5   6
BRANCH   5  11
ATOM     10  CG1 VAL A  1       -0.019   1.526   0.010  0.00  0.00    +0.050 C 
ATOM     11  CB  VAL A  1        0.002  -0.004   0.002  0.00  0.00    +0.020 C 
ATOM     12  CG2 VAL A  1        0.742  -0.511   1.242  0.00  0.00    +0.050 C 
ENDBRANCH   5  11
ENDBRANCH   1   5
BRANCH   2  13
ATOM     13  CA  ASN A  2       -1.192  -4.170  -1.159  0.00  0.00    +0.190 C 
BRANCH  13  14
ATOM     14  C   ASN A  2        0.190  -4.656  -0.806  0.00  0.00    +0.490 C 
ATOM     15  OXT ASN A  2        1.165  -3.982  -1.095  0.00  0.00    -0.680 OA
ATOM     16  O   ASN A  2        0.334  -5.722  -0.234  0.00  0.00    -0.670 OA
ENDBRANCH  13  14
BRANCH  13  17
ATOM     17  CB  ASN A  2       -1.572  -4.678  -2.551  0.00  0.00    +0.080 C 
BRANCH  17  18
ATOM     18  CG  ASN A  2       -2.998  -4.297  -2.853  0.00  0.00    +0.520 C 
ATOM     19  OD1 ASN A  2       -3.647  -3.680  -2.035  0.00  0.00    -0.550 OA
ATOM     20  ND2 ASN A  2       -3.553  -4.641  -4.032  0.00  0.00    -0.860 N 
ATOM     21 HD21 ASN A  2       -4.471  -4.396  -4.226  0.00  0.00    +0.400 HD
ATOM     22 HD22 ASN A  2       -3.034  -5.135  -4.686  0.00  0.00    +0.400 HD
ENDBRANCH  17  18
ENDBRANCH  13  17
ENDBRANCH   2  13
TORSDOF 7
ENDMDL
MODEL      996
REMARK  Name = ZINC000002560982
REMARK                            x       y       z     vdW  Elec       q    Type
REMARK                         _______ _______ _______ _____ _____    ______ ____
ROOT
ATOM      1  CA  GLN A  2       -3.499  -1.070  -1.120  0.00  0.00    +0.160 C 
ENDROOT
BRANCH   1   3
ATOM      2  C   ALA A  1       -1.412  -0.526   0.013  0.00  0.00    +0.500 C 
ATOM      3  N   GLN A  2       -2.125  -0.563  -1.130  0.00  0.00    -0.660 N 
ATOM      4  H   GLN A  2       -1.728  -0.253  -1.960  0.00  0.00    +0.400 HD
ATOM      5  O   ALA A  1       -1.908  -0.912   1.050  0.00  0.00    -0.540 OA
BRANCH   2   7
ATOM      6  CB  ALA A  1       -0.019   1.526   0.010  0.00  0.00    +0.110 C 
ATOM      7  CA  ALA A  1        0.002  -0.004   0.002  0.00  0.00    +0.170 C 
BRANCH   7   8
ATOM      8  N   ALA A  1        0.713  -0.491   1.192  0.00  0.00    -0.620 N 
ATOM      9  H1  ALA A  1        1.659  -0.141   1.185  0.00  0.00    +0.440 HD
ATOM     10  H2  ALA A  1        0.726  -1.500   1.187  0.00  0.00    +0.440 HD
ATOM     11  H3  ALA A  1        0.240  -0.165   2.022  0.00  0.00    +0.440 HD
ENDBRANCH   7   8
ENDBRANCH   2   7
ENDBRANCH   1   3
BRANCH   1  12
ATOM     12  C   GLN A  2       -3.482  -2.571  -1.252  0.00  0.00    +0.490 C 
ATOM     13  OXT GLN A  2       -4.530  -3.194  -1.265  0.00  0.00    -0.670 OA
ATOM     14  O   GLN A  2       -2.420  -3.162  -1.346  0.00  0.00    -0.690 OA
ENDBRANCH   1  12
BRANCH   1  15
ATOM     15  CB  GLN A  2       -4.276  -0.464  -2.291  0.00  0.00    +0.070 C 
BRANCH  15  16
ATOM     16  CG  GLN A  2       -4.400   1.048  -2.092  0.00  0.00    +0.030 C 
BRANCH  16  17
ATOM     17  CD  GLN A  2       -5.165   1.645  -3.245  0.00  0.00    +0.510 C 
ATOM     18  OE1 GLN A  2       -5.570   0.932  -4.139  0.00  0.00    -0.530 OA
ATOM     19  NE2 GLN A  2       -5.398   2.972  -3.284  0.00  0.00    -0.860 N 
ATOM     20 HE21 GLN A  2       -5.890   3.356  -4.027  0.00  0.00    +0.400 HD
ATOM     21 HE22 GLN A  2       -5.074   3.543  -2.570  0.00  0.00    +0.400 HD
ENDBRANCH  16  17
ENDBRANCH  15  16
ENDBRANCH   1  15
TORSDOF 7
ENDMDL
MODEL      997
REMARK  Name = ZINC000002560934
REMARK                            x       y       z     vdW  Elec       q    Type
REMARK                         _______ _______ _______ _____ _____    ______ ____
ROOT
ATOM      1  CA  GLN A  2        0.738  -0.999  -3.621  0.00  0.00    +0.160 C 
ENDROOT
BRANCH   1   3
ATOM      2  C   ALA A  1        0.707  -0.490  -1.238  0.00  0.00    +0.490 C 
ATOM      3  N   GLN A  2        0.053  -0.526  -2.415  0.00  0.00    -0.660 N 
ATOM      4  H   GLN A  2       -0.873  -0.239  -2.465  0.00  0.00    +0.400 HD
ATOM      5  O   ALA A  1        1.864  -0.849  -1.176  0.00  0.00    -0.530 OA
BRANCH   2   7
ATOM      6  CB  ALA A  1       -0.019   1.526   0.010  0.00  0.00    +0.120 C 
ATOM      7  CA  ALA A  1        0.002  -0.004   0.002  0.00  0.00    +0.170 C 
BRANCH   7   8
ATOM      8  N   ALA A  1        0.713  -0.491   1.192  0.00  0.00    -0.620 N 
ATOM      9  H1  ALA A  1        0.726  -1.500   1.187  0.00  0.00    +0.440 HD
ATOM     10  H2  ALA A  1        0.240  -0.165   2.022  0.00  0.00    +0.440 HD
ATOM     11  H3  ALA A  1        1.659  -0.141   1.185  0.00  0.00    +0.440 HD
ENDBRANCH   7   8
ENDBRANCH   2   7
ENDBRANCH   1   3
BRANCH   1  12
ATOM     12  C   GLN A  2        0.652  -2.501  -3.691  0.00  0.00    +0.490 C 
ATOM     13  OXT GLN A  2        1.540  -3.138  -4.231  0.00  0.00    -0.670 OA
ATOM     14  O   GLN A  2       -0.307  -3.080  -3.209  0.00  0.00    -0.690 OA
ENDBRANCH   1  12
BRANCH   1  15
ATOM     15  CB  GLN A  2        0.073  -0.391  -4.857  0.00  0.00    +0.070 C 
BRANCH  15  16
ATOM     16  CG  GLN A  2        0.270   1.127  -4.848  0.00  0.00    +0.050 C 
BRANCH  16  17
ATOM     17  CD  GLN A  2       -0.385   1.726  -6.066  0.00  0.00    +0.510 C 
ATOM     18  OE1 GLN A  2       -0.953   1.009  -6.863  0.00  0.00    -0.530 OA
ATOM     19  NE2 GLN A  2       -0.340   3.057  -6.270  0.00  0.00    -0.860 N 
ATOM     20 HE21 GLN A  2       -0.761   3.442  -7.054  0.00  0.00    +0.400 HD
ATOM     21 HE22 GLN A  2        0.115   3.630  -5.632  0.00  0.00    +0.400 HD
ENDBRANCH  16  17
ENDBRANCH  15  16
ENDBRANCH   1  15
TORSDOF 7
ENDMDL
MODEL      998
REMARK  Name = ZINC000225503647
REMARK                            x       y       z     vdW  Elec       q    Type
REMARK                         _______ _______ _______ _____ _____    ______ ____
ROOT
ATOM      1  C   LIG    1        1.451   0.253   4.381  0.00  0.00    +0.190 C 
ATOM      2  C   LIG    1        2.780   0.983   4.664  0.00  0.00    +0.060 C 
ATOM      3  C   LIG    1        3.148   0.557   6.107  0.00  0.00    +0.020 C 
ATOM      4  C   LIG    1        2.713  -0.930   6.145  0.00  0.00    +0.150 C 
ATOM      5  C   LIG    1        1.407  -0.964   5.322  0.00  0.00    +0.100 C 
ENDROOT
BRANCH   1   6
ATOM      6  N   LIG    1        1.410  -0.193   2.982  0.00  0.00    -0.670 NA
ATOM      7  H   LIG    1        1.934  -1.046   2.858  0.00  0.00    +0.350 HD
BRANCH   6   8
ATOM      8  C   LIG    1        0.025  -0.354   2.521  0.00  0.00    +0.300 C 
BRANCH   8  14
ATOM      9  C   LIG    1       -0.018   1.461   0.010  0.00  0.00    +0.320 C 
ATOM     10  N   LIG    1        0.002  -0.004   0.002  0.00  0.00    -0.450 N 
ATOM     11  C   LIG    1        0.009  -0.810  -1.104  0.00  0.00    +0.130 A 
ATOM     12  C   LIG    1        0.029  -2.081  -0.660  0.00  0.00    +0.140 A 
ATOM     13  N   LIG    1        0.034  -2.052   0.681  0.00  0.00    -0.490 NA
ATOM     14  C   LIG    1        0.023  -0.811   1.085  0.00  0.00    +0.200 A 
ENDBRANCH   8  14
ENDBRANCH   6   8
ENDBRANCH   1   6
BRANCH   4  15
ATOM     15  O   LIG    1        2.470  -1.345   7.491  0.00  0.00    -0.540 OA
ATOM     16  H   LIG    1        2.195  -2.268   7.574  0.00  0.00    +0.370 HD
ENDBRANCH   4  15
BRANCH   5  17
ATOM     17  O   LIG    1        0.278  -0.871   6.193  0.00  0.00    -0.550 OA
ATOM     18  H   LIG    1        0.208  -1.600   6.825  0.00  0.00    +0.380 HD
ENDBRANCH   5  17
BRANCH   3  19
ATOM     19  C   LIG    1        4.653   0.692   6.346  0.00  0.00    +0.170 C 
BRANCH  19  20
ATOM     20  O   LIG    1        4.946   0.404   7.714  0.00  0.00    -0.560 OA
ATOM     21  H   LIG    1        5.885   0.471   7.938  0.00  0.00    +0.380 HD
ENDBRANCH  19  20
ENDBRANCH   3  19
TORSDOF 7
ENDMDL
MODEL      999
REMARK  Name = ZINC000225508358
REMARK                            x       y       z     vdW  Elec       q    Type
REMARK                         _______ _______ _______ _____ _____    ______ ____
ROOT
ATOM      1  C   LIG    1       -1.154  -2.126   0.002  0.00  0.00    +0.020 C 
ATOM      2  C   LIG    1       -2.545  -2.801   0.091  0.00  0.00    +0.060 C 
ATOM      3  C   LIG    1       -2.289  -4.198  -0.526  0.00  0.00    +0.270 C 
ATOM      4  C   LIG    1       -1.308  -3.925  -1.686  0.00  0.00    +0.120 C 
ATOM      5  C   LIG    1       -0.583  -2.607  -1.349  0.00  0.00    +0.140 C 
ENDROOT
BRANCH   4   6
ATOM      6  O   LIG    1       -0.362  -4.990  -1.788  0.00  0.00    -0.540 OA
ATOM      7  H   LIG    1        0.283  -4.877  -2.499  0.00  0.00    +0.370 HD
ENDBRANCH   4   6
BRANCH   3   8
ATOM      8  N   LIG    1       -3.538  -4.772  -1.032  0.00  0.00    -1.110 NA
ATOM      9  H   LIG    1       -4.213  -4.196  -1.425  0.00  0.00    +0.420 HD
BRANCH   8  10
ATOM     10  S   LIG    1       -3.798  -6.404  -0.934  0.00  0.00    +2.610 S 
ATOM     11  O   LIG    1       -2.630  -6.980  -1.503  0.00  0.00    -0.940 OA
ATOM     12  O   LIG    1       -5.073  -6.593  -1.533  0.00  0.00    -0.960 OA
ATOM     13  C   LIG    1       -3.874  -6.745   0.846  0.00  0.00    -0.280 C 
ENDBRANCH   8  10
ENDBRANCH   3   8
BRANCH   5  14
ATOM     14  O   LIG    1        0.823  -2.837  -1.238  0.00  0.00    -0.540 OA
ATOM     15  H   LIG    1        1.233  -3.161  -2.052  0.00  0.00    +0.370 HD
ENDBRANCH   5  14
BRANCH   1  16
ATOM     16  C   LIG    1       -1.295  -0.603   0.011  0.00  0.00    +0.170 C 
BRANCH  16  18
ATOM     17  C   LIG    1       -0.017   1.425   0.010  0.00  0.00    +0.200 C 
ATOM     18  O   LIG    1        0.002  -0.004   0.002  0.00  0.00    -0.380 OA
ENDBRANCH  16  18
ENDBRANCH   1  16
TORSDOF 6
ENDMDL
MODEL     1000
REMARK  Name = ZINC000002575516
REMARK                            x       y       z     vdW  Elec       q    Type
REMARK                         _______ _______ _______ _____ _____    ______ ____
ROOT
ATOM      1  C   LIG    1        0.877  -0.392  -1.539  0.00  0.00    +0.160 C 
ATOM      2  O   LIG    1        2.254  -0.033  -1.409  0.00  0.00    -0.340 OA
ATOM      3  C   LIG    1        3.033  -0.274  -2.583  0.00  0.00    +0.180 C 
ATOM      4  C   LIG    1        3.010  -1.769  -2.910  0.00  0.00    +0.170 C 
ATOM      5  C   LIG    1        1.558  -2.221  -3.095  0.00  0.00    +0.160 C 
ATOM      6  C   LIG    1        0.767  -1.892  -1.825  0.00  0.00    +0.160 C 
ENDROOT
BRANCH   1   8
ATOM      7  C   LIG    1       -0.022   1.810   0.012  0.00  0.00    +0.160 C 
ATOM      8  S   LIG    1        0.002  -0.004   0.002  0.00  0.00    -0.210 S 
ENDBRANCH   1   8
BRANCH   5   9
ATOM      9  O   LIG    1        1.522  -3.630  -3.331  0.00  0.00    -0.560 OA
ATOM     10  H   LIG    1        0.631  -3.985  -3.457  0.00  0.00    +0.400 HD
ENDBRANCH   5   9
BRANCH   4  11
ATOM     11  O   LIG    1        3.607  -2.502  -1.839  0.00  0.00    -0.550 OA
ATOM     12  H   LIG    1        3.626  -3.459  -1.979  0.00  0.00    +0.390 HD
ENDBRANCH   4  11
BRANCH   6  13
ATOM     13  O   LIG    1       -0.605  -2.244  -2.013  0.00  0.00    -0.560 OA
ATOM     14  H   LIG    1       -1.167  -2.063  -1.246  0.00  0.00    +0.390 HD
ENDBRANCH   6  13
BRANCH   3  15
ATOM     15  C   LIG    1        4.476   0.173  -2.337  0.00  0.00    +0.220 C 
BRANCH  15  16
ATOM     16  O   LIG    1        4.510   1.588  -2.146  0.00  0.00    -0.570 OA
ATOM     17  H   LIG    1        5.395   1.942  -1.985  0.00  0.00    +0.380 HD
ENDBRANCH  15  16
ENDBRANCH   3  15
TORSDOF 6
ENDMDL
MODEL     1001
REMARK  Name = ZINC000002575114
REMARK                            x       y       z     vdW  Elec       q    Type
REMARK                         _______ _______ _______ _____ _____    ______ ____
ROOT
ATOM      1  CB  ALA A  2       -0.019   1.526   0.010  0.00  0.00    +0.070 C 
ATOM      2  CA  ALA A  2        0.002  -0.004   0.002  0.00  0.00    +0.240 C 
ENDROOT
BRANCH   2   3
ATOM      3  C   ALA A  2        0.731  -0.503   1.223  0.00  0.00    +0.500 C 
ATOM      4  N   GLY A  3        2.019  -0.161   1.426  0.00  0.00    -0.680 N 
ATOM      5  H   GLY A  3        2.476   0.406   0.786  0.00  0.00    +0.410 HD
ATOM      6  O   ALA A  2        0.159  -1.213   2.023  0.00  0.00    -0.560 OA
BRANCH   4   7
ATOM      7  CA  GLY A  3        2.727  -0.647   2.613  0.00  0.00    +0.190 C 
BRANCH   7   8
ATOM      8  C   GLY A  3        4.141  -0.125   2.602  0.00  0.00    +0.490 C 
ATOM      9  OXT GLY A  3        4.904  -0.414   3.507  0.00  0.00    -0.680 OA
ATOM     10  O   GLY A  3        4.522   0.586   1.688  0.00  0.00    -0.690 OA
ENDBRANCH   7   8
ENDBRANCH   4   7
ENDBRANCH   2   3
BRANCH   2  11
ATOM     11  N   ALA A  2       -1.372  -0.511   0.012  0.00  0.00    -0.680 N 
ATOM     12  H   ALA A  2       -1.794  -0.752   0.852  0.00  0.00    +0.420 HD
ATOM     13  C   GLY A  1       -2.051  -0.643  -1.145  0.00  0.00    +0.500 C 
ATOM     14  O   GLY A  1       -1.524  -0.341  -2.194  0.00  0.00    -0.540 OA
BRANCH  13  15
ATOM     15  CA  GLY A  1       -3.465  -1.164  -1.134  0.00  0.00    +0.300 C 
BRANCH  15  16
ATOM     16  N   GLY A  1       -3.979  -1.213  -2.509  0.00  0.00    -0.620 N 
ATOM     17  H1  GLY A  1       -3.966  -0.286  -2.906  0.00  0.00    +0.440 HD
ATOM     18  H2  GLY A  1       -4.926  -1.562  -2.502  0.00  0.00    +0.440 HD
ATOM     19  H3  GLY A  1       -3.399  -1.825  -3.064  0.00  0.00    +0.440 HD
ENDBRANCH  15  16
ENDBRANCH  13  15
ENDBRANCH   2  11
TORSDOF 6
ENDMDL
MODEL     1002
REMARK  Name = ZINC000002597910
REMARK                            x       y       z     vdW  Elec       q    Type
REMARK                         _______ _______ _______ _____ _____    ______ ____
ROOT
ATOM      1  C   LIG    1       -0.018   1.461   0.010  0.00  0.00    +0.360 C 
ATOM      2  N   LIG    1        0.002  -0.004   0.002  0.00  0.00    -0.540 N 
ATOM      3  C   LIG    1        0.006  -0.673  -1.179  0.00  0.00    +0.580 A 
ATOM      4  C   LIG    1        0.026  -2.128  -1.123  0.00  0.00    -0.190 A 
ATOM      5  C   LIG    1        0.042  -2.804   0.103  0.00  0.00    +0.290 A 
ATOM      6  N   LIG    1        0.036  -2.019   1.248  0.00  0.00    -0.500 N 
ATOM      7  C   LIG    1        0.052  -2.660   2.565  0.00  0.00    +0.360 C 
ATOM      8  N   LIG    1        0.060  -4.125   0.144  0.00  0.00    -0.130 NA
ATOM      9  N   LIG    1        0.068  -5.036  -0.731  0.00  0.00    -0.150 NA
ATOM     10  C   LIG    1        0.059  -4.864  -2.079  0.00  0.00    +0.400 A 
ATOM     11  O   LIG    1        0.066  -5.786  -2.877  0.00  0.00    -0.360 OA
ATOM     12  S   LIG    1        0.034  -3.185  -2.547  0.00  0.00    +0.130 S 
ATOM     13  O   LIG    1       -0.007  -0.082  -2.242  0.00  0.00    -0.450 OA
ATOM     14  C   LIG    1        0.022  -0.679   1.163  0.00  0.00    +0.700 A 
ATOM     15  O   LIG    1        0.018  -0.039   2.197  0.00  0.00    -0.510 OA
ENDROOT
TORSDOF 0
ENDMDL
MODEL     1003
REMARK  Name = ZINC000141753353
REMARK                            x       y       z     vdW  Elec       q    Type
REMARK                         _______ _______ _______ _____ _____    ______ ____
ROOT
ATOM      1  C   LIG    1       -0.019   1.526   0.010  0.00  0.00    +0.100 C 
ATOM      2  C   LIG    1        0.002  -0.004   0.002  0.00  0.00    +0.250 C 
ATOM      3  O   LIG    1        0.750  -0.486  -1.135  0.00  0.00    -0.340 OA
ATOM      4  C   LIG    1        1.095  -1.839  -0.758  0.00  0.00    +0.140 C 
ATOM      5  C   LIG    1        1.348  -1.719   0.774  0.00  0.00    +0.150 C 
ATOM      6  C   LIG    1        2.873  -1.532   0.890  0.00  0.00    +0.130 C 
ATOM      7  O   LIG    1        3.383  -1.387  -0.446  0.00  0.00    -0.390 OA
ATOM      8  C   LIG    1        2.499  -2.160  -1.325  0.00  0.00    +0.350 C 
ATOM      9  C   LIG    1       -1.427  -0.551  -0.033  0.00  0.00    +0.030 C 
ATOM     10  O   LIG    1        0.695  -0.498   1.162  0.00  0.00    -0.330 OA
ENDROOT
BRANCH   8  11
ATOM     11  O   LIG    1        2.630  -1.724  -2.680  0.00  0.00    -0.530 OA
ATOM     12  H   LIG    1        3.518  -1.837  -3.045  0.00  0.00    +0.390 HD
ENDBRANCH   8  11
BRANCH   6  13
ATOM     13  C   LIG    1        3.182  -0.278   1.710  0.00  0.00    +0.240 C 
BRANCH  13  14
ATOM     14  O   LIG    1        2.518   0.847   1.130  0.00  0.00    -0.520 OA
ATOM     15  H   LIG    1        2.781   1.031   0.217  0.00  0.00    +0.370 HD
ENDBRANCH  13  14
BRANCH  13  16
ATOM     16  C   LIG    1        4.692  -0.032   1.715  0.00  0.00    +0.150 C 
BRANCH  16  17
ATOM     17  O   LIG    1        4.993   1.070   2.574  0.00  0.00    -0.560 OA
ATOM     18  H   LIG    1        5.935   1.283   2.626  0.00  0.00    +0.380 HD
ENDBRANCH  16  17
ENDBRANCH  13  16
ENDBRANCH   6  13
TORSDOF 5
ENDMDL
MODEL     1004
REMARK  Name = ZINC000003635383
REMARK                            x       y       z     vdW  Elec       q    Type
REMARK                         _______ _______ _______ _____ _____    ______ ____
ROOT
ATOM      1  C   LIG    1        0.051  -2.753   2.437  0.00  0.00    +0.280 C 
ENDROOT
BRANCH   1   7
ATOM      2  C   LIG    1       -0.018   1.503   0.010  0.00  0.00    +0.140 C 
ATOM      3  C   LIG    1        0.002  -0.004   0.002  0.00  0.00    +0.090 A 
ATOM      4  C   LIG    1        0.006  -0.689  -1.200  0.00  0.00    +0.220 A 
ATOM      5  N   LIG    1        0.024  -2.011  -1.207  0.00  0.00    -0.430 NA
ATOM      6  C   LIG    1        0.038  -2.677  -0.067  0.00  0.00    +0.220 A 
ATOM      7  C   LIG    1        0.034  -1.992   1.136  0.00  0.00    +0.060 A 
ATOM      8  N   LIG    1        0.022  -0.671   1.143  0.00  0.00    -0.430 NA
ENDBRANCH   1   7
BRANCH   1   9
ATOM      9  O   LIG    1       -0.706  -3.956   2.294  0.00  0.00    -0.530 OA
ATOM     10  H   LIG    1       -0.372  -4.553   1.611  0.00  0.00    +0.370 HD
ENDBRANCH   1   9
BRANCH   1  11
ATOM     11  C   LIG    1        1.494  -3.099   2.807  0.00  0.00    +0.170 C 
BRANCH  11  12
ATOM     12  O   LIG    1        2.107  -3.805   1.726  0.00  0.00    -0.550 OA
ATOM     13  H   LIG    1        1.664  -4.634   1.497  0.00  0.00    +0.380 HD
ENDBRANCH  11  12
BRANCH  11  14
ATOM     14  C   LIG    1        1.503  -3.977   4.060  0.00  0.00    +0.210 C 
BRANCH  14  15
ATOM     15  O   LIG    1        0.891  -3.271   5.140  0.00  0.00    -0.540 OA
ATOM     16  H   LIG    1        1.333  -2.442   5.370  0.00  0.00    +0.370 HD
ENDBRANCH  14  15
BRANCH  14  17
ATOM     17  C   LIG    1        2.947  -4.323   4.430  0.00  0.00    +0.160 C 
BRANCH  17  18
ATOM     18  O   LIG    1        2.951  -5.237   5.529  0.00  0.00    -0.560 OA
ATOM     19  H   LIG    1        3.835  -5.500   5.818  0.00  0.00    +0.380 HD
ENDBRANCH  17  18
ENDBRANCH  14  17
ENDBRANCH  11  14
ENDBRANCH   1  11
TORSDOF 8
ENDMDL
MODEL     1005
REMARK  Name = ZINC000003851431
REMARK                            x       y       z     vdW  Elec       q    Type
REMARK                         _______ _______ _______ _____ _____    ______ ____
ROOT
ATOM      1  C   LIG    1        0.522  -0.956  -1.326  0.00  0.00    +0.160 C 
ATOM      2  C   LIG    1       -0.311  -1.497  -2.492  0.00  0.00    +0.170 C 
ATOM      3  C   LIG    1       -1.081  -2.736  -2.024  0.00  0.00    +0.120 C 
ATOM      4  C   LIG    1       -0.090  -3.772  -1.488  0.00  0.00    +0.160 C 
ATOM      5  O   LIG    1        0.673  -3.194  -0.427  0.00  0.00    -0.350 OA
ATOM      6  C   LIG    1        1.452  -2.060  -0.816  0.00  0.00    +0.430 C 
ENDROOT
BRANCH   1   8
ATOM      7  C   LIG    1       -0.753   0.827  -0.357  0.00  0.00    +0.200 C 
ATOM      8  O   LIG    1       -0.348  -0.540  -0.271  0.00  0.00    -0.330 OA
ENDBRANCH   1   8
BRANCH   3   9
ATOM      9  O   LIG    1       -1.994  -2.366  -0.989  0.00  0.00    -0.530 OA
ATOM     10  H   LIG    1       -2.517  -3.103  -0.644  0.00  0.00    +0.380 HD
ENDBRANCH   3   9
BRANCH   2  11
ATOM     11  O   LIG    1        0.554  -1.851  -3.573  0.00  0.00    -0.530 OA
ATOM     12  H   LIG    1        0.093  -2.202  -4.348  0.00  0.00    +0.380 HD
ENDBRANCH   2  11
BRANCH   6  13
ATOM     13  O   LIG    1        2.192  -1.581   0.308  0.00  0.00    -0.370 OA
ATOM     14  C   LIG    1        3.085  -0.508   0.002  0.00  0.00    +0.240 C 
ENDBRANCH   6  13
BRANCH   6  15
ATOM     15  O   LIG    1        2.357  -2.438  -1.856  0.00  0.00    -0.380 OA
ATOM     16  C   LIG    1        3.250  -3.493  -1.494  0.00  0.00    +0.220 C 
ENDBRANCH   6  15
BRANCH   4  17
ATOM     17  C   LIG    1       -0.856  -4.987  -0.963  0.00  0.00    +0.210 C 
BRANCH  17  18
ATOM     18  O   LIG    1        0.070  -6.002  -0.570  0.00  0.00    -0.560 OA
ATOM     19  H   LIG    1       -0.346  -6.804  -0.227  0.00  0.00    +0.380 HD
ENDBRANCH  17  18
ENDBRANCH   4  17
TORSDOF 7
ENDMDL
MODEL     1006
REMARK  Name = ZINC000003851434
REMARK                            x       y       z     vdW  Elec       q    Type
REMARK                         _______ _______ _______ _____ _____    ______ ____
ROOT
ATOM      1  C   LIG    1        0.725  -0.590  -1.249  0.00  0.00    +0.180 C 
ATOM      2  C   LIG    1        2.208  -0.817  -0.940  0.00  0.00    +0.170 C 
ATOM      3  C   LIG    1        2.842  -1.611  -2.086  0.00  0.00    +0.130 C 
ATOM      4  C   LIG    1        2.079  -2.926  -2.268  0.00  0.00    +0.160 C 
ATOM      5  O   LIG    1        0.701  -2.644  -2.522  0.00  0.00    -0.390 OA
ATOM      6  C   LIG    1        0.043  -1.944  -1.465  0.00  0.00    +0.430 C 
ENDROOT
BRANCH   1   8
ATOM      7  C   LIG    1        0.142   1.512  -0.256  0.00  0.00    +0.190 C 
ATOM      8  O   LIG    1        0.107   0.087  -0.154  0.00  0.00    -0.350 OA
ENDBRANCH   1   8
BRANCH   3   9
ATOM      9  O   LIG    1        2.774  -0.847  -3.291  0.00  0.00    -0.550 OA
ATOM     10  H   LIG    1        3.159  -1.290  -4.060  0.00  0.00    +0.380 HD
ENDBRANCH   3   9
BRANCH   2  11
ATOM     11  O   LIG    1        2.335  -1.550   0.280  0.00  0.00    -0.520 OA
ATOM     12  H   LIG    1        3.249  -1.730   0.538  0.00  0.00    +0.370 HD
ENDBRANCH   2  11
BRANCH   6  13
ATOM     13  O   LIG    1       -1.328  -1.738  -1.811  0.00  0.00    -0.370 OA
ATOM     14  C   LIG    1       -1.519  -1.082  -3.066  0.00  0.00    +0.230 C 
ENDBRANCH   6  13
BRANCH   6  15
ATOM     15  O   LIG    1        0.122  -2.712  -0.263  0.00  0.00    -0.340 OA
ATOM     16  C   LIG    1       -0.578  -3.956  -0.321  0.00  0.00    +0.220 C 
ENDBRANCH   6  15
BRANCH   4  17
ATOM     17  C   LIG    1        2.669  -3.698  -3.450  0.00  0.00    +0.210 C 
BRANCH  17  18
ATOM     18  O   LIG    1        2.035  -4.975  -3.548  0.00  0.00    -0.560 OA
ATOM     19  H   LIG    1        2.360  -5.521  -4.277  0.00  0.00    +0.380 HD
ENDBRANCH  17  18
ENDBRANCH   4  17
TORSDOF 7
ENDMDL
MODEL     1007
REMARK  Name = ZINC000003870929
REMARK                            x       y       z     vdW  Elec       q    Type
REMARK                         _______ _______ _______ _____ _____    ______ ____
ROOT
ATOM      1  C1* LIG    1        0.099  -4.217  -0.022  0.00  0.00    +0.400 C 
ATOM      2  O4* LIG    1       -1.240  -4.754  -0.088  0.00  0.00    -0.290 OA
ATOM      3  C4* LIG    1       -1.086  -6.102  -0.583  0.00  0.00    +0.130 C 
ATOM      4  C3* LIG    1       -0.004  -5.998  -1.680  0.00  0.00    +0.140 C 
ATOM      5  C2* LIG    1        0.796  -4.729  -1.302  0.00  0.00    +0.160 C 
ENDROOT
BRANCH   1   9
ATOM      6  C   LIG    1        0.002  -0.004   0.002  0.00  0.00    +0.300 A 
ATOM      7  C   LIG    1       -1.182  -0.724   0.004  0.00  0.00    -0.220 A 
ATOM      8  C   LIG    1       -1.128  -2.121  -0.004  0.00  0.00    +0.530 A 
ATOM      9  N   LIG    1        0.061  -2.752  -0.014  0.00  0.00    -0.510 N 
ATOM     10  C   LIG    1        1.228  -2.054  -0.016  0.00  0.00    +0.340 A 
ATOM     11  O   LIG    1       -2.162  -2.771  -0.003  0.00  0.00    -0.520 OA
ATOM     12  C   LIG    1        1.227  -0.705  -0.013  0.00  0.00    -0.110 A 
BRANCH   6  13
ATOM     13  N   LIG    1       -0.017   1.379   0.010  0.00  0.00    -0.850 N 
ATOM     14  H   LIG    1       -0.863   1.852   0.016  0.00  0.00    +0.410 HD
ATOM     15  H   LIG    1        0.817   1.875   0.004  0.00  0.00    +0.400 HD
ENDBRANCH   6  13
ENDBRANCH   1   9
BRANCH   4  16
ATOM     16  O3* LIG    1       -0.609  -5.849  -2.967  0.00  0.00    -0.550 OA
ATOM     17  H3* LIG    1       -1.169  -6.593  -3.227  0.00  0.00    +0.380 HD
ENDBRANCH   4  16
BRANCH   5  18
ATOM     18  O2* LIG    1        2.161  -5.058  -1.038  0.00  0.00    -0.550 OA
ATOM     19  H2* LIG    1        2.627  -5.440  -1.795  0.00  0.00    +0.390 HD
ENDBRANCH   5  18
BRANCH   3  20
ATOM     20  C5* LIG    1       -2.403  -6.606  -1.176  0.00  0.00    +0.210 C 
BRANCH  20  21
ATOM     21  O5* LIG    1       -3.375  -6.736  -0.136  0.00  0.00    -0.560 OA
ATOM     22  H5* LIG    1       -4.236  -7.052  -0.440  0.00  0.00    +0.380 HD
ENDBRANCH  20  21
ENDBRANCH   3  20
TORSDOF 6
ENDMDL
MODEL     1008
REMARK  Name = ZINC000003870930
REMARK                            x       y       z     vdW  Elec       q    Type
REMARK                         _______ _______ _______ _____ _____    ______ ____
ROOT
ATOM      1  C1* LIG    1        0.099  -4.217  -0.022  0.00  0.00    +0.440 C 
ATOM      2  O4* LIG    1        1.039  -4.701   0.962  0.00  0.00    -0.330 OA
ATOM      3  C4* LIG    1        2.340  -4.532   0.359  0.00  0.00    +0.110 C 
ATOM      4  C3* LIG    1        2.149  -4.945  -1.117  0.00  0.00    +0.130 C 
ATOM      5  C2* LIG    1        0.637  -4.733  -1.375  0.00  0.00    +0.190 C 
ENDROOT
BRANCH   1   9
ATOM      6  C   LIG    1        0.001  -0.004  -0.002  0.00  0.00    +0.300 A 
ATOM      7  C   LIG    1       -1.098  -0.725   0.437  0.00  0.00    -0.220 A 
ATOM      8  C   LIG    1       -1.045  -2.122   0.423  0.00  0.00    +0.540 A 
ATOM      9  N   LIG    1        0.061  -2.752  -0.014  0.00  0.00    -0.500 N 
ATOM     10  C   LIG    1        1.144  -2.054  -0.447  0.00  0.00    +0.320 A 
ATOM     11  O   LIG    1       -2.005  -2.771   0.807  0.00  0.00    -0.560 OA
ATOM     12  C   LIG    1        1.139  -0.704  -0.457  0.00  0.00    -0.120 A 
BRANCH   6  13
ATOM     13  N   LIG    1       -0.019   1.379  -0.001  0.00  0.00    -0.850 N 
ATOM     14  H   LIG    1       -0.807   1.852   0.310  0.00  0.00    +0.410 HD
ATOM     15  H   LIG    1        0.753   1.875  -0.314  0.00  0.00    +0.400 HD
ENDBRANCH   6  13
ENDBRANCH   1   9
BRANCH   4  16
ATOM     16  O3* LIG    1        2.503  -6.317  -1.303  0.00  0.00    -0.550 OA
ATOM     17  H3* LIG    1        3.427  -6.516  -1.097  0.00  0.00    +0.390 HD
ENDBRANCH   4  16
BRANCH   5  18
ATOM     18  O2* LIG    1        0.437  -3.760  -2.402  0.00  0.00    -0.540 OA
ATOM     19  H2* LIG    1        0.811  -4.010  -3.258  0.00  0.00    +0.390 HD
ENDBRANCH   5  18
BRANCH   3  20
ATOM     20  C5* LIG    1        3.365  -5.442   1.041  0.00  0.00    +0.210 C 
BRANCH  20  21
ATOM     21  O5* LIG    1        3.558  -5.014   2.391  0.00  0.00    -0.560 OA
ATOM     22  H5* LIG    1        4.196  -5.547   2.885  0.00  0.00    +0.390 HD
ENDBRANCH  20  21
ENDBRANCH   3  20
TORSDOF 6
ENDMDL
MODEL     1009
REMARK  Name = ZINC000003870927
REMARK                            x       y       z     vdW  Elec       q    Type
REMARK                         _______ _______ _______ _____ _____    ______ ____
ROOT
ATOM      1  C1* LIG    1        0.099  -4.217  -0.022  0.00  0.00    +0.390 C 
ATOM      2  O4* LIG    1       -1.240  -4.754  -0.088  0.00  0.00    -0.290 OA
ATOM      3  C4* LIG    1       -1.086  -6.102  -0.583  0.00  0.00    +0.120 C 
ATOM      4  C3* LIG    1       -0.004  -5.998  -1.680  0.00  0.00    +0.130 C 
ATOM      5  C2* LIG    1        0.796  -4.729  -1.302  0.00  0.00    +0.160 C 
ENDROOT
BRANCH   1   9
ATOM      6  C   LIG    1        0.002  -0.004   0.002  0.00  0.00    +0.300 A 
ATOM      7  C   LIG    1       -1.182  -0.724   0.004  0.00  0.00    -0.220 A 
ATOM      8  C   LIG    1       -1.128  -2.121  -0.004  0.00  0.00    +0.540 A 
ATOM      9  N   LIG    1        0.061  -2.752  -0.014  0.00  0.00    -0.500 N 
ATOM     10  C   LIG    1        1.228  -2.054  -0.016  0.00  0.00    +0.340 A 
ATOM     11  O   LIG    1       -2.162  -2.771  -0.003  0.00  0.00    -0.520 OA
ATOM     12  C   LIG    1        1.227  -0.705  -0.013  0.00  0.00    -0.120 A 
BRANCH   6  13
ATOM     13  N   LIG    1       -0.017   1.379   0.010  0.00  0.00    -0.850 N 
ATOM     14  H   LIG    1       -0.863   1.852   0.016  0.00  0.00    +0.400 HD
ATOM     15  H   LIG    1        0.817   1.875   0.004  0.00  0.00    +0.400 HD
ENDBRANCH   6  13
ENDBRANCH   1   9
BRANCH   4  16
ATOM     16  O3* LIG    1       -0.609  -5.849  -2.967  0.00  0.00    -0.540 OA
ATOM     17  H3* LIG    1       -1.169  -6.593  -3.227  0.00  0.00    +0.380 HD
ENDBRANCH   4  16
BRANCH   5  18
ATOM     18  O2* LIG    1        0.712  -3.755  -2.344  0.00  0.00    -0.530 OA
ATOM     19  H2* LIG    1        1.080  -4.049  -3.188  0.00  0.00    +0.390 HD
ENDBRANCH   5  18
BRANCH   3  20
ATOM     20  C5* LIG    1       -2.403  -6.606  -1.176  0.00  0.00    +0.210 C 
BRANCH  20  21
ATOM     21  O5* LIG    1       -3.375  -6.736  -0.136  0.00  0.00    -0.560 OA
ATOM     22  H5* LIG    1       -4.236  -7.052  -0.440  0.00  0.00    +0.380 HD
ENDBRANCH  20  21
ENDBRANCH   3  20
TORSDOF 6
ENDMDL
MODEL     1010
REMARK  Name = ZINC000003871100
REMARK                            x       y       z     vdW  Elec       q    Type
REMARK                         _______ _______ _______ _____ _____    ______ ____
ROOT
ATOM      1  C   LIG    1        0.002  -0.004   0.002  0.00  0.00    +0.040 A 
ATOM      2  C   LIG    1       -1.155  -0.706   0.004  0.00  0.00    +0.230 A 
ATOM      3  N   LIG    1       -1.114  -2.079  -0.004  0.00  0.00    -0.520 N 
ATOM      4  C   LIG    1        0.064  -2.730  -0.013  0.00  0.00    +0.700 A 
ATOM      5  N   LIG    1        1.228  -2.056  -0.015  0.00  0.00    -0.650 N 
ATOM      6  H   LIG    1        2.067  -2.543  -0.022  0.00  0.00    +0.440 HD
ATOM      7  O   LIG    1        0.075  -3.946  -0.021  0.00  0.00    -0.540 OA
ATOM      8  C   LIG    1        1.236  -0.708  -0.013  0.00  0.00    +0.550 A 
ATOM      9  O   LIG    1        2.291  -0.100  -0.016  0.00  0.00    -0.510 OA
ENDROOT
BRANCH   3  10
ATOM     10  C1* LIG    1       -2.365  -2.842  -0.002  0.00  0.00    +0.430 C 
ATOM     11  C2* LIG    1       -2.484  -3.698  -1.289  0.00  0.00    +0.010 C 
ATOM     12  C3* LIG    1       -4.016  -3.882  -1.415  0.00  0.00    +0.170 C 
ATOM     13  C4* LIG    1       -4.605  -2.731  -0.577  0.00  0.00    +0.190 C 
ATOM     14  O4* LIG    1       -3.501  -1.956  -0.076  0.00  0.00    -0.360 OA
BRANCH  12  15
ATOM     15  O3* LIG    1       -4.423  -3.770  -2.780  0.00  0.00    -0.550 OA
ATOM     16  H3* LIG    1       -4.034  -4.436  -3.363  0.00  0.00    +0.390 HD
ENDBRANCH  12  15
BRANCH  13  17
ATOM     17  C5* LIG    1       -5.506  -1.858  -1.453  0.00  0.00    +0.220 C 
BRANCH  17  18
ATOM     18  O5* LIG    1       -6.138  -0.864  -0.644  0.00  0.00    -0.570 OA
ATOM     19  H5* LIG    1       -6.726  -0.273  -1.135  0.00  0.00    +0.380 HD
ENDBRANCH  17  18
ENDBRANCH  13  17
ENDBRANCH   3  10
BRANCH   1  20
ATOM     20  N   LIG    1       -0.017   1.403   0.010  0.00  0.00    -0.860 N 
ATOM     21  H   LIG    1       -0.864   1.876   0.016  0.00  0.00    +0.410 HD
ATOM     22  H   LIG    1        0.816   1.899   0.004  0.00  0.00    +0.410 HD
ENDBRANCH   1  20
TORSDOF 5
ENDMDL
MODEL     1011
REMARK  Name = ZINC000003871101
REMARK                            x       y       z     vdW  Elec       q    Type
REMARK                         _______ _______ _______ _____ _____    ______ ____
ROOT
ATOM      1  C   LIG    1        0.002  -0.004   0.002  0.00  0.00    +0.050 A 
ATOM      2  C   LIG    1       -1.155  -0.706   0.004  0.00  0.00    +0.210 A 
ATOM      3  N   LIG    1       -1.114  -2.079  -0.004  0.00  0.00    -0.520 N 
ATOM      4  C   LIG    1        0.064  -2.730  -0.013  0.00  0.00    +0.690 A 
ATOM      5  N   LIG    1        1.228  -2.056  -0.015  0.00  0.00    -0.650 N 
ATOM      6  H   LIG    1        2.067  -2.543  -0.022  0.00  0.00    +0.430 HD
ATOM      7  O   LIG    1        0.075  -3.946  -0.021  0.00  0.00    -0.520 OA
ATOM      8  C   LIG    1        1.236  -0.708  -0.013  0.00  0.00    +0.550 A 
ATOM      9  O   LIG    1        2.291  -0.100  -0.016  0.00  0.00    -0.510 OA
ENDROOT
BRANCH   3  10
ATOM     10  C1* LIG    1       -2.365  -2.842  -0.002  0.00  0.00    +0.430 C 
ATOM     11  C2* LIG    1       -2.494  -3.667  -1.308  0.00  0.00    +0.010 C 
ATOM     12  C3* LIG    1       -3.439  -4.808  -0.844  0.00  0.00    +0.170 C 
ATOM     13  C4* LIG    1       -3.009  -5.013   0.625  0.00  0.00    +0.210 C 
ATOM     14  O4* LIG    1       -2.355  -3.813   1.057  0.00  0.00    -0.350 OA
BRANCH  12  15
ATOM     15  O3* LIG    1       -3.221  -5.993  -1.612  0.00  0.00    -0.550 OA
ATOM     16  H3* LIG    1       -3.396  -5.887  -2.557  0.00  0.00    +0.390 HD
ENDBRANCH  12  15
BRANCH  13  17
ATOM     17  C5* LIG    1       -4.240  -5.276   1.494  0.00  0.00    +0.180 C 
BRANCH  17  18
ATOM     18  O5* LIG    1       -3.825  -5.580   2.828  0.00  0.00    -0.560 OA
ATOM     19  H5* LIG    1       -4.556  -5.758   3.436  0.00  0.00    +0.380 HD
ENDBRANCH  17  18
ENDBRANCH  13  17
ENDBRANCH   3  10
BRANCH   1  20
ATOM     20  N   LIG    1       -0.017   1.403   0.010  0.00  0.00    -0.850 N 
ATOM     21  H   LIG    1       -0.864   1.876   0.016  0.00  0.00    +0.400 HD
ATOM     22  H   LIG    1        0.816   1.899   0.004  0.00  0.00    +0.410 HD
ENDBRANCH   1  20
TORSDOF 5
ENDMDL
MODEL     1012
REMARK  Name = ZINC000003870928
REMARK                            x       y       z     vdW  Elec       q    Type
REMARK                         _______ _______ _______ _____ _____    ______ ____
ROOT
ATOM      1  C1* LIG    1        0.099  -4.217  -0.022  0.00  0.00    +0.440 C 
ATOM      2  O4* LIG    1        1.039  -4.701   0.962  0.00  0.00    -0.330 OA
ATOM      3  C4* LIG    1        2.340  -4.532   0.359  0.00  0.00    +0.120 C 
ATOM      4  C3* LIG    1        2.149  -4.945  -1.117  0.00  0.00    +0.130 C 
ATOM      5  C2* LIG    1        0.637  -4.733  -1.375  0.00  0.00    +0.180 C 
ENDROOT
BRANCH   1   9
ATOM      6  C   LIG    1       -0.001  -0.004   0.011  0.00  0.00    +0.300 A 
ATOM      7  C   LIG    1       -0.827  -0.710  -0.849  0.00  0.00    -0.220 A 
ATOM      8  C   LIG    1       -0.779  -2.107  -0.844  0.00  0.00    +0.540 A 
ATOM      9  N   LIG    1        0.061  -2.752  -0.014  0.00  0.00    -0.520 N 
ATOM     10  C   LIG    1        0.875  -2.068   0.833  0.00  0.00    +0.320 A 
ATOM     11  O   LIG    1       -1.500  -2.744  -1.596  0.00  0.00    -0.560 OA
ATOM     12  C   LIG    1        0.869  -0.719   0.862  0.00  0.00    -0.110 A 
BRANCH   6  13
ATOM     13  N   LIG    1       -0.025   1.379   0.030  0.00  0.00    -0.850 N 
ATOM     14  H   LIG    1       -0.623   1.862  -0.561  0.00  0.00    +0.410 HD
ATOM     15  H   LIG    1        0.560   1.865   0.633  0.00  0.00    +0.400 HD
ENDBRANCH   6  13
ENDBRANCH   1   9
BRANCH   4  16
ATOM     16  O3* LIG    1        2.503  -6.317  -1.303  0.00  0.00    -0.540 OA
ATOM     17  H3* LIG    1        3.427  -6.516  -1.097  0.00  0.00    +0.380 HD
ENDBRANCH   4  16
BRANCH   5  18
ATOM     18  O2* LIG    1        0.012  -5.968  -1.730  0.00  0.00    -0.530 OA
ATOM     19  H2* LIG    1        0.358  -6.365  -2.541  0.00  0.00    +0.390 HD
ENDBRANCH   5  18
BRANCH   3  20
ATOM     20  C5* LIG    1        3.365  -5.442   1.041  0.00  0.00    +0.210 C 
BRANCH  20  21
ATOM     21  O5* LIG    1        3.558  -5.014   2.391  0.00  0.00    -0.560 OA
ATOM     22  H5* LIG    1        4.196  -5.547   2.885  0.00  0.00    +0.390 HD
ENDBRANCH  20  21
ENDBRANCH   3  20
TORSDOF 6
ENDMDL
MODEL     1013
REMARK  Name = ZINC000003921347
REMARK                            x       y       z     vdW  Elec       q    Type
REMARK                         _______ _______ _______ _____ _____    ______ ____
ROOT
ATOM      1  C   LIG    1       -0.463   1.460   0.072  0.00  0.00    +0.150 C 
ATOM      2  C   LIG    1       -0.210  -0.025   0.032  0.00  0.00    +0.220 A 
ATOM      3  C   LIG    1       -0.308  -0.698  -1.135  0.00  0.00    -0.150 A 
ATOM      4  C   LIG    1       -0.065  -2.093  -1.147  0.00  0.00    +0.550 A 
ATOM      5  N   LIG    1        0.258  -2.719   0.003  0.00  0.00    -0.550 N 
ATOM      6  C   LIG    1        0.349  -2.023   1.151  0.00  0.00    +0.700 A 
ATOM      7  O   LIG    1        0.641  -2.601   2.180  0.00  0.00    -0.520 OA
ATOM      8  O   LIG    1       -0.147  -2.721  -2.187  0.00  0.00    -0.520 OA
ATOM      9  N   LIG    1        0.126  -0.696   1.176  0.00  0.00    -0.530 N 
ENDROOT
BRANCH   5  10
ATOM     10  C   LIG    1        0.512  -4.161   0.001  0.00  0.00    +0.320 C 
BRANCH  10  11
ATOM     11  C   LIG    1        1.998  -4.418  -0.258  0.00  0.00    +0.180 C 
BRANCH  11  12
ATOM     12  O   LIG    1        2.767  -3.899   0.829  0.00  0.00    -0.560 OA
ATOM     13  H   LIG    1        3.721  -4.027   0.732  0.00  0.00    +0.380 HD
ENDBRANCH  11  12
ENDBRANCH  10  11
ENDBRANCH   5  10
BRANCH   9  14
ATOM     14  C   LIG    1        0.233   0.034   2.441  0.00  0.00    +0.330 C 
BRANCH  14  15
ATOM     15  C   LIG    1        1.694   0.412   2.690  0.00  0.00    +0.190 C 
BRANCH  15  16
ATOM     16  O   LIG    1        2.126   1.332   1.685  0.00  0.00    -0.570 OA
ATOM     17  H   LIG    1        3.045   1.616   1.781  0.00  0.00    +0.390 HD
ENDBRANCH  15  16
ENDBRANCH  14  15
ENDBRANCH   9  14
TORSDOF 6
ENDMDL
MODEL     1014
REMARK  Name = ZINC000003954441
REMARK                            x       y       z     vdW  Elec       q    Type
REMARK                         _______ _______ _______ _____ _____    ______ ____
ROOT
ATOM      1  C   LIG    1       -0.018   1.503   0.010  0.00  0.00    +0.130 C 
ATOM      2  C   LIG    1        0.002  -0.004   0.002  0.00  0.00    -0.250 A 
ATOM      3  C   LIG    1       -1.153  -0.704   0.004  0.00  0.00    +0.340 A 
ATOM      4  N   LIG    1       -1.116  -2.072  -0.004  0.00  0.00    -0.530 N 
ATOM      5  C   LIG    1        0.060  -2.726  -0.013  0.00  0.00    +0.700 A 
ATOM      6  N   LIG    1        1.226  -2.053  -0.016  0.00  0.00    -0.660 N 
ATOM      7  H   LIG    1        2.064  -2.540  -0.023  0.00  0.00    +0.430 HD
ATOM      8  O   LIG    1        0.069  -3.942  -0.020  0.00  0.00    -0.550 OA
ATOM      9  C   LIG    1        1.232  -0.705  -0.013  0.00  0.00    +0.550 A 
ATOM     10  O   LIG    1        2.287  -0.095  -0.016  0.00  0.00    -0.500 OA
ENDROOT
BRANCH   4  11
ATOM     11  C   LIG    1       -2.369  -2.831  -0.002  0.00  0.00    +0.300 C 
BRANCH  11  12
ATOM     12  C   LIG    1       -2.812  -3.088  -1.444  0.00  0.00    +0.060 C 
BRANCH  12  13
ATOM     13  CA  LIG    1       -4.120  -3.881  -1.442  0.00  0.00    +0.100 C 
BRANCH  13  14
ATOM     14  N   LIG    1       -3.885  -5.211  -0.865  0.00  0.00    -0.620 N 
ATOM     15  H1  LIG    1       -3.196  -5.700  -1.417  0.00  0.00    +0.440 HD
ATOM     16  H2  LIG    1       -4.748  -5.734  -0.864  0.00  0.00    +0.430 HD
ATOM     17  H3  LIG    1       -3.550  -5.113   0.082  0.00  0.00    +0.410 HD
ENDBRANCH  13  14
BRANCH  13  18
ATOM     18  C   LIG    1       -4.620  -4.028  -2.856  0.00  0.00    +0.490 C 
ATOM     19  OXT LIG    1       -5.368  -3.188  -3.328  0.00  0.00    -0.630 OA
ATOM     20  O   LIG    1       -4.278  -4.986  -3.527  0.00  0.00    -0.660 OA
ENDBRANCH  13  18
ENDBRANCH  12  13
ENDBRANCH  11  12
ENDBRANCH   4  11
TORSDOF 5
ENDMDL
MODEL     1015
REMARK  Name = ZINC000045887863
REMARK                            x       y       z     vdW  Elec       q    Type
REMARK                         _______ _______ _______ _____ _____    ______ ____
ROOT
ATOM      1  C   LIG    1        0.657  -2.104  -1.120  0.00  0.00    +0.040 C 
ATOM      2  C   LIG    1        1.509  -2.684   0.033  0.00  0.00    +0.120 C 
ATOM      3  C   LIG    1        2.239  -3.851  -0.595  0.00  0.00    +0.520 C 
ATOM      4  N   LIG    1        2.187  -3.760  -1.935  0.00  0.00    -0.520 N 
ATOM      5  O   LIG    1        2.789  -4.739   0.021  0.00  0.00    -0.470 OA
ATOM      6  C   LIG    1        1.453  -2.563  -2.362  0.00  0.00    +0.340 C 
ENDROOT
BRANCH   4   7
ATOM      7  C   LIG    1        2.759  -4.689  -2.811  0.00  0.00    +0.430 A 
ATOM      8  N   LIG    1        3.419  -5.776  -2.471  0.00  0.00    -0.290 NA
ATOM      9  N   LIG    1        3.801  -6.389  -3.676  0.00  0.00    -0.200 N 
ATOM     10  N   LIG    1        3.357  -5.648  -4.633  0.00  0.00    +0.020 NA
ATOM     11  C   LIG    1        4.560  -7.634  -3.818  0.00  0.00    +0.420 C 
ATOM     12  N   LIG    1        2.731  -4.638  -4.143  0.00  0.00    -0.320 NA
ENDBRANCH   4   7
BRANCH   1  13
ATOM     13  C   LIG    1        0.598  -0.600  -1.043  0.00  0.00    +0.480 C 
ATOM     14  O   LIG    1        1.088   0.070  -1.921  0.00  0.00    -0.490 OA
BRANCH  13  16
ATOM     15  C   LIG    1       -0.018   1.448   0.010  0.00  0.00    +0.280 C 
ATOM     16  O   LIG    1        0.002  -0.004   0.002  0.00  0.00    -0.350 OA
ENDBRANCH  13  16
ENDBRANCH   1  13
TORSDOF 3
ENDMDL
MODEL     1016
REMARK  Name = ZINC000045887982
REMARK                            x       y       z     vdW  Elec       q    Type
REMARK                         _______ _______ _______ _____ _____    ______ ____
ROOT
ATOM      1  N   LIG    1       -1.363  -5.244   1.421  0.00  0.00    -0.520 N 
ATOM      2  C   LIG    1       -1.341  -6.598   0.853  0.00  0.00    +0.330 C 
ATOM      3  C   LIG    1       -0.890  -7.521   2.006  0.00  0.00    +0.000 C 
ATOM      4  C   LIG    1       -1.329  -6.711   3.249  0.00  0.00    +0.110 C 
ATOM      5  C   LIG    1       -1.356  -5.278   2.764  0.00  0.00    +0.520 C 
ATOM      6  O   LIG    1       -1.377  -4.302   3.484  0.00  0.00    -0.480 OA
ENDROOT
BRANCH   1  10
ATOM      7  N   LIG    1       -1.413  -1.998   0.005  0.00  0.00    -0.200 N 
ATOM      8  N   LIG    1       -1.407  -2.759  -1.036  0.00  0.00    +0.020 NA
ATOM      9  N   LIG    1       -1.389  -3.992  -0.670  0.00  0.00    -0.320 NA
ATOM     10  C   LIG    1       -1.383  -4.070   0.661  0.00  0.00    +0.430 A 
ATOM     11  N   LIG    1       -1.391  -2.840   1.130  0.00  0.00    -0.290 NA
BRANCH   7  12
ATOM     12  C   LIG    1       -1.433  -0.534   0.013  0.00  0.00    +0.370 C 
BRANCH  12  14
ATOM     13  C   LIG    1       -0.019   1.526   0.010  0.00  0.00    +0.040 C 
ATOM     14  C   LIG    1        0.002  -0.004   0.002  0.00  0.00    +0.020 C 
ENDBRANCH  12  14
ENDBRANCH   7  12
ENDBRANCH   1  10
BRANCH   3  15
ATOM     15  C   LIG    1       -1.604  -8.847   1.946  0.00  0.00    +0.530 C 
ATOM     16  O   LIG    1       -2.411  -9.062   1.066  0.00  0.00    -0.530 OA
ATOM     17  N   LIG    1       -1.346  -9.793   2.870  0.00  0.00    -0.850 N 
ATOM     18  H   LIG    1       -1.806 -10.647   2.832  0.00  0.00    +0.410 HD
ATOM     19  H   LIG    1       -0.701  -9.621   3.574  0.00  0.00    +0.400 HD
ENDBRANCH   3  15
TORSDOF 4
ENDMDL
MODEL     1017
REMARK  Name = ZINC000045887987
REMARK                            x       y       z     vdW  Elec       q    Type
REMARK                         _______ _______ _______ _____ _____    ______ ____
ROOT
ATOM      1  N   LIG    1       -1.363  -5.244   1.421  0.00  0.00    -0.520 N 
ATOM      2  C   LIG    1       -1.341  -6.598   0.853  0.00  0.00    +0.330 C 
ATOM      3  C   LIG    1       -0.890  -7.521   2.006  0.00  0.00    +0.010 C 
ATOM      4  C   LIG    1       -1.329  -6.711   3.249  0.00  0.00    +0.110 C 
ATOM      5  C   LIG    1       -1.356  -5.278   2.764  0.00  0.00    +0.520 C 
ATOM      6  O   LIG    1       -1.377  -4.302   3.484  0.00  0.00    -0.480 OA
ENDROOT
BRANCH   1  10
ATOM      7  N   LIG    1       -1.413  -1.998   0.005  0.00  0.00    -0.200 N 
ATOM      8  N   LIG    1       -1.407  -2.759  -1.036  0.00  0.00    +0.020 NA
ATOM      9  N   LIG    1       -1.389  -3.992  -0.670  0.00  0.00    -0.320 NA
ATOM     10  C   LIG    1       -1.383  -4.070   0.661  0.00  0.00    +0.430 A 
ATOM     11  N   LIG    1       -1.391  -2.840   1.130  0.00  0.00    -0.290 NA
BRANCH   7  12
ATOM     12  C   LIG    1       -1.433  -0.534   0.013  0.00  0.00    +0.380 C 
BRANCH  12  14
ATOM     13  C   LIG    1       -0.019   1.526   0.010  0.00  0.00    +0.040 C 
ATOM     14  C   LIG    1        0.002  -0.004   0.002  0.00  0.00    +0.020 C 
ENDBRANCH  12  14
ENDBRANCH   7  12
ENDBRANCH   1  10
BRANCH   3  15
ATOM     15  C   LIG    1        0.604  -7.716   1.988  0.00  0.00    +0.520 C 
ATOM     16  O   LIG    1        1.276  -7.174   1.136  0.00  0.00    -0.530 OA
ATOM     17  N   LIG    1        1.194  -8.492   2.919  0.00  0.00    -0.850 N 
ATOM     18  H   LIG    1        2.155  -8.617   2.907  0.00  0.00    +0.410 HD
ATOM     19  H   LIG    1        0.656  -8.926   3.600  0.00  0.00    +0.400 HD
ENDBRANCH   3  15
TORSDOF 4
ENDMDL
MODEL     1018
REMARK  Name = ZINC000013542806
REMARK                            x       y       z     vdW  Elec       q    Type
REMARK                         _______ _______ _______ _____ _____    ______ ____
ROOT
ATOM      1  C1*   U A  1        0.071   5.388   0.412  0.00  0.00    +0.450 C 
ATOM      2  O4*   U A  1        0.661   5.863  -0.817  0.00  0.00    -0.350 OA
ATOM      3  C4*   U A  1        1.111   7.207  -0.575  0.00  0.00    +0.150 C 
ATOM      4  C3*   U A  1        1.402   7.328   0.933  0.00  0.00    +0.140 C 
ATOM      5  C2*   U A  1        1.017   5.941   1.508  0.00  0.00    +0.170 C 
ENDROOT
BRANCH   1  10
ATOM      6  O4    U A  1        0.207   0.012   0.987  0.00  0.00    -0.500 OA
ATOM      7  C4    U A  1        0.243   1.222   0.920  0.00  0.00    +0.520 C 
ATOM      8  C5    U A  1        1.423   1.907   0.276  0.00  0.00    +0.090 C 
ATOM      9  C6    U A  1        0.942   3.170  -0.441  0.00  0.00    +0.310 C 
ATOM     10  N1    U A  1        0.048   3.923   0.441  0.00  0.00    -0.600 N 
ATOM     11  C2    U A  1       -0.792   3.291   1.276  0.00  0.00    +0.720 C 
ATOM     12  O2    U A  1       -1.592   3.942   1.919  0.00  0.00    -0.560 OA
ATOM     13  N3    U A  1       -0.771   1.955   1.414  0.00  0.00    -0.670 N 
ATOM     14  H3    U A  1       -1.495   1.512   1.884  0.00  0.00    +0.430 HD
ENDBRANCH   1  10
BRANCH   4  15
ATOM     15  O3*   U A  1        0.595   8.352   1.518  0.00  0.00    -0.550 OA
ATOM     16  H3*   U A  1        0.753   9.233   1.153  0.00  0.00    +0.390 HD
ENDBRANCH   4  15
BRANCH   5  17
ATOM     17  O2*   U A  1        2.170   5.109   1.650  0.00  0.00    -0.540 OA
ATOM     18  H2*   U A  1        2.836   5.460   2.257  0.00  0.00    +0.380 HD
ENDBRANCH   5  17
BRANCH   3  19
ATOM     19  C5*   U A  1        2.384   7.482  -1.378  0.00  0.00    +0.200 C 
BRANCH  19  20
ATOM     20  O5*   U A  1        2.080   7.467  -2.774  0.00  0.00    -0.560 OA
ATOM     21  H5*   U A  1        2.842   7.634  -3.344  0.00  0.00    +0.380 HD
ENDBRANCH  19  20
ENDBRANCH   3  19
TORSDOF 5
ENDMDL
MODEL     1019
REMARK  Name = ZINC000004095788
REMARK                            x       y       z     vdW  Elec       q    Type
REMARK                         _______ _______ _______ _____ _____    ______ ____
ROOT
ATOM      1  C   LIG    1       -0.117   5.440   0.035  0.00  0.00    +0.260 C 
ATOM      2  O   LIG    1        0.666   5.950  -1.058  0.00  0.00    -0.330 OA
ATOM      3  C   LIG    1        1.273   7.179  -0.603  0.00  0.00    +0.140 C 
ATOM      4  C   LIG    1        1.686   6.859   0.857  0.00  0.00    +0.140 C 
ATOM      5  C   LIG    1        0.511   5.968   1.339  0.00  0.00    +0.180 C 
ENDROOT
BRANCH   1  11
ATOM      6  O   LIG    1        0.002  -0.004   0.002  0.00  0.00    -0.530 OA
ATOM      7  C   LIG    1       -0.014   1.212   0.009  0.00  0.00    +0.700 A 
ATOM      8  N   LIG    1       -1.194   1.859   0.029  0.00  0.00    -0.630 N 
ATOM      9  H   LIG    1       -2.020   1.351   0.037  0.00  0.00    +0.440 HD
ATOM     10  C   LIG    1       -1.238   3.226   0.037  0.00  0.00    +0.390 A 
ATOM     11  C   LIG    1       -0.088   3.933   0.025  0.00  0.00    -0.270 A 
ATOM     12  C   LIG    1        1.146   3.239   0.004  0.00  0.00    +0.560 A 
ATOM     13  O   LIG    1        2.197   3.855  -0.008  0.00  0.00    -0.500 OA
ATOM     14  N   LIG    1        1.147   1.891   0.001  0.00  0.00    -0.660 N 
ATOM     15  H   LIG    1        1.989   1.409  -0.013  0.00  0.00    +0.430 HD
ENDBRANCH   1  11
BRANCH   4  16
ATOM     16  O   LIG    1        1.771   8.054   1.636  0.00  0.00    -0.550 OA
ATOM     17  H   LIG    1        2.431   8.685   1.318  0.00  0.00    +0.390 HD
ENDBRANCH   4  16
BRANCH   5  18
ATOM     18  O   LIG    1       -0.434   6.743   2.079  0.00  0.00    -0.550 OA
ATOM     19  H   LIG    1       -0.071   7.146   2.879  0.00  0.00    +0.390 HD
ENDBRANCH   5  18
BRANCH   3  20
ATOM     20  C   LIG    1        2.501   7.519  -1.450  0.00  0.00    +0.200 C 
BRANCH  20  21
ATOM     21  O   LIG    1        2.088   7.822  -2.785  0.00  0.00    -0.560 OA
ATOM     22  H   LIG    1        2.816   8.048  -3.380  0.00  0.00    +0.380 HD
ENDBRANCH  20  21
ENDBRANCH   3  20
TORSDOF 5
ENDMDL
MODEL     1020
REMARK  Name = ZINC000013542807
REMARK                            x       y       z     vdW  Elec       q    Type
REMARK                         _______ _______ _______ _____ _____    ______ ____
ROOT
ATOM      1  C1*   U A  1        0.071   5.388   0.412  0.00  0.00    +0.460 C 
ATOM      2  O4*   U A  1       -1.193   5.905   0.859  0.00  0.00    -0.330 OA
ATOM      3  C4*   U A  1       -1.074   6.141   2.278  0.00  0.00    +0.130 C 
ATOM      4  C3*   U A  1        0.353   6.726   2.429  0.00  0.00    +0.130 C 
ATOM      5  C2*   U A  1        1.152   5.914   1.376  0.00  0.00    +0.180 C 
ENDROOT
BRANCH   1  10
ATOM      6  O4    U A  1        0.002  -0.004   0.002  0.00  0.00    -0.500 OA
ATOM      7  C4    U A  1       -0.014   1.208   0.009  0.00  0.00    +0.520 C 
ATOM      8  C5    U A  1       -1.330   1.945   0.032  0.00  0.00    +0.090 C 
ATOM      9  C6    U A  1       -1.174   3.228   0.850  0.00  0.00    +0.300 C 
ATOM     10  N1    U A  1        0.048   3.923   0.441  0.00  0.00    -0.630 N 
ATOM     11  C2    U A  1        1.149   3.237   0.093  0.00  0.00    +0.710 C 
ATOM     12  O2    U A  1        2.176   3.843  -0.141  0.00  0.00    -0.540 OA
ATOM     13  N3    U A  1        1.141   1.897   0.001  0.00  0.00    -0.670 N 
ATOM     14  H3    U A  1        1.982   1.419  -0.079  0.00  0.00    +0.430 HD
ENDBRANCH   1  10
BRANCH   4  15
ATOM     15  O3*   U A  1        0.862   6.497   3.745  0.00  0.00    -0.550 OA
ATOM     16  H3*   U A  1        0.341   6.913   4.446  0.00  0.00    +0.390 HD
ENDBRANCH   4  15
BRANCH   5  17
ATOM     17  O2*   U A  1        2.076   6.760   0.688  0.00  0.00    -0.540 OA
ATOM     18  H2*   U A  1        2.742   7.164   1.261  0.00  0.00    +0.390 HD
ENDBRANCH   5  17
BRANCH   3  19
ATOM     19  C5*   U A  1       -2.126   7.149   2.747  0.00  0.00    +0.200 C 
BRANCH  19  20
ATOM     20  O5*   U A  1       -3.428   6.577   2.610  0.00  0.00    -0.560 OA
ATOM     21  H5*   U A  1       -4.146   7.161   2.889  0.00  0.00    +0.390 HD
ENDBRANCH  19  20
ENDBRANCH   3  19
TORSDOF 5
ENDMDL
MODEL     1021
REMARK  Name = ZINC000004195021
REMARK                            x       y       z     vdW  Elec       q    Type
REMARK                         _______ _______ _______ _____ _____    ______ ____
ROOT
ATOM      1  C1* LIG    1        0.139  -4.130  -0.024  0.00  0.00    +0.450 C 
ATOM      2  O4* LIG    1        0.560  -4.617  -1.317  0.00  0.00    -0.350 OA
ATOM      3  C4* LIG    1        1.026  -5.964  -1.084  0.00  0.00    +0.190 C 
ATOM      4  C3* LIG    1        1.805  -5.887   0.248  0.00  0.00    +0.140 C 
ATOM      5  C2* LIG    1        1.206  -4.654   0.964  0.00  0.00    +0.130 C 
ENDROOT
BRANCH   1   9
ATOM      6  C   LIG    1        0.002  -0.004   0.002  0.00  0.00    +0.470 A 
ATOM      7  N   LIG    1       -1.131  -0.697   0.004  0.00  0.00    -0.590 NA
ATOM      8  C   LIG    1       -1.076  -2.031  -0.004  0.00  0.00    +0.630 A 
ATOM      9  N   LIG    1        0.110  -2.666  -0.014  0.00  0.00    -0.370 N 
ATOM     10  N   LIG    1        1.219  -2.014  -0.016  0.00  0.00    -0.090 NA
ATOM     11  O   LIG    1       -2.110  -2.680  -0.003  0.00  0.00    -0.530 OA
ATOM     12  C   LIG    1        1.229  -0.709  -0.013  0.00  0.00    +0.150 A 
BRANCH   6  13
ATOM     13  N   LIG    1       -0.017   1.371   0.010  0.00  0.00    -0.800 N 
ATOM     14  H   LIG    1       -0.863   1.845   0.016  0.00  0.00    +0.420 HD
ATOM     15  H   LIG    1        0.817   1.867   0.004  0.00  0.00    +0.420 HD
ENDBRANCH   6  13
ENDBRANCH   1   9
BRANCH   4  16
ATOM     16  O3* LIG    1        3.200  -5.700   0.002  0.00  0.00    -0.530 OA
ATOM     17  H3* LIG    1        3.737  -5.646   0.804  0.00  0.00    +0.380 HD
ENDBRANCH   4  16
BRANCH   5  18
ATOM     18  O2* LIG    1        2.213  -3.664   1.184  0.00  0.00    -0.510 OA
ATOM     19  H2* LIG    1        2.940  -3.962   1.748  0.00  0.00    +0.370 HD
ENDBRANCH   5  18
BRANCH   3  20
ATOM     20  C5* LIG    1        1.950  -6.412  -2.219  0.00  0.00    +0.230 C 
BRANCH  20  21
ATOM     21  O5* LIG    1        1.199  -6.517  -3.430  0.00  0.00    -0.570 OA
ATOM     22  H5* LIG    1        1.722  -6.798  -4.194  0.00  0.00    +0.380 HD
ENDBRANCH  20  21
ENDBRANCH   3  20
TORSDOF 6
ENDMDL
MODEL     1022
REMARK  Name = ZINC000018141564
REMARK                            x       y       z     vdW  Elec       q    Type
REMARK                         _______ _______ _______ _____ _____    ______ ____
ROOT
ATOM      1  C   LIG    1       -2.580  -2.823   0.011  0.00  0.00    +0.210 C 
ENDROOT
BRANCH   1   2
ATOM      2  C   LIG    1       -1.246  -2.121   0.003  0.00  0.00    +0.350 C 
ATOM      3  O   LIG    1       -0.225  -2.765  -0.011  0.00  0.00    -0.380 OA
BRANCH   2   4
ATOM      4  C   LIG    1       -1.189  -0.631   0.010  0.00  0.00    +0.430 C 
ATOM      5  O   LIG    1       -2.215   0.015   0.023  0.00  0.00    -0.460 OA
BRANCH   4   7
ATOM      6  C   LIG    1       -0.018   1.448   0.010  0.00  0.00    +0.280 C 
ATOM      7  O   LIG    1        0.002  -0.004   0.002  0.00  0.00    -0.340 OA
ENDBRANCH   4   7
ENDBRANCH   2   4
ENDBRANCH   1   2
BRANCH   1   8
ATOM      8  O   LIG    1       -2.398  -4.195  -0.346  0.00  0.00    -0.520 OA
ATOM      9  H   LIG    1       -1.814  -4.683   0.250  0.00  0.00    +0.390 HD
ENDBRANCH   1   8
BRANCH   1  10
ATOM     10  C   LIG    1       -3.192  -2.738   1.411  0.00  0.00    +0.170 C 
BRANCH  10  11
ATOM     11  O   LIG    1       -3.373  -1.367   1.769  0.00  0.00    -0.540 OA
ATOM     12  H   LIG    1       -3.957  -0.878   1.172  0.00  0.00    +0.390 HD
ENDBRANCH  10  11
BRANCH  10  13
ATOM     13  C   LIG    1       -4.545  -3.451   1.420  0.00  0.00    +0.210 C 
BRANCH  13  14
ATOM     14  O   LIG    1       -5.380  -2.901   0.399  0.00  0.00    -0.540 OA
ATOM     15  H   LIG    1       -5.555  -1.956   0.501  0.00  0.00    +0.370 HD
ENDBRANCH  13  14
BRANCH  13  16
ATOM     16  C   LIG    1       -5.213  -3.260   2.783  0.00  0.00    +0.170 C 
BRANCH  16  17
ATOM     17  O   LIG    1       -6.422  -4.021   2.833  0.00  0.00    -0.560 OA
ATOM     18  H   LIG    1       -6.900  -3.947   3.670  0.00  0.00    +0.380 HD
ENDBRANCH  16  17
ENDBRANCH  13  16
ENDBRANCH  10  13
ENDBRANCH   1  10
TORSDOF 10
ENDMDL
MODEL     1023
REMARK  Name = ZINC000004301186
REMARK                            x       y       z     vdW  Elec       q    Type
REMARK                         _______ _______ _______ _____ _____    ______ ____
ROOT
ATOM      1  C   LIG    1       -1.136  -2.159   0.001  0.00  0.00    +0.250 C 
ATOM      2  C   LIG    1       -2.374  -2.691   0.729  0.00  0.00    +0.180 C 
ATOM      3  C   LIG    1       -3.629  -2.250  -0.030  0.00  0.00    +0.120 C 
ATOM      4  C   LIG    1       -3.544  -2.750  -1.474  0.00  0.00    +0.140 C 
ATOM      5  O   LIG    1       -2.355  -2.244  -2.084  0.00  0.00    -0.370 OA
ATOM      6  C   LIG    1       -1.146  -2.662  -1.444  0.00  0.00    +0.370 C 
ENDROOT
BRANCH   1   9
ATOM      7  C   LIG    1       -0.615   1.489   1.040  0.00  0.00    +0.090 C 
ATOM      8  C   LIG    1       -0.594  -0.018   1.031  0.00  0.00    +0.520 C 
ATOM      9  N   LIG    1       -1.156  -0.694   0.009  0.00  0.00    -0.700 N 
ATOM     10  H   LIG    1       -1.573  -0.210  -0.721  0.00  0.00    +0.410 HD
ATOM     11  O   LIG    1       -0.073  -0.622   1.944  0.00  0.00    -0.540 OA
ENDBRANCH   1   9
BRANCH   3  12
ATOM     12  O   LIG    1       -3.715  -0.824  -0.022  0.00  0.00    -0.540 OA
ATOM     13  H   LIG    1       -4.488  -0.473  -0.486  0.00  0.00    +0.370 HD
ENDBRANCH   3  12
BRANCH   2  14
ATOM     14  O   LIG    1       -2.409  -2.168   2.059  0.00  0.00    -0.530 OA
ATOM     15  H   LIG    1       -3.168  -2.465   2.579  0.00  0.00    +0.370 HD
ENDBRANCH   2  14
BRANCH   6  16
ATOM     16  O   LIG    1       -1.072  -4.090  -1.452  0.00  0.00    -0.570 OA
ATOM     17  H   LIG    1       -1.077  -4.479  -2.338  0.00  0.00    +0.390 HD
ENDBRANCH   6  16
BRANCH   4  18
ATOM     18  C   LIG    1       -4.766  -2.263  -2.256  0.00  0.00    +0.200 C 
BRANCH  18  19
ATOM     19  O   LIG    1       -4.747  -2.825  -3.569  0.00  0.00    -0.560 OA
ATOM     20  H   LIG    1       -5.494  -2.558  -4.122  0.00  0.00    +0.380 HD
ENDBRANCH  18  19
ENDBRANCH   4  18
TORSDOF 6
ENDMDL
MODEL     1024
REMARK  Name = ZINC000004353164
REMARK                            x       y       z     vdW  Elec       q    Type
REMARK                         _______ _______ _______ _____ _____    ______ ____
ROOT
ATOM      1  C   LIG    1        0.652  -0.570  -1.138  0.00  0.00    +0.290 C 
ATOM      2  O   LIG    1        2.057  -0.325  -1.056  0.00  0.00    -0.390 OA
ATOM      3  C   LIG    1        2.803  -0.830  -2.165  0.00  0.00    +0.160 C 
ATOM      4  C   LIG    1        2.638  -2.350  -2.240  0.00  0.00    +0.180 C 
ATOM      5  C   LIG    1        1.149  -2.688  -2.361  0.00  0.00    +0.150 C 
ATOM      6  C   LIG    1        0.400  -2.080  -1.172  0.00  0.00    +0.150 C 
ENDROOT
BRANCH   1   8
ATOM      7  C   LIG    1       -0.017   1.425   0.010  0.00  0.00    +0.210 C 
ATOM      8  O   LIG    1        0.002  -0.004   0.002  0.00  0.00    -0.370 OA
ENDBRANCH   1   8
BRANCH   5   9
ATOM      9  O   LIG    1        0.979  -4.107  -2.360  0.00  0.00    -0.550 OA
ATOM     10  H   LIG    1        0.058  -4.393  -2.434  0.00  0.00    +0.390 HD
ENDBRANCH   5   9
BRANCH   4  11
ATOM     11  O   LIG    1        3.170  -2.947  -1.056  0.00  0.00    -0.530 OA
ATOM     12  H   LIG    1        3.098  -3.911  -1.036  0.00  0.00    +0.380 HD
ENDBRANCH   4  11
BRANCH   6  13
ATOM     13  O   LIG    1       -1.001  -2.329  -1.311  0.00  0.00    -0.560 OA
ATOM     14  H   LIG    1       -1.538  -1.970  -0.591  0.00  0.00    +0.390 HD
ENDBRANCH   6  13
BRANCH   3  15
ATOM     15  C   LIG    1        4.283  -0.486  -1.984  0.00  0.00    +0.250 C 
BRANCH  15  16
ATOM     16  O   LIG    1        4.795  -1.173  -0.841  0.00  0.00    -0.530 OA
ATOM     17  H   LIG    1        4.347  -0.948  -0.014  0.00  0.00    +0.380 HD
ENDBRANCH  15  16
BRANCH  15  18
ATOM     18  C   LIG    1        4.435   1.023  -1.783  0.00  0.00    +0.160 C 
BRANCH  18  19
ATOM     19  O   LIG    1        5.823   1.359  -1.730  0.00  0.00    -0.560 OA
ATOM     20  H   LIG    1        5.994   2.303  -1.604  0.00  0.00    +0.380 HD
ENDBRANCH  18  19
ENDBRANCH  15  18
ENDBRANCH   3  15
TORSDOF 8
ENDMDL
MODEL     1025
REMARK  Name = ZINC000004353162
REMARK                            x       y       z     vdW  Elec       q    Type
REMARK                         _______ _______ _______ _____ _____    ______ ____
ROOT
ATOM      1  C   LIG    1        0.652  -0.570  -1.138  0.00  0.00    +0.290 C 
ATOM      2  O   LIG    1        2.057  -0.325  -1.056  0.00  0.00    -0.380 OA
ATOM      3  C   LIG    1        2.803  -0.830  -2.165  0.00  0.00    +0.160 C 
ATOM      4  C   LIG    1        2.638  -2.350  -2.240  0.00  0.00    +0.170 C 
ATOM      5  C   LIG    1        1.149  -2.688  -2.361  0.00  0.00    +0.150 C 
ATOM      6  C   LIG    1        0.400  -2.080  -1.172  0.00  0.00    +0.140 C 
ENDROOT
BRANCH   1   8
ATOM      7  C   LIG    1       -0.017   1.425   0.010  0.00  0.00    +0.210 C 
ATOM      8  O   LIG    1        0.002  -0.004   0.002  0.00  0.00    -0.370 OA
ENDBRANCH   1   8
BRANCH   5   9
ATOM      9  O   LIG    1        0.979  -4.107  -2.360  0.00  0.00    -0.550 OA
ATOM     10  H   LIG    1        0.058  -4.393  -2.434  0.00  0.00    +0.380 HD
ENDBRANCH   5   9
BRANCH   4  11
ATOM     11  O   LIG    1        3.170  -2.947  -1.056  0.00  0.00    -0.510 OA
ATOM     12  H   LIG    1        3.098  -3.911  -1.036  0.00  0.00    +0.380 HD
ENDBRANCH   4  11
BRANCH   6  13
ATOM     13  O   LIG    1        0.870  -2.671   0.041  0.00  0.00    -0.520 OA
ATOM     14  H   LIG    1        0.438  -2.332   0.837  0.00  0.00    +0.380 HD
ENDBRANCH   6  13
BRANCH   3  15
ATOM     15  C   LIG    1        4.283  -0.486  -1.984  0.00  0.00    +0.240 C 
BRANCH  15  16
ATOM     16  O   LIG    1        4.795  -1.173  -0.841  0.00  0.00    -0.520 OA
ATOM     17  H   LIG    1        4.347  -0.948  -0.014  0.00  0.00    +0.380 HD
ENDBRANCH  15  16
BRANCH  15  18
ATOM     18  C   LIG    1        4.435   1.023  -1.783  0.00  0.00    +0.160 C 
BRANCH  18  19
ATOM     19  O   LIG    1        5.823   1.359  -1.730  0.00  0.00    -0.560 OA
ATOM     20  H   LIG    1        5.994   2.303  -1.604  0.00  0.00    +0.380 HD
ENDBRANCH  18  19
ENDBRANCH  15  18
ENDBRANCH   3  15
TORSDOF 8
ENDMDL
MODEL     1026
REMARK  Name = ZINC000004429953
REMARK                            x       y       z     vdW  Elec       q    Type
REMARK                         _______ _______ _______ _____ _____    ______ ____
ROOT
ATOM      1  C   LIG    1        0.657  -2.104  -1.120  0.00  0.00    +0.280 C 
ATOM      2  O   LIG    1        1.438  -2.493  -2.252  0.00  0.00    -0.360 OA
ATOM      3  C   LIG    1        1.537  -3.906  -2.434  0.00  0.00    +0.230 C 
ATOM      4  C   LIG    1        2.216  -4.530  -1.212  0.00  0.00    +0.120 C 
ATOM      5  C   LIG    1        1.413  -4.179   0.044  0.00  0.00    +0.220 C 
ATOM      6  C   LIG    1        1.301  -2.655   0.155  0.00  0.00    +0.210 C 
ENDROOT
BRANCH   1   7
ATOM      7  C   LIG    1        0.598  -0.600  -1.043  0.00  0.00    +0.450 C 
ATOM      8  O   LIG    1        1.088   0.070  -1.921  0.00  0.00    -0.460 OA
BRANCH   7  10
ATOM      9  C   LIG    1       -0.018   1.448   0.010  0.00  0.00    +0.280 C 
ATOM     10  O   LIG    1        0.002  -0.004   0.002  0.00  0.00    -0.350 OA
ENDBRANCH   7  10
ENDBRANCH   1   7
BRANCH   5  11
ATOM     11  O   LIG    1        2.078  -4.697   1.198  0.00  0.00    -0.540 OA
ATOM     12  H   LIG    1        2.188  -5.657   1.190  0.00  0.00    +0.380 HD
ENDBRANCH   5  11
BRANCH   4  13
ATOM     13  O   LIG    1        3.544  -4.017  -1.090  0.00  0.00    -0.550 OA
ATOM     14  H   LIG    1        4.108  -4.200  -1.853  0.00  0.00    +0.380 HD
ENDBRANCH   4  13
BRANCH   1  15
ATOM     15  O   LIG    1       -0.666  -2.627  -1.250  0.00  0.00    -0.530 OA
ATOM     16  H   LIG    1       -1.135  -2.319  -2.038  0.00  0.00    +0.390 HD
ENDBRANCH   1  15
BRANCH   6  17
ATOM     17  O   LIG    1        0.493  -2.317   1.284  0.00  0.00    -0.530 OA
ATOM     18  H   LIG    1        0.380  -1.365   1.416  0.00  0.00    +0.380 HD
ENDBRANCH   6  17
TORSDOF 6
ENDMDL
MODEL     1027
REMARK  Name = ZINC000004429951
REMARK                            x       y       z     vdW  Elec       q    Type
REMARK                         _______ _______ _______ _____ _____    ______ ____
ROOT
ATOM      1  C   LIG    1        0.657  -2.104  -1.120  0.00  0.00    +0.280 C 
ATOM      2  O   LIG    1        1.438  -2.493  -2.252  0.00  0.00    -0.350 OA
ATOM      3  C   LIG    1        1.537  -3.906  -2.434  0.00  0.00    +0.210 C 
ATOM      4  C   LIG    1        2.216  -4.530  -1.212  0.00  0.00    +0.110 C 
ATOM      5  C   LIG    1        1.413  -4.179   0.044  0.00  0.00    +0.220 C 
ATOM      6  C   LIG    1        1.301  -2.655   0.155  0.00  0.00    +0.200 C 
ENDROOT
BRANCH   1   7
ATOM      7  C   LIG    1        0.598  -0.600  -1.043  0.00  0.00    +0.440 C 
ATOM      8  O   LIG    1        1.088   0.070  -1.921  0.00  0.00    -0.460 OA
BRANCH   7  10
ATOM      9  C   LIG    1       -0.018   1.448   0.010  0.00  0.00    +0.280 C 
ATOM     10  O   LIG    1        0.002  -0.004   0.002  0.00  0.00    -0.350 OA
ENDBRANCH   7  10
ENDBRANCH   1   7
BRANCH   5  11
ATOM     11  O   LIG    1        2.078  -4.697   1.198  0.00  0.00    -0.540 OA
ATOM     12  H   LIG    1        2.188  -5.657   1.190  0.00  0.00    +0.380 HD
ENDBRANCH   5  11
BRANCH   4  13
ATOM     13  O   LIG    1        3.544  -4.017  -1.090  0.00  0.00    -0.520 OA
ATOM     14  H   LIG    1        4.108  -4.200  -1.853  0.00  0.00    +0.370 HD
ENDBRANCH   4  13
BRANCH   1  15
ATOM     15  O   LIG    1       -0.666  -2.627  -1.250  0.00  0.00    -0.540 OA
ATOM     16  H   LIG    1       -1.135  -2.319  -2.038  0.00  0.00    +0.400 HD
ENDBRANCH   1  15
BRANCH   6  17
ATOM     17  O   LIG    1        2.604  -2.091   0.316  0.00  0.00    -0.500 OA
ATOM     18  H   LIG    1        2.609  -1.128   0.393  0.00  0.00    +0.370 HD
ENDBRANCH   6  17
TORSDOF 6
ENDMDL
MODEL     1028
REMARK  Name = ZINC000004521616
REMARK                            x       y       z     vdW  Elec       q    Type
REMARK                         _______ _______ _______ _____ _____    ______ ____
ROOT
ATOM      1  C   LIG    1        2.743  -1.776   1.578  0.00  0.00    +0.220 C 
ENDROOT
BRANCH   1   6
ATOM      2  C   LIG    1       -0.019   1.526   0.010  0.00  0.00    +0.050 C 
ATOM      3  C   LIG    1        0.002  -0.004   0.002  0.00  0.00    +0.250 C 
ATOM      4  O   LIG    1        0.685  -0.470  -1.169  0.00  0.00    -0.380 OA
ATOM      5  C   LIG    1        1.825  -1.234  -0.725  0.00  0.00    +0.210 C 
ATOM      6  C   LIG    1        2.054  -0.716   0.717  0.00  0.00    +0.110 C 
ATOM      7  C   LIG    1       -1.432  -0.537   0.003  0.00  0.00    +0.070 C 
ATOM      8  O   LIG    1        0.697  -0.484   1.165  0.00  0.00    -0.360 OA
ENDBRANCH   1   6
BRANCH   1   9
ATOM      9  O   LIG    1        4.008  -2.108   1.004  0.00  0.00    -0.540 OA
ATOM     10  H   LIG    1        4.616  -1.359   0.933  0.00  0.00    +0.370 HD
ENDBRANCH   1   9
BRANCH   1  11
ATOM     11  C   LIG    1        2.951  -1.230   2.991  0.00  0.00    +0.170 C 
BRANCH  11  12
ATOM     12  O   LIG    1        3.670   0.004   2.924  0.00  0.00    -0.550 OA
ATOM     13  H   LIG    1        4.543  -0.072   2.515  0.00  0.00    +0.370 HD
ENDBRANCH  11  12
BRANCH  11  14
ATOM     14  C   LIG    1        3.750  -2.241   3.817  0.00  0.00    +0.190 C 
BRANCH  14  15
ATOM     15  O   LIG    1        3.031  -3.474   3.885  0.00  0.00    -0.540 OA
ATOM     16  H   LIG    1        2.158  -3.398   4.293  0.00  0.00    +0.370 HD
ENDBRANCH  14  15
BRANCH  14  17
ATOM     17  C   LIG    1        3.959  -1.694   5.230  0.00  0.00    +0.150 C 
BRANCH  17  18
ATOM     18  O   LIG    1        4.802  -2.583   5.965  0.00  0.00    -0.570 OA
ATOM     19  H   LIG    1        4.978  -2.298   6.873  0.00  0.00    +0.380 HD
ENDBRANCH  17  18
ENDBRANCH  14  17
ENDBRANCH  11  14
ENDBRANCH   1  11
TORSDOF 8
ENDMDL
MODEL     1029
REMARK  Name = ZINC000004533539
REMARK                            x       y       z     vdW  Elec       q    Type
REMARK                         _______ _______ _______ _____ _____    ______ ____
ROOT
ATOM      1  CA  HIS A  1       -0.699   1.479   1.216  0.00  0.00    +0.180 C 
ENDROOT
BRANCH   1   2
ATOM      2  N   HIS A  1       -0.012   1.005   0.008  0.00  0.00    -0.620 N 
ATOM      3  H1  HIS A  1       -0.500   1.339  -0.810  0.00  0.00    +0.440 HD
ATOM      4  H2  HIS A  1        0.935   1.354   0.000  0.00  0.00    +0.440 HD
ATOM      5  H3  HIS A  1        0.002  -0.004   0.002  0.00  0.00    +0.440 HD
ENDBRANCH   1   2
BRANCH   1   6
ATOM      6  C   HIS A  1       -0.720   2.985   1.224  0.00  0.00    +0.480 C 
ATOM      7  N   GLY A  2       -0.920   3.650   2.380  0.00  0.00    -0.660 N 
ATOM      8  H   GLY A  2       -1.052   3.159   3.205  0.00  0.00    +0.420 HD
ATOM      9  O   HIS A  1       -0.555   3.600   0.192  0.00  0.00    -0.540 OA
BRANCH   7  10
ATOM     10  CA  GLY A  2       -0.940   5.115   2.388  0.00  0.00    +0.200 C 
BRANCH  10  11
ATOM     11  C   GLY A  2       -1.181   5.606   3.792  0.00  0.00    +0.490 C 
ATOM     12  OXT GLY A  2       -1.233   6.803   4.018  0.00  0.00    -0.670 OA
ATOM     13  O   GLY A  2       -1.322   4.807   4.702  0.00  0.00    -0.690 OA
ENDBRANCH  10  11
ENDBRANCH   7  10
ENDBRANCH   1   6
BRANCH   1  14
ATOM     14  CB  HIS A  1       -2.135   0.949   1.227  0.00  0.00    +0.190 C 
BRANCH  14  15
ATOM     15  CG  HIS A  1       -2.115  -0.553   1.343  0.00  0.00    -0.070 A 
ATOM     16  CD2 HIS A  1       -1.982  -1.435   0.333  0.00  0.00    +0.150 A 
ATOM     17  NE2 HIS A  1       -2.014  -2.670   0.854  0.00  0.00    -0.490 NA
ATOM     18  CE1 HIS A  1       -2.161  -2.588   2.148  0.00  0.00    +0.440 A 
ATOM     19  ND1 HIS A  1       -2.223  -1.285   2.495  0.00  0.00    -0.560 N 
ATOM     20  HD1 HIS A  1       -2.329  -0.932   3.392  0.00  0.00    +0.430 HD
ENDBRANCH  14  15
ENDBRANCH   1  14
TORSDOF 6
ENDMDL
MODEL     1030
REMARK  Name = ZINC000004536645
REMARK                            x       y       z     vdW  Elec       q    Type
REMARK                         _______ _______ _______ _____ _____    ______ ____
ROOT
ATOM      1  C   LIG    1       -1.136  -2.159   0.001  0.00  0.00    +0.190 C 
ATOM      2  C   LIG    1       -1.067  -2.694   1.417  0.00  0.00    +0.480 C 
ATOM      3  O   LIG    1       -2.312  -3.034   1.797  0.00  0.00    -0.340 OA
ATOM      4  C   LIG    1       -3.035  -3.519   0.626  0.00  0.00    +0.180 C 
ATOM      5  O   LIG    1       -0.067  -2.797   2.088  0.00  0.00    -0.410 OA
ATOM      6  C   LIG    1       -2.463  -2.712  -0.563  0.00  0.00    +0.190 C 
ENDROOT
BRANCH   1   9
ATOM      7  C   LIG    1       -0.018   1.503   0.010  0.00  0.00    +0.110 C 
ATOM      8  C   LIG    1        0.002  -0.004   0.002  0.00  0.00    +0.510 C 
ATOM      9  N   LIG    1       -1.156  -0.694   0.009  0.00  0.00    -0.720 N 
ATOM     10  H   LIG    1       -2.002  -0.220   0.020  0.00  0.00    +0.410 HD
ATOM     11  O   LIG    1        1.060  -0.596  -0.011  0.00  0.00    -0.520 OA
ENDBRANCH   1   9
BRANCH   6  12
ATOM     12  O   LIG    1       -2.226  -3.565  -1.685  0.00  0.00    -0.540 OA
ATOM     13  H   LIG    1       -1.867  -3.108  -2.458  0.00  0.00    +0.400 HD
ENDBRANCH   6  12
BRANCH   4  14
ATOM     14  C   LIG    1       -4.534  -3.253   0.779  0.00  0.00    +0.250 C 
BRANCH  14  15
ATOM     15  O   LIG    1       -4.765  -1.844   0.834  0.00  0.00    -0.540 OA
ATOM     16  H   LIG    1       -4.320  -1.401   1.569  0.00  0.00    +0.380 HD
ENDBRANCH  14  15
BRANCH  14  17
ATOM     17  C   LIG    1       -5.037  -3.903   2.070  0.00  0.00    +0.160 C 
BRANCH  17  18
ATOM     18  O   LIG    1       -6.456  -3.756   2.155  0.00  0.00    -0.560 OA
ATOM     19  H   LIG    1       -6.845  -4.146   2.950  0.00  0.00    +0.390 HD
ENDBRANCH  17  18
ENDBRANCH  14  17
ENDBRANCH   4  14
TORSDOF 6
ENDMDL
MODEL     1031
REMARK  Name = ZINC000004557111
REMARK                            x       y       z     vdW  Elec       q    Type
REMARK                         _______ _______ _______ _____ _____    ______ ____
ROOT
ATOM      1  C   LIG    1        0.877  -0.392  -1.539  0.00  0.00    +0.220 C 
ATOM      2  O   LIG    1        0.099   0.051  -2.653  0.00  0.00    -0.330 OA
ATOM      3  C   LIG    1       -1.204  -0.534  -2.724  0.00  0.00    +0.190 C 
ATOM      4  C   LIG    1       -1.072  -2.052  -2.870  0.00  0.00    +0.170 C 
ATOM      5  C   LIG    1       -0.271  -2.604  -1.688  0.00  0.00    +0.170 C 
ATOM      6  C   LIG    1        1.092  -1.904  -1.637  0.00  0.00    +0.140 C 
ENDROOT
BRANCH   1   8
ATOM      7  C   LIG    1       -0.022   1.810   0.012  0.00  0.00    +0.160 C 
ATOM      8  S   LIG    1        0.002  -0.004   0.002  0.00  0.00    -0.290 S 
ENDBRANCH   1   8
BRANCH   5   9
ATOM      9  O   LIG    1       -0.082  -4.010  -1.852  0.00  0.00    -0.550 OA
ATOM     10  H   LIG    1        0.419  -4.426  -1.137  0.00  0.00    +0.390 HD
ENDBRANCH   5   9
BRANCH   4  11
ATOM     11  O   LIG    1       -0.395  -2.358  -4.091  0.00  0.00    -0.530 OA
ATOM     12  H   LIG    1       -0.277  -3.304  -4.249  0.00  0.00    +0.380 HD
ENDBRANCH   4  11
BRANCH   6  13
ATOM     13  O   LIG    1        1.828  -2.207  -2.824  0.00  0.00    -0.520 OA
ATOM     14  H   LIG    1        2.702  -1.796  -2.860  0.00  0.00    +0.380 HD
ENDBRANCH   6  13
BRANCH   3  15
ATOM     15  C   LIG    1       -1.952   0.032  -3.933  0.00  0.00    +0.220 C 
BRANCH  15  16
ATOM     16  O   LIG    1       -2.175   1.431  -3.742  0.00  0.00    -0.570 OA
ATOM     17  H   LIG    1       -2.646   1.857  -4.472  0.00  0.00    +0.380 HD
ENDBRANCH  15  16
ENDBRANCH   3  15
TORSDOF 6
ENDMDL
MODEL     1032
REMARK  Name = ZINC000034614967
REMARK                            x       y       z     vdW  Elec       q    Type
REMARK                         _______ _______ _______ _____ _____    ______ ____
ROOT
ATOM      1  C   LIG    1       -4.611   0.094  -0.986  0.00  0.00    +0.300 C 
ATOM      2  O   LIG    1       -5.292  -0.086   0.258  0.00  0.00    -0.380 OA
ATOM      3  C   LIG    1       -6.582   0.527   0.311  0.00  0.00    +0.190 C 
ATOM      4  C   LIG    1       -7.482  -0.089  -0.763  0.00  0.00    +0.170 C 
ATOM      5  C   LIG    1       -6.827   0.095  -2.135  0.00  0.00    +0.160 C 
ATOM      6  C   LIG    1       -5.433  -0.539  -2.112  0.00  0.00    +0.140 C 
ENDROOT
BRANCH   5   7
ATOM      7  O   LIG    1       -7.626  -0.540  -3.136  0.00  0.00    -0.560 OA
ATOM      8  H   LIG    1       -7.269  -0.463  -4.031  0.00  0.00    +0.400 HD
ENDBRANCH   5   7
BRANCH   4   9
ATOM      9  O   LIG    1       -8.755   0.561  -0.750  0.00  0.00    -0.550 OA
ATOM     10  H   LIG    1       -9.378   0.221  -1.407  0.00  0.00    +0.390 HD
ENDBRANCH   4   9
BRANCH   6  11
ATOM     11  O   LIG    1       -4.784  -0.312  -3.365  0.00  0.00    -0.560 OA
ATOM     12  H   LIG    1       -3.894  -0.687  -3.421  0.00  0.00    +0.400 HD
ENDBRANCH   6  11
BRANCH   1  13
ATOM     13  O   LIG    1       -3.328  -0.533  -0.922  0.00  0.00    -0.360 OA
BRANCH  13  14
ATOM     14  C   LIG    1       -2.438   0.061   0.026  0.00  0.00    +0.220 C 
BRANCH  14  17
ATOM     15  C   LIG    1       -0.018   1.503   0.010  0.00  0.00    +0.080 C 
ATOM     16  C   LIG    1        0.002  -0.004   0.002  0.00  0.00    -0.110 C 
ATOM     17  C   LIG    1       -1.123  -0.674   0.009  0.00  0.00    -0.050 C 
ATOM     18  C   LIG    1        1.317  -0.740  -0.015  0.00  0.00    +0.090 C 
ENDBRANCH  14  17
ENDBRANCH  13  14
ENDBRANCH   1  13
BRANCH   3  19
ATOM     19  C   LIG    1       -7.201   0.295   1.690  0.00  0.00    +0.230 C 
BRANCH  19  20
ATOM     20  O   LIG    1       -6.421   0.968   2.681  0.00  0.00    -0.570 OA
ATOM     21  H   LIG    1       -6.756   0.864   3.583  0.00  0.00    +0.380 HD
ENDBRANCH  19  20
ENDBRANCH   3  19
TORSDOF 8
ENDMDL
MODEL     1033
REMARK  Name = ZINC000004707332
REMARK                            x       y       z     vdW  Elec       q    Type
REMARK                         _______ _______ _______ _____ _____    ______ ____
ROOT
ATOM      1  C   LIG    1        0.002  -0.004   0.002  0.00  0.00    +0.500 A 
ATOM      2  C   LIG    1       -1.195  -0.739   0.004  0.00  0.00    -0.060 A 
ATOM      3  N   LIG    1       -2.511  -0.417   0.012  0.00  0.00    -0.470 NA
ATOM      4  C   LIG    1       -3.224  -1.506   0.010  0.00  0.00    +0.520 A 
ATOM      5  N   LIG    1       -2.407  -2.597  -0.001  0.00  0.00    -0.570 N 
ATOM      6  H   LIG    1       -2.689  -3.525  -0.004  0.00  0.00    +0.440 HD
ATOM      7  C   LIG    1       -1.113  -2.142  -0.005  0.00  0.00    +0.280 A 
ATOM      8  N   LIG    1        0.085  -2.718  -0.015  0.00  0.00    -0.460 NA
ATOM      9  C   LIG    1        1.181  -1.989  -0.016  0.00  0.00    -0.160 A 
ATOM     10  N   LIG    1        1.153  -0.668  -0.013  0.00  0.00    -0.520 NA
ENDROOT
BRANCH   1  11
ATOM     11  N   LIG    1       -0.017   1.380   0.010  0.00  0.00    -0.810 N 
ATOM     12  H   LIG    1       -0.863   1.853   0.016  0.00  0.00    +0.420 HD
ATOM     13  H   LIG    1        0.817   1.876   0.004  0.00  0.00    +0.420 HD
ENDBRANCH   1  11
BRANCH   9  14
ATOM     14  S   LIG    1        2.743  -2.804  -0.029  0.00  0.00    +2.730 S 
ATOM     15  O   LIG    1        2.522  -4.101   0.509  0.00  0.00    -0.930 OA
ATOM     16  O   LIG    1        3.679  -1.885   0.516  0.00  0.00    -0.930 OA
BRANCH  14  17
ATOM     17  N   LIG    1        3.169  -3.022  -1.614  0.00  0.00    -1.240 NA
ATOM     18  H   LIG    1        4.006  -3.458  -1.835  0.00  0.00    +0.430 HD
ATOM     19  H   LIG    1        2.581  -2.713  -2.321  0.00  0.00    +0.420 HD
ENDBRANCH  14  17
ENDBRANCH   9  14
TORSDOF 3
ENDMDL
MODEL     1034
REMARK  Name = ZINC000005063374
REMARK                            x       y       z     vdW  Elec       q    Type
REMARK                         _______ _______ _______ _____ _____    ______ ____
ROOT
ATOM      1  C   LIG    1        0.657  -2.104  -1.120  0.00  0.00    +0.230 C 
ATOM      2  O   LIG    1        1.434  -2.494  -2.256  0.00  0.00    -0.360 OA
ATOM      3  C   LIG    1        1.509  -3.910  -2.441  0.00  0.00    +0.420 C 
ATOM      4  O   LIG    1        0.190  -4.439  -2.600  0.00  0.00    -0.370 OA
ATOM      5  C   LIG    1       -0.676  -4.179  -1.492  0.00  0.00    +0.120 C 
ATOM      6  C   LIG    1       -2.072  -4.729  -1.800  0.00  0.00    +0.190 C 
ATOM      7  O   LIG    1       -2.626  -4.003  -2.902  0.00  0.00    -0.370 OA
ATOM      8  C   LIG    1       -2.718  -2.595  -2.674  0.00  0.00    +0.410 C 
ATOM      9  O   LIG    1       -1.415  -2.071  -2.407  0.00  0.00    -0.370 OA
ATOM     10  C   LIG    1       -0.760  -2.666  -1.263  0.00  0.00    +0.130 C 
ENDROOT
BRANCH   1  11
ATOM     11  C   LIG    1        0.598  -0.600  -1.043  0.00  0.00    +0.470 C 
ATOM     12  O   LIG    1        1.088   0.070  -1.921  0.00  0.00    -0.470 OA
BRANCH  11  14
ATOM     13  C   LIG    1       -0.018   1.448   0.010  0.00  0.00    +0.290 C 
ATOM     14  O   LIG    1        0.002  -0.004   0.002  0.00  0.00    -0.360 OA
ENDBRANCH  11  14
ENDBRANCH   1  11
BRANCH   6  15
ATOM     15  C   LIG    1       -1.970  -6.212  -2.162  0.00  0.00    +0.220 C 
BRANCH  15  16
ATOM     16  O   LIG    1       -3.281  -6.752  -2.335  0.00  0.00    -0.570 OA
ATOM     17  H   LIG    1       -3.293  -7.691  -2.567  0.00  0.00    +0.390 HD
ENDBRANCH  15  16
ENDBRANCH   6  15
TORSDOF 4
ENDMDL
MODEL     1035
REMARK  Name = ZINC000004721255
REMARK                            x       y       z     vdW  Elec       q    Type
REMARK                         _______ _______ _______ _____ _____    ______ ____
ROOT
ATOM      1  C   LIG    1        0.652  -0.570  -1.138  0.00  0.00    +0.280 C 
ATOM      2  O   LIG    1        2.057  -0.325  -1.056  0.00  0.00    -0.370 OA
ATOM      3  C   LIG    1        2.803  -0.830  -2.165  0.00  0.00    +0.200 C 
ATOM      4  C   LIG    1        2.638  -2.350  -2.240  0.00  0.00    +0.170 C 
ATOM      5  C   LIG    1        1.149  -2.688  -2.361  0.00  0.00    +0.190 C 
ATOM      6  C   LIG    1        0.400  -2.080  -1.172  0.00  0.00    +0.130 C 
ENDROOT
BRANCH   1   8
ATOM      7  C   LIG    1       -0.017   1.425   0.010  0.00  0.00    +0.220 C 
ATOM      8  O   LIG    1        0.002  -0.004   0.002  0.00  0.00    -0.370 OA
ENDBRANCH   1   8
BRANCH   5   9
ATOM      9  O   LIG    1        0.979  -4.107  -2.360  0.00  0.00    -0.530 OA
ATOM     10  H   LIG    1        0.058  -4.393  -2.434  0.00  0.00    +0.380 HD
ENDBRANCH   5   9
BRANCH   6  11
ATOM     11  O   LIG    1        0.870  -2.671   0.041  0.00  0.00    -0.520 OA
ATOM     12  H   LIG    1        0.438  -2.332   0.837  0.00  0.00    +0.380 HD
ENDBRANCH   6  11
BRANCH   4  13
ATOM     13  O   LIG    1        3.178  -2.957  -1.037  0.00  0.00    -0.310 OA
BRANCH  13  14
ATOM     14  C   LIG    1        3.684  -4.195  -1.154  0.00  0.00    +0.460 C 
ATOM     15  O   LIG    1        3.676  -4.752  -2.226  0.00  0.00    -0.510 OA
ATOM     16  C   LIG    1        4.263  -4.888   0.052  0.00  0.00    +0.150 C 
ENDBRANCH  13  14
ENDBRANCH   4  13
BRANCH   3  17
ATOM     17  C   LIG    1        4.283  -0.486  -1.984  0.00  0.00    +0.220 C 
BRANCH  17  18
ATOM     18  O   LIG    1        4.451   0.932  -2.030  0.00  0.00    -0.570 OA
ATOM     19  H   LIG    1        5.367   1.224  -1.921  0.00  0.00    +0.390 HD
ENDBRANCH  17  18
ENDBRANCH   3  17
TORSDOF 7
ENDMDL
MODEL     1036
REMARK  Name = ZINC000004721252
REMARK                            x       y       z     vdW  Elec       q    Type
REMARK                         _______ _______ _______ _____ _____    ______ ____
ROOT
ATOM      1  C   LIG    1       -1.056  -2.140   0.001  0.00  0.00    +0.350 C 
ATOM      2  O   LIG    1       -0.468  -2.571  -1.229  0.00  0.00    -0.360 OA
ATOM      3  C   LIG    1       -1.191  -2.169  -2.394  0.00  0.00    +0.130 C 
ATOM      4  C   LIG    1       -2.597  -2.775  -2.355  0.00  0.00    +0.170 C 
ATOM      5  C   LIG    1       -3.302  -2.328  -1.071  0.00  0.00    +0.200 C 
ATOM      6  C   LIG    1       -0.458  -2.659  -3.644  0.00  0.00    +0.070 C 
ATOM      7  C   LIG    1       -2.455  -2.745   0.136  0.00  0.00    +0.160 C 
ENDROOT
BRANCH   5   8
ATOM      8  O   LIG    1       -3.456  -0.907  -1.080  0.00  0.00    -0.530 OA
ATOM      9  H   LIG    1       -3.896  -0.554  -0.295  0.00  0.00    +0.380 HD
ENDBRANCH   5   8
BRANCH   4  10
ATOM     10  O   LIG    1       -3.341  -2.329  -3.490  0.00  0.00    -0.540 OA
ATOM     11  H   LIG    1       -2.948  -2.574  -4.339  0.00  0.00    +0.380 HD
ENDBRANCH   4  10
BRANCH   7  12
ATOM     12  O   LIG    1       -3.068  -2.270   1.336  0.00  0.00    -0.550 OA
ATOM     13  H   LIG    1       -2.585  -2.499   2.142  0.00  0.00    +0.390 HD
ENDBRANCH   7  12
BRANCH   1  14
ATOM     14  O   LIG    1       -1.151  -0.691   0.009  0.00  0.00    -0.350 OA
BRANCH  14  16
ATOM     15  C   LIG    1       -0.018   1.503   0.010  0.00  0.00    +0.150 C 
ATOM     16  C   LIG    1        0.002  -0.004   0.002  0.00  0.00    +0.460 C 
ATOM     17  O   LIG    1        1.056  -0.594  -0.011  0.00  0.00    -0.500 OA
ENDBRANCH  14  16
ENDBRANCH   1  14
TORSDOF 5
ENDMDL
MODEL     1037
REMARK  Name = ZINC000004721257
REMARK                            x       y       z     vdW  Elec       q    Type
REMARK                         _______ _______ _______ _____ _____    ______ ____
ROOT
ATOM      1  C   LIG    1        0.652  -0.570  -1.138  0.00  0.00    +0.320 C 
ATOM      2  O   LIG    1        2.057  -0.325  -1.056  0.00  0.00    -0.370 OA
ATOM      3  C   LIG    1        2.676  -0.860   0.116  0.00  0.00    +0.200 C 
ATOM      4  C   LIG    1        2.505  -2.381   0.133  0.00  0.00    +0.190 C 
ATOM      5  C   LIG    1        1.012  -2.720   0.078  0.00  0.00    +0.170 C 
ATOM      6  C   LIG    1        0.400  -2.080  -1.172  0.00  0.00    +0.150 C 
ENDROOT
BRANCH   1   8
ATOM      7  C   LIG    1       -0.017   1.425   0.010  0.00  0.00    +0.210 C 
ATOM      8  O   LIG    1        0.002  -0.004   0.002  0.00  0.00    -0.370 OA
ENDBRANCH   1   8
BRANCH   5   9
ATOM      9  O   LIG    1        0.363  -2.211   1.245  0.00  0.00    -0.530 OA
ATOM     10  H   LIG    1       -0.587  -2.390   1.276  0.00  0.00    +0.390 HD
ENDBRANCH   5   9
BRANCH   6  11
ATOM     11  O   LIG    1       -1.007  -2.330  -1.196  0.00  0.00    -0.550 OA
ATOM     12  H   LIG    1       -1.461  -1.952  -1.962  0.00  0.00    +0.390 HD
ENDBRANCH   6  11
BRANCH   4  13
ATOM     13  O   LIG    1        3.082  -2.921   1.351  0.00  0.00    -0.330 OA
BRANCH  13  14
ATOM     14  C   LIG    1        3.582  -4.165   1.289  0.00  0.00    +0.460 C 
ATOM     15  O   LIG    1        3.539  -4.782   0.251  0.00  0.00    -0.510 OA
ATOM     16  C   LIG    1        4.197  -4.791   2.514  0.00  0.00    +0.160 C 
ENDBRANCH  13  14
ENDBRANCH   4  13
BRANCH   3  17
ATOM     17  C   LIG    1        4.166  -0.513   0.110  0.00  0.00    +0.200 C 
BRANCH  17  18
ATOM     18  O   LIG    1        4.326   0.903   0.211  0.00  0.00    -0.560 OA
ATOM     19  H   LIG    1        5.248   1.196   0.213  0.00  0.00    +0.380 HD
ENDBRANCH  17  18
ENDBRANCH   3  17
TORSDOF 7
ENDMDL
MODEL     1038
REMARK  Name = ZINC000004721256
REMARK                            x       y       z     vdW  Elec       q    Type
REMARK                         _______ _______ _______ _____ _____    ______ ____
ROOT
ATOM      1  C   LIG    1        0.652  -0.570  -1.138  0.00  0.00    +0.290 C 
ATOM      2  O   LIG    1        2.057  -0.325  -1.056  0.00  0.00    -0.370 OA
ATOM      3  C   LIG    1        2.803  -0.830  -2.165  0.00  0.00    +0.190 C 
ATOM      4  C   LIG    1        2.638  -2.350  -2.240  0.00  0.00    +0.190 C 
ATOM      5  C   LIG    1        1.149  -2.688  -2.361  0.00  0.00    +0.180 C 
ATOM      6  C   LIG    1        0.400  -2.080  -1.172  0.00  0.00    +0.140 C 
ENDROOT
BRANCH   1   8
ATOM      7  C   LIG    1       -0.017   1.425   0.010  0.00  0.00    +0.230 C 
ATOM      8  O   LIG    1        0.002  -0.004   0.002  0.00  0.00    -0.370 OA
ENDBRANCH   1   8
BRANCH   5   9
ATOM      9  O   LIG    1        0.979  -4.107  -2.360  0.00  0.00    -0.530 OA
ATOM     10  H   LIG    1        0.058  -4.393  -2.434  0.00  0.00    +0.380 HD
ENDBRANCH   5   9
BRANCH   6  11
ATOM     11  O   LIG    1        0.870  -2.671   0.041  0.00  0.00    -0.540 OA
ATOM     12  H   LIG    1        0.438  -2.332   0.837  0.00  0.00    +0.390 HD
ENDBRANCH   6  11
BRANCH   4  13
ATOM     13  O   LIG    1        3.348  -2.859  -3.400  0.00  0.00    -0.350 OA
BRANCH  13  14
ATOM     14  C   LIG    1        3.840  -4.105  -3.315  0.00  0.00    +0.460 C 
ATOM     15  O   LIG    1        3.682  -4.749  -2.305  0.00  0.00    -0.490 OA
ATOM     16  C   LIG    1        4.589  -4.700  -4.480  0.00  0.00    +0.170 C 
ENDBRANCH  13  14
ENDBRANCH   4  13
BRANCH   3  17
ATOM     17  C   LIG    1        4.283  -0.486  -1.984  0.00  0.00    +0.220 C 
BRANCH  17  18
ATOM     18  O   LIG    1        4.451   0.932  -2.030  0.00  0.00    -0.560 OA
ATOM     19  H   LIG    1        5.367   1.224  -1.921  0.00  0.00    +0.390 HD
ENDBRANCH  17  18
ENDBRANCH   3  17
TORSDOF 7
ENDMDL
MODEL     1039
REMARK  Name = ZINC000004721258
REMARK                            x       y       z     vdW  Elec       q    Type
REMARK                         _______ _______ _______ _____ _____    ______ ____
ROOT
ATOM      1  C   LIG    1        0.652  -0.570  -1.138  0.00  0.00    +0.320 C 
ATOM      2  O   LIG    1        2.057  -0.325  -1.056  0.00  0.00    -0.370 OA
ATOM      3  C   LIG    1        2.676  -0.860   0.116  0.00  0.00    +0.220 C 
ATOM      4  C   LIG    1        2.505  -2.381   0.133  0.00  0.00    +0.180 C 
ATOM      5  C   LIG    1        1.012  -2.720   0.078  0.00  0.00    +0.180 C 
ATOM      6  C   LIG    1        0.400  -2.080  -1.172  0.00  0.00    +0.150 C 
ENDROOT
BRANCH   1   8
ATOM      7  C   LIG    1       -0.017   1.425   0.010  0.00  0.00    +0.210 C 
ATOM      8  O   LIG    1        0.002  -0.004   0.002  0.00  0.00    -0.370 OA
ENDBRANCH   1   8
BRANCH   5   9
ATOM      9  O   LIG    1        0.363  -2.211   1.245  0.00  0.00    -0.540 OA
ATOM     10  H   LIG    1       -0.587  -2.390   1.276  0.00  0.00    +0.390 HD
ENDBRANCH   5   9
BRANCH   6  11
ATOM     11  O   LIG    1       -1.007  -2.330  -1.196  0.00  0.00    -0.550 OA
ATOM     12  H   LIG    1       -1.461  -1.952  -1.962  0.00  0.00    +0.390 HD
ENDBRANCH   6  11
BRANCH   4  13
ATOM     13  O   LIG    1        3.177  -2.957  -1.018  0.00  0.00    -0.340 OA
BRANCH  13  14
ATOM     14  C   LIG    1        3.669  -4.198  -0.878  0.00  0.00    +0.450 C 
ATOM     15  O   LIG    1        3.542  -4.784   0.171  0.00  0.00    -0.510 OA
ATOM     16  C   LIG    1        4.380  -4.861  -2.030  0.00  0.00    +0.160 C 
ENDBRANCH  13  14
ENDBRANCH   4  13
BRANCH   3  17
ATOM     17  C   LIG    1        4.166  -0.513   0.110  0.00  0.00    +0.200 C 
BRANCH  17  18
ATOM     18  O   LIG    1        4.326   0.903   0.211  0.00  0.00    -0.560 OA
ATOM     19  H   LIG    1        5.248   1.196   0.213  0.00  0.00    +0.380 HD
ENDBRANCH  17  18
ENDBRANCH   3  17
TORSDOF 7
ENDMDL
MODEL     1040
REMARK  Name = ZINC000004758234
REMARK                            x       y       z     vdW  Elec       q    Type
REMARK                         _______ _______ _______ _____ _____    ______ ____
ROOT
ATOM      1  C   LIG    1       -0.005  -0.006  -0.068  0.00  0.00    +0.600 A 
ATOM      2  C   LIG    1       -1.164  -0.710   0.107  0.00  0.00    -0.940 A 
ATOM      3  C   LIG    1       -1.107  -2.111   0.168  0.00  0.00    +0.600 A 
ATOM      4  N   LIG    1        0.082  -2.735   0.055  0.00  0.00    -0.660 N 
ATOM      5  H   LIG    1        0.124  -3.703   0.097  0.00  0.00    +0.440 HD
ATOM      6  C   LIG    1        1.213  -2.026  -0.117  0.00  0.00    +0.720 A 
ATOM      7  O   LIG    1        2.275  -2.608  -0.217  0.00  0.00    -0.520 OA
ATOM      8  O   LIG    1       -2.127  -2.760   0.323  0.00  0.00    -0.490 OA
ATOM      9  N   LIG    1        1.185  -0.682  -0.185  0.00  0.00    -0.640 N 
ATOM     10  H   LIG    1        2.010  -0.188  -0.309  0.00  0.00    +0.440 HD
ENDROOT
BRANCH   1  11
ATOM     11  N   LIG    1       -0.032   1.364  -0.132  0.00  0.00    -0.820 N 
ATOM     12  H   LIG    1       -0.841   1.821  -0.408  0.00  0.00    +0.440 HD
ATOM     13  H   LIG    1        0.761   1.875   0.095  0.00  0.00    +0.420 HD
ENDBRANCH   1  11
BRANCH   2  14
ATOM     14  S   LIG    1       -2.707   0.129   0.252  0.00  0.00    +2.740 S 
ATOM     15  O   LIG    1       -2.405   1.455   0.664  0.00  0.00    -0.980 OA
ATOM     16  O   LIG    1       -3.566  -0.736   0.982  0.00  0.00    -0.930 OA
BRANCH  14  17
ATOM     17  N   LIG    1       -3.346   0.247  -1.271  0.00  0.00    -1.250 NA
ATOM     18  H   LIG    1       -4.202   0.682  -1.405  0.00  0.00    +0.420 HD
ATOM     19  H   LIG    1       -2.863  -0.119  -2.029  0.00  0.00    +0.410 HD
ENDBRANCH  14  17
ENDBRANCH   2  14
TORSDOF 3
ENDMDL
MODEL     1041
REMARK  Name = ZINC000002516119
REMARK                            x       y       z     vdW  Elec       q    Type
REMARK                         _______ _______ _______ _____ _____    ______ ____
ROOT
ATOM      1  C   ALA A  1        0.836  -0.462   1.171  0.00  0.00    +0.520 C 
ATOM      2  N   PRO A  2        2.100  -0.017   1.312  0.00  0.00    -0.580 N 
ATOM      3  CD  PRO A  2        2.754   0.997   0.465  0.00  0.00    +0.240 C 
ATOM      4  CG  PRO A  2        3.876   1.591   1.352  0.00  0.00    +0.060 C 
ATOM      5  CB  PRO A  2        4.359   0.336   2.126  0.00  0.00    +0.060 C 
ATOM      6  CA  PRO A  2        3.054  -0.459   2.340  0.00  0.00    +0.230 C 
ATOM      7  O   ALA A  1        0.368  -1.229   1.986  0.00  0.00    -0.510 OA
ENDROOT
BRANCH   6   8
ATOM      8  C   PRO A  2        3.322  -1.934   2.185  0.00  0.00    +0.500 C 
ATOM      9  N   GLY A  3        4.184  -2.553   3.015  0.00  0.00    -0.690 N 
ATOM     10  H   GLY A  3        4.633  -2.049   3.712  0.00  0.00    +0.410 HD
ATOM     11  O   PRO A  2        2.761  -2.564   1.314  0.00  0.00    -0.560 OA
BRANCH   9  12
ATOM     12  CA  GLY A  3        4.444  -3.987   2.865  0.00  0.00    +0.190 C 
BRANCH  12  13
ATOM     13  C   GLY A  3        5.438  -4.429   3.908  0.00  0.00    +0.490 C 
ATOM     14  OXT GLY A  3        5.793  -5.595   3.957  0.00  0.00    -0.680 OA
ATOM     15  O   GLY A  3        5.887  -3.622   4.704  0.00  0.00    -0.690 OA
ENDBRANCH  12  13
ENDBRANCH   9  12
ENDBRANCH   6   8
BRANCH   1  17
ATOM     16  CB  ALA A  1       -0.700   1.307   0.356  0.00  0.00    +0.120 C 
ATOM     17  CA  ALA A  1        0.003  -0.005   0.001  0.00  0.00    +0.170 C 
BRANCH  17  18
ATOM     18  N   ALA A  1       -1.002  -1.029  -0.314  0.00  0.00    -0.620 N 
ATOM     19  H1  ALA A  1       -1.598  -1.173   0.488  0.00  0.00    +0.440 HD
ATOM     20  H2  ALA A  1       -0.539  -1.895  -0.548  0.00  0.00    +0.440 HD
ATOM     21  H3  ALA A  1       -1.560  -0.724  -1.097  0.00  0.00    +0.440 HD
ENDBRANCH  17  18
ENDBRANCH   1  17
TORSDOF 5
ENDMDL
MODEL     1042
REMARK  Name = ZINC000004831483
REMARK                            x       y       z     vdW  Elec       q    Type
REMARK                         _______ _______ _______ _____ _____    ______ ____
ROOT
ATOM      1  C   LIG    1       -0.019   1.526   0.010  0.00  0.00    +0.060 C 
ATOM      2  C   LIG    1        0.002  -0.004   0.002  0.00  0.00    +0.250 C 
ATOM      3  O   LIG    1        0.698  -0.475  -1.175  0.00  0.00    -0.360 OA
ATOM      4  C   LIG    1        1.741  -1.310  -0.696  0.00  0.00    +0.320 C 
ATOM      5  O   LIG    1        2.969  -1.340  -1.392  0.00  0.00    -0.350 OA
ATOM      6  C   LIG    1        3.893  -2.260  -0.786  0.00  0.00    +0.160 C 
ATOM      7  C   LIG    1        4.165  -1.904   0.673  0.00  0.00    +0.140 C 
ATOM      8  C   LIG    1        2.853  -1.736   1.458  0.00  0.00    +0.210 C 
ATOM      9  C   LIG    1        2.036  -0.693   0.700  0.00  0.00    +0.140 C 
ATOM     10  C   LIG    1       -1.431  -0.539  -0.000  0.00  0.00    +0.080 C 
ATOM     11  O   LIG    1        0.703  -0.489   1.175  0.00  0.00    -0.350 OA
ENDROOT
BRANCH   8  12
ATOM     12  O   LIG    1        2.156  -2.982   1.518  0.00  0.00    -0.540 OA
ATOM     13  H   LIG    1        2.652  -3.690   1.950  0.00  0.00    +0.390 HD
ENDBRANCH   8  12
BRANCH   7  14
ATOM     14  O   LIG    1        4.903  -0.682   0.728  0.00  0.00    -0.550 OA
ATOM     15  H   LIG    1        5.757  -0.717   0.275  0.00  0.00    +0.380 HD
ENDBRANCH   7  14
BRANCH   6  16
ATOM     16  C   LIG    1        5.212  -2.225  -1.562  0.00  0.00    +0.210 C 
BRANCH  16  17
ATOM     17  O   LIG    1        4.998  -2.715  -2.887  0.00  0.00    -0.560 OA
ATOM     18  H   LIG    1        5.794  -2.721  -3.437  0.00  0.00    +0.390 HD
ENDBRANCH  16  17
ENDBRANCH   6  16
TORSDOF 4
ENDMDL
MODEL     1043
REMARK  Name = ZINC000000895508
REMARK                            x       y       z     vdW  Elec       q    Type
REMARK                         _______ _______ _______ _____ _____    ______ ____
ROOT
ATOM      1  C   LIG    1       -1.136  -2.159   0.001  0.00  0.00    +0.260 C 
ATOM      2  C   LIG    1       -1.020  -2.661  -1.440  0.00  0.00    +0.360 C 
ATOM      3  O   LIG    1       -1.059  -4.089  -1.450  0.00  0.00    -0.370 OA
ATOM      4  C   LIG    1       -2.269  -4.644  -0.930  0.00  0.00    +0.150 C 
ATOM      5  C   LIG    1       -2.435  -4.221   0.532  0.00  0.00    +0.130 C 
ATOM      6  C   LIG    1       -2.433  -2.692   0.618  0.00  0.00    +0.200 C 
ENDROOT
BRANCH   1   9
ATOM      7  C   LIG    1       -0.018   1.503   0.010  0.00  0.00    +0.100 C 
ATOM      8  C   LIG    1        0.002  -0.004   0.002  0.00  0.00    +0.510 C 
ATOM      9  N   LIG    1       -1.156  -0.694   0.009  0.00  0.00    -0.710 N 
ATOM     10  H   LIG    1       -2.002  -0.220   0.020  0.00  0.00    +0.410 HD
ATOM     11  O   LIG    1        1.060  -0.596  -0.011  0.00  0.00    -0.550 OA
ENDBRANCH   1   9
BRANCH   5  12
ATOM     12  O   LIG    1       -1.354  -4.745   1.306  0.00  0.00    -0.540 OA
ATOM     13  H   LIG    1       -1.293  -5.710   1.294  0.00  0.00    +0.380 HD
ENDBRANCH   5  12
BRANCH   2  14
ATOM     14  O   LIG    1       -2.108  -2.149  -2.212  0.00  0.00    -0.580 OA
ATOM     15  H   LIG    1       -2.099  -2.427  -3.138  0.00  0.00    +0.390 HD
ENDBRANCH   2  14
BRANCH   6  16
ATOM     16  O   LIG    1       -2.516  -2.290   1.987  0.00  0.00    -0.550 OA
ATOM     17  H   LIG    1       -3.312  -2.599   2.440  0.00  0.00    +0.380 HD
ENDBRANCH   6  16
BRANCH   4  18
ATOM     18  C   LIG    1       -2.210  -6.170  -1.017  0.00  0.00    +0.200 C 
BRANCH  18  19
ATOM     19  O   LIG    1       -2.171  -6.568  -2.389  0.00  0.00    -0.560 OA
ATOM     20  H   LIG    1       -2.133  -7.525  -2.520  0.00  0.00    +0.380 HD
ENDBRANCH  18  19
ENDBRANCH   4  18
TORSDOF 6
ENDMDL
MODEL     1044
REMARK  Name = ZINC000004887000
REMARK                            x       y       z     vdW  Elec       q    Type
REMARK                         _______ _______ _______ _____ _____    ______ ____
ROOT
ATOM      1  C   LIG    1        0.673  -0.582   1.123  0.00  0.00    +0.300 C 
ATOM      2  O   LIG    1       -0.128  -0.442   2.316  0.00  0.00    -0.370 OA
ATOM      3  C   LIG    1        0.367  -1.446   3.228  0.00  0.00    +0.140 C 
ATOM      4  C   LIG    1        0.622  -2.689   2.346  0.00  0.00    +0.160 C 
ATOM      5  C   LIG    1        0.831  -2.107   0.928  0.00  0.00    +0.250 C 
ENDROOT
BRANCH   5   6
ATOM      6  N   LIG    1       -0.190  -2.616   0.009  0.00  0.00    -0.700 N 
ATOM      7  H   LIG    1       -1.046  -2.915   0.353  0.00  0.00    +0.410 HD
ATOM      8  C   LIG    1        0.060  -2.669  -1.314  0.00  0.00    +0.520 C 
ATOM      9  O   LIG    1        1.131  -2.295  -1.744  0.00  0.00    -0.550 OA
ATOM     10  C   LIG    1       -0.990  -3.192  -2.260  0.00  0.00    +0.090 C 
ENDBRANCH   5   6
BRANCH   1  12
ATOM     11  C   LIG    1       -0.017   1.425   0.010  0.00  0.00    +0.210 C 
ATOM     12  O   LIG    1        0.002  -0.004   0.002  0.00  0.00    -0.350 OA
ENDBRANCH   1  12
BRANCH   4  13
ATOM     13  O   LIG    1       -0.508  -3.562   2.372  0.00  0.00    -0.550 OA
ATOM     14  H   LIG    1       -0.718  -3.908   3.251  0.00  0.00    +0.390 HD
ENDBRANCH   4  13
BRANCH   3  15
ATOM     15  C   LIG    1       -0.680  -1.757   4.299  0.00  0.00    +0.210 C 
BRANCH  15  16
ATOM     16  O   LIG    1       -0.867  -0.609   5.129  0.00  0.00    -0.560 OA
ATOM     17  H   LIG    1       -1.519  -0.734   5.832  0.00  0.00    +0.380 HD
ENDBRANCH  15  16
ENDBRANCH   3  15
TORSDOF 5
ENDMDL
MODEL     1045
REMARK  Name = ZINC000004887003
REMARK                            x       y       z     vdW  Elec       q    Type
REMARK                         _______ _______ _______ _____ _____    ______ ____
ROOT
ATOM      1  C   LIG    1        0.673  -0.582   1.123  0.00  0.00    +0.290 C 
ATOM      2  O   LIG    1       -0.128  -0.442   2.316  0.00  0.00    -0.370 OA
ATOM      3  C   LIG    1        0.367  -1.446   3.228  0.00  0.00    +0.140 C 
ATOM      4  C   LIG    1        0.622  -2.689   2.346  0.00  0.00    +0.170 C 
ATOM      5  C   LIG    1        0.831  -2.107   0.928  0.00  0.00    +0.250 C 
ENDROOT
BRANCH   5   6
ATOM      6  N   LIG    1        2.171  -2.432   0.432  0.00  0.00    -0.710 N 
ATOM      7  H   LIG    1        2.890  -2.608   1.058  0.00  0.00    +0.410 HD
ATOM      8  C   LIG    1        2.403  -2.486  -0.895  0.00  0.00    +0.510 C 
ATOM      9  O   LIG    1        1.503  -2.266  -1.678  0.00  0.00    -0.530 OA
ATOM     10  C   LIG    1        3.781  -2.820  -1.405  0.00  0.00    +0.110 C 
ENDBRANCH   5   6
BRANCH   1  12
ATOM     11  C   LIG    1       -0.017   1.425   0.010  0.00  0.00    +0.210 C 
ATOM     12  O   LIG    1        0.002  -0.004   0.002  0.00  0.00    -0.350 OA
ENDBRANCH   1  12
BRANCH   4  13
ATOM     13  O   LIG    1        1.795  -3.380   2.782  0.00  0.00    -0.550 OA
ATOM     14  H   LIG    1        1.740  -3.714   3.687  0.00  0.00    +0.390 HD
ENDBRANCH   4  13
BRANCH   3  15
ATOM     15  C   LIG    1       -0.680  -1.757   4.299  0.00  0.00    +0.200 C 
BRANCH  15  16
ATOM     16  O   LIG    1       -0.867  -0.609   5.129  0.00  0.00    -0.560 OA
ATOM     17  H   LIG    1       -1.519  -0.734   5.832  0.00  0.00    +0.390 HD
ENDBRANCH  15  16
ENDBRANCH   3  15
TORSDOF 5
ENDMDL
MODEL     1046
REMARK  Name = ZINC000004887002
REMARK                            x       y       z     vdW  Elec       q    Type
REMARK                         _______ _______ _______ _____ _____    ______ ____
ROOT
ATOM      1  C   LIG    1        0.673  -0.582   1.123  0.00  0.00    +0.310 C 
ATOM      2  O   LIG    1       -0.128  -0.442   2.316  0.00  0.00    -0.370 OA
ATOM      3  C   LIG    1        0.367  -1.446   3.228  0.00  0.00    +0.140 C 
ATOM      4  C   LIG    1        0.622  -2.689   2.346  0.00  0.00    +0.160 C 
ATOM      5  C   LIG    1        0.831  -2.107   0.928  0.00  0.00    +0.260 C 
ENDROOT
BRANCH   5   6
ATOM      6  N   LIG    1       -0.190  -2.616   0.009  0.00  0.00    -0.710 N 
ATOM      7  H   LIG    1       -1.046  -2.915   0.353  0.00  0.00    +0.400 HD
ATOM      8  C   LIG    1        0.060  -2.669  -1.314  0.00  0.00    +0.520 C 
ATOM      9  O   LIG    1        1.131  -2.295  -1.744  0.00  0.00    -0.540 OA
ATOM     10  C   LIG    1       -0.990  -3.192  -2.260  0.00  0.00    +0.100 C 
ENDBRANCH   5   6
BRANCH   1  12
ATOM     11  C   LIG    1       -0.017   1.425   0.010  0.00  0.00    +0.210 C 
ATOM     12  O   LIG    1        0.002  -0.004   0.002  0.00  0.00    -0.350 OA
ENDBRANCH   1  12
BRANCH   4  13
ATOM     13  O   LIG    1        1.795  -3.380   2.782  0.00  0.00    -0.550 OA
ATOM     14  H   LIG    1        1.740  -3.714   3.687  0.00  0.00    +0.390 HD
ENDBRANCH   4  13
BRANCH   3  15
ATOM     15  C   LIG    1       -0.680  -1.757   4.299  0.00  0.00    +0.200 C 
BRANCH  15  16
ATOM     16  O   LIG    1       -0.867  -0.609   5.129  0.00  0.00    -0.560 OA
ATOM     17  H   LIG    1       -1.519  -0.734   5.832  0.00  0.00    +0.380 HD
ENDBRANCH  15  16
ENDBRANCH   3  15
TORSDOF 5
ENDMDL
MODEL     1047
REMARK  Name = ZINC000004896639
REMARK                            x       y       z     vdW  Elec       q    Type
REMARK                         _______ _______ _______ _____ _____    ______ ____
ROOT
ATOM      1  C   LIG    1       -1.295  -0.603   0.011  0.00  0.00    +0.280 C 
ATOM      2  O   LIG    1       -1.933  -0.378  -1.248  0.00  0.00    -0.390 OA
ATOM      3  C   LIG    1       -3.254  -0.917  -1.337  0.00  0.00    +0.240 C 
ATOM      4  C   LIG    1       -3.198  -2.435  -1.151  0.00  0.00    +0.240 C 
ATOM      5  C   LIG    1       -2.550  -2.752   0.200  0.00  0.00    +0.190 C 
ATOM      6  C   LIG    1       -1.161  -2.109   0.252  0.00  0.00    +0.140 C 
ENDROOT
BRANCH   4   7
ATOM      7  N   LIG    1       -4.556  -2.983  -1.185  0.00  0.00    -0.720 N 
ATOM      8  H   LIG    1       -5.040  -3.132  -0.357  0.00  0.00    +0.400 HD
ATOM      9  C   LIG    1       -5.134  -3.279  -2.366  0.00  0.00    +0.510 C 
ATOM     10  O   LIG    1       -4.529  -3.093  -3.401  0.00  0.00    -0.540 OA
ATOM     11  C   LIG    1       -6.531  -3.843  -2.401  0.00  0.00    +0.110 C 
ENDBRANCH   4   7
BRANCH   1  13
ATOM     12  C   LIG    1       -0.017   1.425   0.010  0.00  0.00    +0.220 C 
ATOM     13  O   LIG    1        0.002  -0.004   0.002  0.00  0.00    -0.370 OA
ENDBRANCH   1  13
BRANCH   5  14
ATOM     14  O   LIG    1       -2.429  -4.168   0.351  0.00  0.00    -0.540 OA
ATOM     15  H   LIG    1       -2.025  -4.441   1.187  0.00  0.00    +0.380 HD
ENDBRANCH   5  14
BRANCH   6  16
ATOM     16  O   LIG    1       -0.331  -2.683  -0.760  0.00  0.00    -0.540 OA
ATOM     17  H   LIG    1        0.566  -2.321  -0.785  0.00  0.00    +0.390 HD
ENDBRANCH   6  16
TORSDOF 4
ENDMDL
MODEL     1048
REMARK  Name = ZINC000004896641
REMARK                            x       y       z     vdW  Elec       q    Type
REMARK                         _______ _______ _______ _____ _____    ______ ____
ROOT
ATOM      1  C   LIG    1       -1.295  -0.603   0.011  0.00  0.00    +0.300 C 
ATOM      2  O   LIG    1       -1.955  -0.293   1.240  0.00  0.00    -0.400 OA
ATOM      3  C   LIG    1       -3.277  -0.825   1.344  0.00  0.00    +0.250 C 
ATOM      4  C   LIG    1       -3.219  -2.352   1.263  0.00  0.00    +0.240 C 
ATOM      5  C   LIG    1       -2.548  -2.761  -0.052  0.00  0.00    +0.190 C 
ATOM      6  C   LIG    1       -1.157  -2.122  -0.123  0.00  0.00    +0.140 C 
ENDROOT
BRANCH   4   7
ATOM      7  N   LIG    1       -2.444  -2.873   2.392  0.00  0.00    -0.720 N 
ATOM      8  H   LIG    1       -1.499  -3.063   2.285  0.00  0.00    +0.400 HD
ATOM      9  C   LIG    1       -3.045  -3.089   3.579  0.00  0.00    +0.520 C 
ATOM     10  O   LIG    1       -4.227  -2.851   3.712  0.00  0.00    -0.540 OA
ATOM     11  C   LIG    1       -2.248  -3.624   4.740  0.00  0.00    +0.110 C 
ENDBRANCH   4   7
BRANCH   1  13
ATOM     12  C   LIG    1       -0.017   1.425   0.010  0.00  0.00    +0.220 C 
ATOM     13  O   LIG    1        0.002  -0.004   0.002  0.00  0.00    -0.370 OA
ENDBRANCH   1  13
BRANCH   5  14
ATOM     14  O   LIG    1       -3.340  -2.311  -1.153  0.00  0.00    -0.550 OA
ATOM     15  H   LIG    1       -2.973  -2.536  -2.019  0.00  0.00    +0.400 HD
ENDBRANCH   5  14
BRANCH   6  16
ATOM     16  O   LIG    1       -0.550  -2.438  -1.378  0.00  0.00    -0.560 OA
ATOM     17  H   LIG    1        0.335  -2.065  -1.492  0.00  0.00    +0.400 HD
ENDBRANCH   6  16
TORSDOF 4
ENDMDL
MODEL     1049
REMARK  Name = ZINC000004896638
REMARK                            x       y       z     vdW  Elec       q    Type
REMARK                         _______ _______ _______ _____ _____    ______ ____
ROOT
ATOM      1  C   LIG    1       -1.450  -0.318  -0.261  0.00  0.00    +0.280 C 
ATOM      2  O   LIG    1       -2.179  -0.270  -1.489  0.00  0.00    -0.390 OA
ATOM      3  C   LIG    1       -3.434  -0.952  -1.450  0.00  0.00    +0.260 C 
ATOM      4  C   LIG    1       -3.198  -2.435  -1.151  0.00  0.00    +0.230 C 
ATOM      5  C   LIG    1       -2.443  -2.566   0.175  0.00  0.00    +0.180 C 
ATOM      6  C   LIG    1       -1.135  -1.776   0.087  0.00  0.00    +0.130 C 
ENDROOT
BRANCH   4   7
ATOM      7  N   LIG    1       -2.404  -3.031  -2.228  0.00  0.00    -0.700 N 
ATOM      8  H   LIG    1       -1.782  -2.484  -2.733  0.00  0.00    +0.410 HD
ATOM      9  C   LIG    1       -2.537  -4.341  -2.518  0.00  0.00    +0.520 C 
ATOM     10  O   LIG    1       -3.314  -5.026  -1.886  0.00  0.00    -0.540 OA
ATOM     11  C   LIG    1       -1.720  -4.955  -3.626  0.00  0.00    +0.080 C 
ENDBRANCH   4   7
BRANCH   1  13
ATOM     12  C   LIG    1       -0.410   1.827  -0.502  0.00  0.00    +0.210 C 
ATOM     13  O   LIG    1       -0.231   0.413  -0.401  0.00  0.00    -0.370 OA
ENDBRANCH   1  13
BRANCH   5  14
ATOM     14  O   LIG    1       -2.156  -3.943   0.428  0.00  0.00    -0.530 OA
ATOM     15  H   LIG    1       -1.678  -4.100   1.254  0.00  0.00    +0.370 HD
ENDBRANCH   5  14
BRANCH   6  16
ATOM     16  O   LIG    1       -0.303  -2.340  -0.929  0.00  0.00    -0.530 OA
ATOM     17  H   LIG    1        0.544  -1.888  -1.041  0.00  0.00    +0.380 HD
ENDBRANCH   6  16
TORSDOF 4
ENDMDL
MODEL     1050
REMARK  Name = ZINC000004897038
REMARK                            x       y       z     vdW  Elec       q    Type
REMARK                         _______ _______ _______ _____ _____    ______ ____
ROOT
ATOM      1  O   LIG    1        0.002  -0.004   0.002  0.00  0.00    -0.510 OA
ATOM      2  C   LIG    1       -0.014   1.214   0.009  0.00  0.00    +0.530 A 
ATOM      3  N   LIG    1       -1.188   1.878   0.029  0.00  0.00    -0.650 N 
ATOM      4  H   LIG    1       -2.022   1.384   0.038  0.00  0.00    +0.440 HD
ATOM      5  C   LIG    1       -1.207   3.224   0.037  0.00  0.00    +0.690 A 
ATOM      6  N   LIG    1       -0.064   3.933   0.024  0.00  0.00    -0.520 N 
ATOM      7  C   LIG    1        1.153   3.298   0.004  0.00  0.00    +0.300 A 
ATOM      8  O   LIG    1       -2.273   3.807   0.055  0.00  0.00    -0.510 OA
ATOM      9  C   LIG    1        1.201   1.946   0.001  0.00  0.00    -0.040 A 
ENDROOT
BRANCH   6  10
ATOM     10  C1* LIG    1       -0.118   5.397   0.033  0.00  0.00    +0.430 C 
ATOM     11  C2* LIG    1       -0.802   5.918  -1.256  0.00  0.00    +0.010 C 
ATOM     12  C3* LIG    1       -1.325   7.298  -0.775  0.00  0.00    +0.170 C 
ATOM     13  C4* LIG    1       -1.683   7.017   0.701  0.00  0.00    +0.210 C 
ATOM     14  O4* LIG    1       -0.946   5.859   1.113  0.00  0.00    -0.350 OA
BRANCH  12  15
ATOM     15  O3* LIG    1       -2.481   7.691  -1.517  0.00  0.00    -0.550 OA
ATOM     16  H3* LIG    1       -2.323   7.795  -2.465  0.00  0.00    +0.390 HD
ENDBRANCH  12  15
BRANCH  13  17
ATOM     17  C5* LIG    1       -1.292   8.216   1.567  0.00  0.00    +0.180 C 
BRANCH  17  18
ATOM     18  O5* LIG    1       -1.732   7.997   2.909  0.00  0.00    -0.560 OA
ATOM     19  H5* LIG    1       -1.517   8.719   3.516  0.00  0.00    +0.380 HD
ENDBRANCH  17  18
ENDBRANCH  13  17
ENDBRANCH   6  10
BRANCH   9  20
ATOM     20  O   LIG    1        2.399   1.298  -0.019  0.00  0.00    -0.450 OA
ATOM     21  H   LIG    1        2.324   0.334  -0.019  0.00  0.00    +0.410 HD
ENDBRANCH   9  20
TORSDOF 5
ENDMDL
MODEL     1051
REMARK  Name = ZINC000004897037
REMARK                            x       y       z     vdW  Elec       q    Type
REMARK                         _______ _______ _______ _____ _____    ______ ____
ROOT
ATOM      1  O   LIG    1        0.002  -0.004   0.002  0.00  0.00    -0.510 OA
ATOM      2  C   LIG    1       -0.014   1.214   0.009  0.00  0.00    +0.530 A 
ATOM      3  N   LIG    1       -1.188   1.878   0.029  0.00  0.00    -0.650 N 
ATOM      4  H   LIG    1       -2.022   1.384   0.038  0.00  0.00    +0.440 HD
ATOM      5  C   LIG    1       -1.207   3.224   0.037  0.00  0.00    +0.700 A 
ATOM      6  N   LIG    1       -0.064   3.933   0.024  0.00  0.00    -0.520 N 
ATOM      7  C   LIG    1        1.153   3.298   0.004  0.00  0.00    +0.310 A 
ATOM      8  O   LIG    1       -2.273   3.807   0.055  0.00  0.00    -0.530 OA
ATOM      9  C   LIG    1        1.201   1.946   0.001  0.00  0.00    -0.040 A 
ENDROOT
BRANCH   6  10
ATOM     10  C1* LIG    1       -0.118   5.397   0.033  0.00  0.00    +0.440 C 
ATOM     11  C2* LIG    1       -0.833   5.925  -1.237  0.00  0.00    +0.010 C 
ATOM     12  C3* LIG    1       -0.248   7.352  -1.369  0.00  0.00    +0.170 C 
ATOM     13  C4* LIG    1        1.062   7.300  -0.559  0.00  0.00    +0.190 C 
ATOM     14  O4* LIG    1        1.210   5.955  -0.067  0.00  0.00    -0.360 OA
BRANCH  12  15
ATOM     15  O3* LIG    1        0.020   7.657  -2.739  0.00  0.00    -0.550 OA
ATOM     16  H3* LIG    1       -0.764   7.647  -3.305  0.00  0.00    +0.390 HD
ENDBRANCH  12  15
BRANCH  13  17
ATOM     17  C5* LIG    1        2.245   7.662  -1.458  0.00  0.00    +0.220 C 
BRANCH  17  18
ATOM     18  O5* LIG    1        3.438   7.725  -0.674  0.00  0.00    -0.570 OA
ATOM     19  H5* LIG    1        4.230   7.951  -1.181  0.00  0.00    +0.380 HD
ENDBRANCH  17  18
ENDBRANCH  13  17
ENDBRANCH   6  10
BRANCH   9  20
ATOM     20  O   LIG    1        2.399   1.298  -0.019  0.00  0.00    -0.450 OA
ATOM     21  H   LIG    1        2.324   0.334  -0.019  0.00  0.00    +0.410 HD
ENDBRANCH   9  20
TORSDOF 5
ENDMDL
MODEL     1052
REMARK  Name = ZINC000004896640
REMARK                            x       y       z     vdW  Elec       q    Type
REMARK                         _______ _______ _______ _____ _____    ______ ____
ROOT
ATOM      1  C   LIG    1       -1.295  -0.603   0.011  0.00  0.00    +0.300 C 
ATOM      2  O   LIG    1       -1.955  -0.293   1.240  0.00  0.00    -0.390 OA
ATOM      3  C   LIG    1       -3.277  -0.825   1.344  0.00  0.00    +0.240 C 
ATOM      4  C   LIG    1       -3.219  -2.352   1.263  0.00  0.00    +0.230 C 
ATOM      5  C   LIG    1       -2.548  -2.761  -0.052  0.00  0.00    +0.190 C 
ATOM      6  C   LIG    1       -1.157  -2.122  -0.123  0.00  0.00    +0.140 C 
ENDROOT
BRANCH   4   7
ATOM      7  N   LIG    1       -4.578  -2.897   1.310  0.00  0.00    -0.720 N 
ATOM      8  H   LIG    1       -5.047  -3.103   0.486  0.00  0.00    +0.410 HD
ATOM      9  C   LIG    1       -5.176  -3.113   2.498  0.00  0.00    +0.510 C 
ATOM     10  O   LIG    1       -4.590  -2.855   3.528  0.00  0.00    -0.540 OA
ATOM     11  C   LIG    1       -6.575  -3.673   2.547  0.00  0.00    +0.110 C 
ENDBRANCH   4   7
BRANCH   1  13
ATOM     12  C   LIG    1       -0.017   1.425   0.010  0.00  0.00    +0.220 C 
ATOM     13  O   LIG    1        0.002  -0.004   0.002  0.00  0.00    -0.370 OA
ENDBRANCH   1  13
BRANCH   5  14
ATOM     14  O   LIG    1       -3.340  -2.311  -1.153  0.00  0.00    -0.560 OA
ATOM     15  H   LIG    1       -2.973  -2.536  -2.019  0.00  0.00    +0.390 HD
ENDBRANCH   5  14
BRANCH   6  16
ATOM     16  O   LIG    1       -0.550  -2.438  -1.378  0.00  0.00    -0.560 OA
ATOM     17  H   LIG    1        0.335  -2.065  -1.492  0.00  0.00    +0.400 HD
ENDBRANCH   6  16
TORSDOF 4
ENDMDL
MODEL     1053
REMARK  Name = ZINC000004934099
REMARK                            x       y       z     vdW  Elec       q    Type
REMARK                         _______ _______ _______ _____ _____    ______ ____
ROOT
ATOM      1  C   LIG    1       -0.117   5.440   0.035  0.00  0.00    +0.260 C 
ATOM      2  O   LIG    1        0.663   5.925   1.130  0.00  0.00    -0.340 OA
ATOM      3  C   LIG    1        0.682   7.349   1.247  0.00  0.00    +0.190 C 
ATOM      4  C   LIG    1        1.296   7.955  -0.017  0.00  0.00    +0.110 C 
ATOM      5  C   LIG    1        0.488   7.501  -1.237  0.00  0.00    +0.150 C 
ATOM      6  C   LIG    1        0.465   5.970  -1.279  0.00  0.00    +0.150 C 
ENDROOT
BRANCH   1  12
ATOM      7  O   LIG    1        0.002  -0.004   0.002  0.00  0.00    -0.540 OA
ATOM      8  C   LIG    1       -0.014   1.212   0.009  0.00  0.00    +0.700 A 
ATOM      9  N   LIG    1       -1.194   1.859   0.029  0.00  0.00    -0.640 N 
ATOM     10  H   LIG    1       -2.020   1.351   0.037  0.00  0.00    +0.440 HD
ATOM     11  C   LIG    1       -1.238   3.226   0.037  0.00  0.00    +0.350 A 
ATOM     12  C   LIG    1       -0.088   3.933   0.025  0.00  0.00    -0.240 A 
ATOM     13  C   LIG    1        1.146   3.239   0.004  0.00  0.00    +0.540 A 
ATOM     14  O   LIG    1        2.197   3.855  -0.008  0.00  0.00    -0.440 OA
ATOM     15  N   LIG    1        1.147   1.891   0.001  0.00  0.00    -0.660 N 
ATOM     16  H   LIG    1        1.989   1.409  -0.013  0.00  0.00    +0.430 HD
ENDBRANCH   1  12
BRANCH   5  17
ATOM     17  O   LIG    1        1.096   8.004  -2.428  0.00  0.00    -0.550 OA
ATOM     18  H   LIG    1        1.149   8.969  -2.465  0.00  0.00    +0.380 HD
ENDBRANCH   5  17
BRANCH   4  19
ATOM     19  O   LIG    1        2.649   7.516  -0.149  0.00  0.00    -0.520 OA
ATOM     20  H   LIG    1        3.218   7.766   0.592  0.00  0.00    +0.370 HD
ENDBRANCH   4  19
BRANCH   6  21
ATOM     21  O   LIG    1        1.796   5.477  -1.446  0.00  0.00    -0.500 OA
ATOM     22  H   LIG    1        2.228   5.777  -2.257  0.00  0.00    +0.370 HD
ENDBRANCH   6  21
TORSDOF 4
ENDMDL
MODEL     1054
REMARK  Name = ZINC000004934100
REMARK                            x       y       z     vdW  Elec       q    Type
REMARK                         _______ _______ _______ _____ _____    ______ ____
ROOT
ATOM      1  C   LIG    1       -0.117   5.440   0.035  0.00  0.00    +0.270 C 
ATOM      2  O   LIG    1        0.631   5.938  -1.077  0.00  0.00    -0.350 OA
ATOM      3  C   LIG    1        0.647   7.363  -1.178  0.00  0.00    +0.200 C 
ATOM      4  C   LIG    1        1.297   7.955   0.076  0.00  0.00    +0.120 C 
ATOM      5  C   LIG    1        0.524   7.486   1.312  0.00  0.00    +0.150 C 
ATOM      6  C   LIG    1        0.502   5.954   1.337  0.00  0.00    +0.180 C 
ENDROOT
BRANCH   1  12
ATOM      7  O   LIG    1        0.002  -0.004   0.002  0.00  0.00    -0.540 OA
ATOM      8  C   LIG    1       -0.014   1.212   0.009  0.00  0.00    +0.700 A 
ATOM      9  N   LIG    1       -1.194   1.859   0.029  0.00  0.00    -0.630 N 
ATOM     10  H   LIG    1       -2.020   1.351   0.037  0.00  0.00    +0.440 HD
ATOM     11  C   LIG    1       -1.238   3.226   0.037  0.00  0.00    +0.380 A 
ATOM     12  C   LIG    1       -0.088   3.933   0.025  0.00  0.00    -0.250 A 
ATOM     13  C   LIG    1        1.146   3.239   0.004  0.00  0.00    +0.560 A 
ATOM     14  O   LIG    1        2.197   3.855  -0.008  0.00  0.00    -0.500 OA
ATOM     15  N   LIG    1        1.147   1.891   0.001  0.00  0.00    -0.660 N 
ATOM     16  H   LIG    1        1.989   1.409  -0.013  0.00  0.00    +0.430 HD
ENDBRANCH   1  12
BRANCH   5  17
ATOM     17  O   LIG    1       -0.814   7.984   1.257  0.00  0.00    -0.550 OA
ATOM     18  H   LIG    1       -0.874   8.948   1.233  0.00  0.00    +0.390 HD
ENDBRANCH   5  17
BRANCH   4  19
ATOM     19  O   LIG    1        1.263   9.382   0.003  0.00  0.00    -0.560 OA
ATOM     20  H   LIG    1        1.731   9.748  -0.760  0.00  0.00    +0.390 HD
ENDBRANCH   4  19
BRANCH   6  21
ATOM     21  O   LIG    1       -0.276   5.505   2.448  0.00  0.00    -0.550 OA
ATOM     22  H   LIG    1        0.058   5.799   3.306  0.00  0.00    +0.380 HD
ENDBRANCH   6  21
TORSDOF 4
ENDMDL
MODEL     1055
REMARK  Name = ZINC000004934103
REMARK                            x       y       z     vdW  Elec       q    Type
REMARK                         _______ _______ _______ _____ _____    ______ ____
ROOT
ATOM      1  C   LIG    1       -0.117   5.440   0.035  0.00  0.00    +0.270 C 
ATOM      2  O   LIG    1        0.631   5.938  -1.077  0.00  0.00    -0.350 OA
ATOM      3  C   LIG    1        0.647   7.363  -1.178  0.00  0.00    +0.200 C 
ATOM      4  C   LIG    1        1.297   7.955   0.076  0.00  0.00    +0.120 C 
ATOM      5  C   LIG    1        0.524   7.486   1.312  0.00  0.00    +0.150 C 
ATOM      6  C   LIG    1        0.502   5.954   1.337  0.00  0.00    +0.170 C 
ENDROOT
BRANCH   1  12
ATOM      7  O   LIG    1        0.002  -0.004   0.002  0.00  0.00    -0.540 OA
ATOM      8  C   LIG    1       -0.014   1.212   0.009  0.00  0.00    +0.700 A 
ATOM      9  N   LIG    1       -1.194   1.859   0.029  0.00  0.00    -0.640 N 
ATOM     10  H   LIG    1       -2.020   1.351   0.037  0.00  0.00    +0.440 HD
ATOM     11  C   LIG    1       -1.238   3.226   0.037  0.00  0.00    +0.360 A 
ATOM     12  C   LIG    1       -0.088   3.933   0.025  0.00  0.00    -0.250 A 
ATOM     13  C   LIG    1        1.146   3.239   0.004  0.00  0.00    +0.550 A 
ATOM     14  O   LIG    1        2.197   3.855  -0.008  0.00  0.00    -0.450 OA
ATOM     15  N   LIG    1        1.147   1.891   0.001  0.00  0.00    -0.660 N 
ATOM     16  H   LIG    1        1.989   1.409  -0.013  0.00  0.00    +0.430 HD
ENDBRANCH   1  12
BRANCH   5  17
ATOM     17  O   LIG    1       -0.814   7.984   1.257  0.00  0.00    -0.560 OA
ATOM     18  H   LIG    1       -0.874   8.948   1.233  0.00  0.00    +0.390 HD
ENDBRANCH   5  17
BRANCH   4  19
ATOM     19  O   LIG    1        1.263   9.382   0.003  0.00  0.00    -0.570 OA
ATOM     20  H   LIG    1        1.731   9.748  -0.760  0.00  0.00    +0.390 HD
ENDBRANCH   4  19
BRANCH   6  21
ATOM     21  O   LIG    1        1.837   5.459   1.460  0.00  0.00    -0.510 OA
ATOM     22  H   LIG    1        2.292   5.750   2.262  0.00  0.00    +0.370 HD
ENDBRANCH   6  21
TORSDOF 4
ENDMDL
MODEL     1056
REMARK  Name = ZINC000004933575
REMARK                            x       y       z     vdW  Elec       q    Type
REMARK                         _______ _______ _______ _____ _____    ______ ____
ROOT
ATOM      1  C   LIG    1       -1.674   4.566   0.052  0.00  0.00    +0.250 C 
ATOM      2  O   LIG    1       -1.294   5.473  -1.006  0.00  0.00    -0.330 OA
ATOM      3  C   LIG    1       -1.772   6.776  -0.633  0.00  0.00    +0.160 C 
ATOM      4  C   LIG    1       -1.852   6.812   0.906  0.00  0.00    +0.140 C 
ATOM      5  C   LIG    1       -1.427   5.387   1.343  0.00  0.00    +0.190 C 
ENDROOT
BRANCH   1   9
ATOM      6  O   LIG    1        0.002  -0.004   0.002  0.00  0.00    -0.460 OA
ATOM      7  C   LIG    1       -0.014   1.210   0.009  0.00  0.00    +0.550 C 
ATOM      8  C   LIG    1       -1.226   2.059   0.031  0.00  0.00    +0.040 C 
ATOM      9  C   LIG    1       -0.806   3.335   0.032  0.00  0.00    -0.100 C 
ATOM     10  C   LIG    1        0.673   3.298   0.009  0.00  0.00    +0.560 C 
ATOM     11  O   LIG    1        1.407   4.265   0.004  0.00  0.00    -0.420 OA
ATOM     12  N   LIG    1        1.066   2.011   0.003  0.00  0.00    -0.690 N 
ATOM     13  H   LIG    1        1.987   1.708  -0.011  0.00  0.00    +0.430 HD
ENDBRANCH   1   9
BRANCH   4  14
ATOM     14  O   LIG    1       -3.189   7.087   1.331  0.00  0.00    -0.550 OA
ATOM     15  H   LIG    1       -3.527   7.943   1.035  0.00  0.00    +0.390 HD
ENDBRANCH   4  14
BRANCH   5  16
ATOM     16  O   LIG    1       -0.046   5.356   1.707  0.00  0.00    -0.530 OA
ATOM     17  H   LIG    1        0.177   5.929   2.454  0.00  0.00    +0.380 HD
ENDBRANCH   5  16
BRANCH   3  18
ATOM     18  C   LIG    1       -3.159   7.014  -1.235  0.00  0.00    +0.170 C 
BRANCH  18  19
ATOM     19  O   LIG    1       -3.055   7.080  -2.658  0.00  0.00    -0.560 OA
ATOM     20  H   LIG    1       -3.898   7.229  -3.108  0.00  0.00    +0.380 HD
ENDBRANCH  18  19
ENDBRANCH   3  18
TORSDOF 5
ENDMDL
MODEL     1057
REMARK  Name = ZINC000004934102
REMARK                            x       y       z     vdW  Elec       q    Type
REMARK                         _______ _______ _______ _____ _____    ______ ____
ROOT
ATOM      1  C   LIG    1       -0.117   5.440   0.035  0.00  0.00    +0.260 C 
ATOM      2  O   LIG    1        0.663   5.925   1.130  0.00  0.00    -0.340 OA
ATOM      3  C   LIG    1        0.682   7.349   1.247  0.00  0.00    +0.200 C 
ATOM      4  C   LIG    1        1.296   7.955  -0.017  0.00  0.00    +0.110 C 
ATOM      5  C   LIG    1        0.488   7.501  -1.237  0.00  0.00    +0.160 C 
ATOM      6  C   LIG    1        0.465   5.970  -1.279  0.00  0.00    +0.180 C 
ENDROOT
BRANCH   1  12
ATOM      7  O   LIG    1        0.002  -0.004   0.002  0.00  0.00    -0.540 OA
ATOM      8  C   LIG    1       -0.014   1.212   0.009  0.00  0.00    +0.700 A 
ATOM      9  N   LIG    1       -1.194   1.859   0.029  0.00  0.00    -0.630 N 
ATOM     10  H   LIG    1       -2.020   1.351   0.037  0.00  0.00    +0.440 HD
ATOM     11  C   LIG    1       -1.238   3.226   0.037  0.00  0.00    +0.380 A 
ATOM     12  C   LIG    1       -0.088   3.933   0.025  0.00  0.00    -0.250 A 
ATOM     13  C   LIG    1        1.146   3.239   0.004  0.00  0.00    +0.560 A 
ATOM     14  O   LIG    1        2.197   3.855  -0.008  0.00  0.00    -0.480 OA
ATOM     15  N   LIG    1        1.147   1.891   0.001  0.00  0.00    -0.660 N 
ATOM     16  H   LIG    1        1.989   1.409  -0.013  0.00  0.00    +0.430 HD
ENDBRANCH   1  12
BRANCH   5  17
ATOM     17  O   LIG    1        1.096   8.004  -2.428  0.00  0.00    -0.550 OA
ATOM     18  H   LIG    1        1.149   8.969  -2.465  0.00  0.00    +0.380 HD
ENDBRANCH   5  17
BRANCH   4  19
ATOM     19  O   LIG    1        2.649   7.516  -0.149  0.00  0.00    -0.540 OA
ATOM     20  H   LIG    1        3.218   7.766   0.592  0.00  0.00    +0.380 HD
ENDBRANCH   4  19
BRANCH   6  21
ATOM     21  O   LIG    1       -0.345   5.534  -2.372  0.00  0.00    -0.560 OA
ATOM     22  H   LIG    1       -0.036   5.838  -3.236  0.00  0.00    +0.390 HD
ENDBRANCH   6  21
TORSDOF 4
ENDMDL
MODEL     1058
REMARK  Name = ZINC000004933574
REMARK                            x       y       z     vdW  Elec       q    Type
REMARK                         _______ _______ _______ _____ _____    ______ ____
ROOT
ATOM      1  C   LIG    1       -1.674   4.566   0.052  0.00  0.00    +0.260 C 
ATOM      2  O   LIG    1       -1.279   5.426   1.134  0.00  0.00    -0.330 OA
ATOM      3  C   LIG    1       -1.478   6.784   0.688  0.00  0.00    +0.140 C 
ATOM      4  C   LIG    1       -1.002   6.754  -0.787  0.00  0.00    +0.140 C 
ATOM      5  C   LIG    1       -1.490   5.359  -1.257  0.00  0.00    +0.180 C 
ENDROOT
BRANCH   1   9
ATOM      6  O   LIG    1        0.002  -0.004   0.002  0.00  0.00    -0.450 OA
ATOM      7  C   LIG    1       -0.014   1.210   0.009  0.00  0.00    +0.550 C 
ATOM      8  C   LIG    1       -1.226   2.059   0.031  0.00  0.00    +0.070 C 
ATOM      9  C   LIG    1       -0.806   3.335   0.032  0.00  0.00    -0.120 C 
ATOM     10  C   LIG    1        0.673   3.298   0.009  0.00  0.00    +0.550 C 
ATOM     11  O   LIG    1        1.407   4.265   0.004  0.00  0.00    -0.420 OA
ATOM     12  N   LIG    1        1.066   2.011   0.003  0.00  0.00    -0.690 N 
ATOM     13  H   LIG    1        1.987   1.708  -0.011  0.00  0.00    +0.430 HD
ENDBRANCH   1   9
BRANCH   4  14
ATOM     14  O   LIG    1        0.422   6.852  -0.865  0.00  0.00    -0.530 OA
ATOM     15  H   LIG    1        0.780   7.672  -0.499  0.00  0.00    +0.380 HD
ENDBRANCH   4  14
BRANCH   5  16
ATOM     16  O   LIG    1       -2.729   5.473  -1.959  0.00  0.00    -0.550 OA
ATOM     17  H   LIG    1       -2.679   6.012  -2.760  0.00  0.00    +0.390 HD
ENDBRANCH   5  16
BRANCH   3  18
ATOM     18  C   LIG    1       -0.626   7.752   1.513  0.00  0.00    +0.210 C 
BRANCH  18  19
ATOM     19  O   LIG    1       -1.097   7.769   2.862  0.00  0.00    -0.560 OA
ATOM     20  H   LIG    1       -0.602   8.363   3.443  0.00  0.00    +0.380 HD
ENDBRANCH  18  19
ENDBRANCH   3  18
TORSDOF 5
ENDMDL
MODEL     1059
REMARK  Name = ZINC000004933571
REMARK                            x       y       z     vdW  Elec       q    Type
REMARK                         _______ _______ _______ _____ _____    ______ ____
ROOT
ATOM      1  C   LIG    1       -1.674   4.566   0.052  0.00  0.00    +0.240 C 
ATOM      2  O   LIG    1       -1.267   5.451   1.118  0.00  0.00    -0.330 OA
ATOM      3  C   LIG    1       -1.785   6.749   0.754  0.00  0.00    +0.140 C 
ATOM      4  C   LIG    1       -1.547   6.856  -0.769  0.00  0.00    +0.130 C 
ATOM      5  C   LIG    1       -1.475   5.386  -1.243  0.00  0.00    +0.180 C 
ENDROOT
BRANCH   1   9
ATOM      6  O   LIG    1        0.002  -0.004   0.002  0.00  0.00    -0.460 OA
ATOM      7  C   LIG    1       -0.014   1.210   0.009  0.00  0.00    +0.550 C 
ATOM      8  C   LIG    1       -1.226   2.059   0.031  0.00  0.00    +0.040 C 
ATOM      9  C   LIG    1       -0.806   3.335   0.032  0.00  0.00    -0.090 C 
ATOM     10  C   LIG    1        0.673   3.298   0.009  0.00  0.00    +0.560 C 
ATOM     11  O   LIG    1        1.407   4.265   0.004  0.00  0.00    -0.420 OA
ATOM     12  N   LIG    1        1.066   2.011   0.003  0.00  0.00    -0.690 N 
ATOM     13  H   LIG    1        1.987   1.708  -0.011  0.00  0.00    +0.430 HD
ENDBRANCH   1   9
BRANCH   4  14
ATOM     14  O   LIG    1       -0.318   7.535  -1.037  0.00  0.00    -0.540 OA
ATOM     15  H   LIG    1       -0.290   8.443  -0.707  0.00  0.00    +0.380 HD
ENDBRANCH   4  14
BRANCH   5  16
ATOM     16  O   LIG    1       -0.197   5.108  -1.820  0.00  0.00    -0.530 OA
ATOM     17  H   LIG    1        0.005   5.641  -2.602  0.00  0.00    +0.390 HD
ENDBRANCH   5  16
BRANCH   3  18
ATOM     18  C   LIG    1       -1.025   7.853   1.493  0.00  0.00    +0.210 C 
BRANCH  18  19
ATOM     19  O   LIG    1       -1.295   7.761   2.893  0.00  0.00    -0.560 OA
ATOM     20  H   LIG    1       -0.845   8.431   3.425  0.00  0.00    +0.380 HD
ENDBRANCH  18  19
ENDBRANCH   3  18
TORSDOF 5
ENDMDL
MODEL     1060
REMARK  Name = ZINC000004976378
REMARK                            x       y       z     vdW  Elec       q    Type
REMARK                         _______ _______ _______ _____ _____    ______ ____
ROOT
ATOM      1  C   LIG    1       -0.018   1.461   0.010  0.00  0.00    +0.340 C 
ATOM      2  N   LIG    1        0.002  -0.004   0.002  0.00  0.00    -0.620 N 
ATOM      3  C   LIG    1        0.009  -0.819  -1.093  0.00  0.00    +0.650 C 
ATOM      4  O   LIG    1       -0.034  -2.141  -0.745  0.00  0.00    -0.310 OA
ATOM      5  C   LIG    1       -0.677  -2.143   0.548  0.00  0.00    +0.200 C 
ATOM      6  C   LIG    1       -0.477  -3.247   1.516  0.00  0.00    +0.230 C 
ATOM      7  N   LIG    1        0.348  -4.402   1.211  0.00  0.00    -0.720 N 
ATOM      8  H   LIG    1        0.453  -4.832   0.348  0.00  0.00    +0.440 HD
ATOM      9  C   LIG    1        0.948  -4.760   2.384  0.00  0.00    +0.650 C 
ATOM     10  O   LIG    1        0.632  -3.902   3.401  0.00  0.00    -0.300 OA
ATOM     11  O   LIG    1        1.675  -5.725   2.510  0.00  0.00    -0.490 OA
ATOM     12  C   LIG    1        0.338  -2.668   2.716  0.00  0.00    +0.170 C 
ATOM     13  C   LIG    1       -0.522  -1.631   3.405  0.00  0.00    +0.190 C 
ATOM     14  C   LIG    1       -0.710  -0.475   2.379  0.00  0.00    +0.180 C 
ATOM     15  O   LIG    1        0.048  -0.418  -2.239  0.00  0.00    -0.490 OA
ATOM     16  C   LIG    1        0.025  -0.885   1.158  0.00  0.00    +0.200 C 
ENDROOT
BRANCH  14  17
ATOM     17  O   LIG    1       -2.097  -0.304   2.080  0.00  0.00    -0.550 OA
ATOM     18  H   LIG    1       -2.641  -0.087   2.849  0.00  0.00    +0.390 HD
ENDBRANCH  14  17
BRANCH  13  19
ATOM     19  O   LIG    1        0.136  -1.148   4.578  0.00  0.00    -0.540 OA
ATOM     20  H   LIG    1       -0.367  -0.480   5.064  0.00  0.00    +0.390 HD
ENDBRANCH  13  19
TORSDOF 2
ENDMDL
MODEL     1061
REMARK  Name = ZINC000004963836
REMARK                            x       y       z     vdW  Elec       q    Type
REMARK                         _______ _______ _______ _____ _____    ______ ____
ROOT
ATOM      1  N   LIG    1        2.405  -2.705  -0.024  0.00  0.00    -0.710 N 
ATOM      2  H   LIG    1        3.235  -2.203  -0.025  0.00  0.00    +0.410 HD
ENDROOT
BRANCH   1   7
ATOM      3  C   LIG    1        0.002  -0.004   0.002  0.00  0.00    +0.450 A 
ATOM      4  C   LIG    1       -1.165  -0.712   0.004  0.00  0.00    -0.240 A 
ATOM      5  C   LIG    1       -1.107  -2.120  -0.004  0.00  0.00    +0.540 A 
ATOM      6  N   LIG    1        0.086  -2.736  -0.013  0.00  0.00    -0.620 NA
ATOM      7  C   LIG    1        1.205  -2.044  -0.015  0.00  0.00    +0.660 A 
ATOM      8  O   LIG    1       -2.137  -2.777  -0.003  0.00  0.00    -0.530 OA
ATOM      9  N   LIG    1        1.192  -0.683  -0.013  0.00  0.00    -0.650 N 
ATOM     10  H   LIG    1        2.029  -0.191  -0.015  0.00  0.00    +0.410 HD
BRANCH   3  11
ATOM     11  N   LIG    1       -0.017   1.371   0.010  0.00  0.00    -0.850 N 
ATOM     12  H   LIG    1       -0.863   1.845   0.016  0.00  0.00    +0.430 HD
ATOM     13  H   LIG    1        0.817   1.868   0.004  0.00  0.00    +0.400 HD
ENDBRANCH   3  11
ENDBRANCH   1   7
BRANCH   1  14
ATOM     14  C   LIG    1        2.434  -4.170  -0.032  0.00  0.00    +0.310 C 
BRANCH  14  15
ATOM     15  C   LIG    1        3.886  -4.651  -0.041  0.00  0.00    -0.010 C 
BRANCH  15  16
ATOM     16  C   LIG    1        3.917  -6.180  -0.050  0.00  0.00    +0.090 C 
BRANCH  16  17
ATOM     17  CA  LIG    1        5.369  -6.662  -0.059  0.00  0.00    +0.080 C 
BRANCH  17  18
ATOM     18  N   LIG    1        6.024  -6.267   1.195  0.00  0.00    -0.610 N 
ATOM     19  H1  LIG    1        6.982  -6.584   1.189  0.00  0.00    +0.430 HD
ATOM     20  H2  LIG    1        5.537  -6.683   1.974  0.00  0.00    +0.430 HD
ATOM     21  H3  LIG    1        6.003  -5.262   1.284  0.00  0.00    +0.410 HD
ENDBRANCH  17  18
BRANCH  17  22
ATOM     22  C   LIG    1        5.400  -8.162  -0.191  0.00  0.00    +0.490 C 
ATOM     23  OXT LIG    1        5.751  -8.850   0.752  0.00  0.00    -0.670 OA
ATOM     24  O   LIG    1        5.074  -8.689  -1.242  0.00  0.00    -0.630 OA
ENDBRANCH  17  22
ENDBRANCH  16  17
ENDBRANCH  15  16
ENDBRANCH  14  15
ENDBRANCH   1  14
TORSDOF 8
ENDMDL
MODEL     1062
REMARK  Name = ZINC000004976374
REMARK                            x       y       z     vdW  Elec       q    Type
REMARK                         _______ _______ _______ _____ _____    ______ ____
ROOT
ATOM      1  C   LIG    1       -0.018   1.461   0.010  0.00  0.00    +0.340 C 
ATOM      2  N   LIG    1        0.002  -0.004   0.002  0.00  0.00    -0.620 N 
ATOM      3  C   LIG    1        0.008  -0.784  -1.093  0.00  0.00    +0.630 C 
ATOM      4  O   LIG    1       -0.180  -2.083  -0.803  0.00  0.00    -0.320 OA
ATOM      5  C   LIG    1        0.218  -2.285   0.594  0.00  0.00    +0.240 C 
ATOM      6  C   LIG    1        1.703  -2.601   0.635  0.00  0.00    +0.200 C 
ATOM      7  N   LIG    1        2.172  -3.583  -0.344  0.00  0.00    -0.720 N 
ATOM      8  H   LIG    1        1.715  -4.394  -0.616  0.00  0.00    +0.440 HD
ATOM      9  C   LIG    1        3.372  -3.136  -0.799  0.00  0.00    +0.650 C 
ATOM     10  O   LIG    1        3.721  -1.946  -0.236  0.00  0.00    -0.320 OA
ATOM     11  O   LIG    1        4.054  -3.728  -1.611  0.00  0.00    -0.490 OA
ATOM     12  C   LIG    1        2.455  -1.326   0.152  0.00  0.00    +0.180 C 
ATOM     13  C   LIG    1        2.532  -0.340   1.302  0.00  0.00    +0.180 C 
ATOM     14  C   LIG    1        1.234  -0.462   2.112  0.00  0.00    +0.160 C 
ATOM     15  O   LIG    1        0.167  -0.361  -2.221  0.00  0.00    -0.500 OA
ATOM     16  C   LIG    1        0.025  -0.869   1.189  0.00  0.00    +0.230 C 
ENDROOT
BRANCH  14  17
ATOM     17  O   LIG    1        0.957   0.790   2.742  0.00  0.00    -0.540 OA
ATOM     18  H   LIG    1        1.650   1.086   3.349  0.00  0.00    +0.390 HD
ENDBRANCH  14  17
BRANCH  13  19
ATOM     19  O   LIG    1        2.663   0.989   0.793  0.00  0.00    -0.530 OA
ATOM     20  H   LIG    1        2.718   1.669   1.478  0.00  0.00    +0.390 HD
ENDBRANCH  13  19
TORSDOF 2
ENDMDL
MODEL     1063
REMARK  Name = ZINC000004976376
REMARK                            x       y       z     vdW  Elec       q    Type
REMARK                         _______ _______ _______ _____ _____    ______ ____
ROOT
ATOM      1  C   LIG    1       -0.018   1.461   0.010  0.00  0.00    +0.350 C 
ATOM      2  N   LIG    1        0.002  -0.004   0.002  0.00  0.00    -0.630 N 
ATOM      3  C   LIG    1        0.008  -0.784  -1.093  0.00  0.00    +0.640 C 
ATOM      4  O   LIG    1       -0.180  -2.083  -0.803  0.00  0.00    -0.320 OA
ATOM      5  C   LIG    1        0.218  -2.285   0.594  0.00  0.00    +0.240 C 
ATOM      6  C   LIG    1        1.703  -2.601   0.635  0.00  0.00    +0.220 C 
ATOM      7  N   LIG    1        2.172  -3.583  -0.344  0.00  0.00    -0.720 N 
ATOM      8  H   LIG    1        1.715  -4.394  -0.616  0.00  0.00    +0.440 HD
ATOM      9  C   LIG    1        3.372  -3.136  -0.799  0.00  0.00    +0.650 C 
ATOM     10  O   LIG    1        3.721  -1.946  -0.236  0.00  0.00    -0.320 OA
ATOM     11  O   LIG    1        4.054  -3.728  -1.611  0.00  0.00    -0.490 OA
ATOM     12  C   LIG    1        2.455  -1.326   0.152  0.00  0.00    +0.170 C 
ATOM     13  C   LIG    1        2.532  -0.340   1.302  0.00  0.00    +0.180 C 
ATOM     14  C   LIG    1        1.234  -0.462   2.112  0.00  0.00    +0.160 C 
ATOM     15  O   LIG    1        0.167  -0.361  -2.221  0.00  0.00    -0.500 OA
ATOM     16  C   LIG    1        0.025  -0.869   1.189  0.00  0.00    +0.230 C 
ENDROOT
BRANCH  14  17
ATOM     17  O   LIG    1        1.402  -1.465   3.115  0.00  0.00    -0.550 OA
ATOM     18  H   LIG    1        2.116  -1.281   3.741  0.00  0.00    +0.390 HD
ENDBRANCH  14  17
BRANCH  13  19
ATOM     19  O   LIG    1        2.663   0.989   0.793  0.00  0.00    -0.540 OA
ATOM     20  H   LIG    1        2.718   1.669   1.478  0.00  0.00    +0.390 HD
ENDBRANCH  13  19
TORSDOF 2
ENDMDL
MODEL     1064
REMARK  Name = ZINC000004976375
REMARK                            x       y       z     vdW  Elec       q    Type
REMARK                         _______ _______ _______ _____ _____    ______ ____
ROOT
ATOM      1  C   LIG    1       -0.018   1.461   0.010  0.00  0.00    +0.350 C 
ATOM      2  N   LIG    1        0.002  -0.004   0.002  0.00  0.00    -0.620 N 
ATOM      3  C   LIG    1        0.009  -0.819  -1.093  0.00  0.00    +0.640 C 
ATOM      4  O   LIG    1       -0.034  -2.141  -0.745  0.00  0.00    -0.310 OA
ATOM      5  C   LIG    1       -0.677  -2.143   0.548  0.00  0.00    +0.190 C 
ATOM      6  C   LIG    1       -0.477  -3.247   1.516  0.00  0.00    +0.230 C 
ATOM      7  N   LIG    1        0.348  -4.402   1.211  0.00  0.00    -0.720 N 
ATOM      8  H   LIG    1        0.453  -4.833   0.348  0.00  0.00    +0.440 HD
ATOM      9  C   LIG    1        0.948  -4.760   2.384  0.00  0.00    +0.650 C 
ATOM     10  O   LIG    1        0.632  -3.902   3.401  0.00  0.00    -0.300 OA
ATOM     11  O   LIG    1        1.675  -5.725   2.510  0.00  0.00    -0.480 OA
ATOM     12  C   LIG    1        0.338  -2.668   2.716  0.00  0.00    +0.170 C 
ATOM     13  C   LIG    1       -0.522  -1.631   3.405  0.00  0.00    +0.190 C 
ATOM     14  C   LIG    1       -0.710  -0.475   2.379  0.00  0.00    +0.170 C 
ATOM     15  O   LIG    1        0.048  -0.418  -2.239  0.00  0.00    -0.490 OA
ATOM     16  C   LIG    1        0.025  -0.885   1.158  0.00  0.00    +0.190 C 
ENDROOT
BRANCH  14  17
ATOM     17  O   LIG    1       -0.170   0.740   2.903  0.00  0.00    -0.530 OA
ATOM     18  H   LIG    1       -0.582   1.029   3.729  0.00  0.00    +0.390 HD
ENDBRANCH  14  17
BRANCH  13  19
ATOM     19  O   LIG    1        0.136  -1.148   4.578  0.00  0.00    -0.530 OA
ATOM     20  H   LIG    1       -0.367  -0.480   5.064  0.00  0.00    +0.390 HD
ENDBRANCH  13  19
TORSDOF 2
ENDMDL
MODEL     1065
REMARK  Name = ZINC000004982788
REMARK                            x       y       z     vdW  Elec       q    Type
REMARK                         _______ _______ _______ _____ _____    ______ ____
ROOT
ATOM      1  C   LIG    1        1.396  -4.569  -2.382  0.00  0.00    +0.160 C 
ENDROOT
BRANCH   1   2
ATOM      2  O   LIG    1        2.062  -4.964  -1.181  0.00  0.00    -0.530 OA
ATOM      3  H   LIG    1        2.996  -4.714  -1.148  0.00  0.00    +0.370 HD
ENDBRANCH   1   2
BRANCH   1   4
ATOM      4  C   LIG    1        1.461  -3.047  -2.524  0.00  0.00    +0.210 C 
BRANCH   4   5
ATOM      5  O   LIG    1        0.795  -2.652  -3.725  0.00  0.00    -0.530 OA
ATOM      6  H   LIG    1       -0.139  -2.903  -3.758  0.00  0.00    +0.370 HD
ENDBRANCH   4   5
BRANCH   4   7
ATOM      7  C   LIG    1        0.775  -2.394  -1.322  0.00  0.00    +0.060 C 
BRANCH   7   8
ATOM      8  S   LIG    1        0.851  -0.589  -1.490  0.00  0.00    -0.240 S 
BRANCH   8  10
ATOM      9  C   LIG    1       -0.019   1.526   0.010  0.00  0.00    +0.070 C 
ATOM     10  C   LIG    1        0.002  -0.004   0.002  0.00  0.00    +0.060 C 
ENDBRANCH   8  10
ENDBRANCH   7   8
ENDBRANCH   4   7
ENDBRANCH   1   4
BRANCH   1  11
ATOM     11  C   LIG    1        2.082  -5.223  -3.584  0.00  0.00    +0.160 C 
BRANCH  11  12
ATOM     12  O   LIG    1        1.416  -4.828  -4.785  0.00  0.00    -0.530 OA
ATOM     13  H   LIG    1        0.483  -5.078  -4.818  0.00  0.00    +0.380 HD
ENDBRANCH  11  12
BRANCH  11  14
ATOM     14  C   LIG    1        2.018  -6.745  -3.442  0.00  0.00    +0.180 C 
BRANCH  14  15
ATOM     15  O   LIG    1        2.684  -7.140  -2.241  0.00  0.00    -0.530 OA
ATOM     16  H   LIG    1        3.617  -6.889  -2.208  0.00  0.00    +0.370 HD
ENDBRANCH  14  15
BRANCH  14  17
ATOM     17  C   LIG    1        2.703  -7.398  -4.644  0.00  0.00    +0.150 C 
BRANCH  17  18
ATOM     18  O   LIG    1        2.542  -8.816  -4.571  0.00  0.00    -0.570 OA
ATOM     19  H   LIG    1        2.953  -9.297  -5.303  0.00  0.00    +0.380 HD
ENDBRANCH  17  18
ENDBRANCH  14  17
ENDBRANCH  11  14
ENDBRANCH   1  11
TORSDOF 12
ENDMDL
MODEL     1066
REMARK  Name = ZINC000004982790
REMARK                            x       y       z     vdW  Elec       q    Type
REMARK                         _______ _______ _______ _____ _____    ______ ____
ROOT
ATOM      1  C   LIG    1        1.396  -4.569  -2.382  0.00  0.00    +0.170 C 
ENDROOT
BRANCH   1   2
ATOM      2  O   LIG    1        0.037  -4.975  -2.212  0.00  0.00    -0.540 OA
ATOM      3  H   LIG    1       -0.541  -4.732  -2.948  0.00  0.00    +0.370 HD
ENDBRANCH   1   2
BRANCH   1   4
ATOM      4  C   LIG    1        1.461  -3.047  -2.524  0.00  0.00    +0.210 C 
BRANCH   4   5
ATOM      5  O   LIG    1        0.795  -2.652  -3.725  0.00  0.00    -0.520 OA
ATOM      6  H   LIG    1       -0.139  -2.903  -3.758  0.00  0.00    +0.370 HD
ENDBRANCH   4   5
BRANCH   4   7
ATOM      7  C   LIG    1        0.775  -2.394  -1.322  0.00  0.00    +0.060 C 
BRANCH   7   8
ATOM      8  S   LIG    1        0.851  -0.589  -1.490  0.00  0.00    -0.240 S 
BRANCH   8  10
ATOM      9  C   LIG    1       -0.019   1.526   0.010  0.00  0.00    +0.060 C 
ATOM     10  C   LIG    1        0.002  -0.004   0.002  0.00  0.00    +0.060 C 
ENDBRANCH   8  10
ENDBRANCH   7   8
ENDBRANCH   4   7
ENDBRANCH   1   4
BRANCH   1  11
ATOM     11  C   LIG    1        1.970  -5.223  -3.641  0.00  0.00    +0.160 C 
BRANCH  11  12
ATOM     12  O   LIG    1        1.281  -4.729  -4.791  0.00  0.00    -0.530 OA
ATOM     13  H   LIG    1        0.330  -4.905  -4.786  0.00  0.00    +0.370 HD
ENDBRANCH  11  12
BRANCH  11  14
ATOM     14  C   LIG    1        1.792  -6.740  -3.553  0.00  0.00    +0.190 C 
BRANCH  14  15
ATOM     15  O   LIG    1        2.481  -7.235  -2.403  0.00  0.00    -0.540 OA
ATOM     16  H   LIG    1        3.432  -7.059  -2.409  0.00  0.00    +0.370 HD
ENDBRANCH  14  15
BRANCH  14  17
ATOM     17  C   LIG    1        2.365  -7.394  -4.812  0.00  0.00    +0.150 C 
BRANCH  17  18
ATOM     18  O   LIG    1        2.096  -8.798  -4.785  0.00  0.00    -0.570 OA
ATOM     19  H   LIG    1        2.432  -9.278  -5.554  0.00  0.00    +0.380 HD
ENDBRANCH  17  18
ENDBRANCH  14  17
ENDBRANCH  11  14
ENDBRANCH   1  11
TORSDOF 12
ENDMDL
MODEL     1067
REMARK  Name = ZINC000217410848
REMARK                            x       y       z     vdW  Elec       q    Type
REMARK                         _______ _______ _______ _____ _____    ______ ____
ROOT
ATOM      1  N   LIG    1        1.125   3.299   0.009  0.00  0.00    -0.430 N 
ATOM      2  C   LIG    1        0.816   4.078  -1.036  0.00  0.00    +0.700 C 
ATOM      3  N   LIG    1        0.872   5.391  -0.770  0.00  0.00    -0.720 N 
ATOM      4  H   LIG    1        0.681   6.102  -1.402  0.00  0.00    +0.440 HD
ATOM      5  C   LIG    1        1.267   5.579   0.634  0.00  0.00    +0.260 C 
ATOM      6  C   LIG    1        2.576   6.391   0.688  0.00  0.00    -0.300 C 
ATOM      7  S   LIG    1        3.520   5.564   2.030  0.00  0.00    +2.400 S 
ATOM      8  C   LIG    1        2.900   3.884   1.617  0.00  0.00    -0.310 C 
ATOM      9  O   LIG    1        3.014   5.967   3.295  0.00  0.00    -0.910 OA
ATOM     10  O   LIG    1        4.913   5.644   1.759  0.00  0.00    -0.920 OA
ATOM     11  O   LIG    1        0.513   3.635  -2.127  0.00  0.00    -0.550 OA
ATOM     12  C   LIG    1        1.434   4.151   1.168  0.00  0.00    +0.270 C 
ENDROOT
BRANCH   1  15
ATOM     13  O   LIG    1        0.002  -0.004   0.002  0.00  0.00    -0.520 OA
ATOM     14  C   LIG    1       -0.014   1.209   0.009  0.00  0.00    +0.660 C 
ATOM     15  N   LIG    1        1.143   1.898   0.001  0.00  0.00    -0.490 N 
ATOM     16  H   LIG    1        1.990   1.425  -0.009  0.00  0.00    +0.410 HD
ENDBRANCH   1  15
TORSDOF 1
ENDMDL
MODEL     1068
REMARK  Name = ZINC000004994676
REMARK                            x       y       z     vdW  Elec       q    Type
REMARK                         _______ _______ _______ _____ _____    ______ ____
ROOT
ATOM      1  C   LIG    1       -1.660  -0.516  -0.034  0.00  0.00    +0.290 C 
ATOM      2  O   LIG    1       -2.081  -0.420  -1.405  0.00  0.00    -0.360 OA
ATOM      3  C   LIG    1       -1.612  -1.610  -2.074  0.00  0.00    +0.160 C 
ATOM      4  C   LIG    1       -1.856  -2.731  -1.032  0.00  0.00    +0.250 C 
ATOM      5  C   LIG    1       -1.523  -2.014   0.303  0.00  0.00    +0.170 C 
ENDROOT
BRANCH   4   6
ATOM      6  N   LIG    1       -0.953  -3.862  -1.259  0.00  0.00    -0.600 N 
ATOM      7  C   LIG    1       -1.456  -5.084  -1.522  0.00  0.00    +0.510 C 
ATOM      8  O   LIG    1       -2.651  -5.229  -1.673  0.00  0.00    -0.550 OA
ATOM      9  C   LIG    1       -0.534  -6.271  -1.631  0.00  0.00    +0.110 C 
ATOM     10  C   LIG    1        0.498  -3.664  -1.199  0.00  0.00    +0.300 C 
ENDBRANCH   4   6
BRANCH   1  12
ATOM     11  C   LIG    1       -0.469   1.562   0.059  0.00  0.00    +0.210 C 
ATOM     12  O   LIG    1       -0.400   0.137   0.134  0.00  0.00    -0.380 OA
ENDBRANCH   1  12
BRANCH   5  13
ATOM     13  O   LIG    1       -0.189  -2.317   0.714  0.00  0.00    -0.530 OA
ATOM     14  H   LIG    1        0.073  -1.894   1.544  0.00  0.00    +0.380 HD
ENDBRANCH   5  13
BRANCH   3  15
ATOM     15  C   LIG    1       -2.422  -1.867  -3.346  0.00  0.00    +0.210 C 
BRANCH  15  16
ATOM     16  O   LIG    1       -2.167  -0.827  -4.292  0.00  0.00    -0.570 OA
ATOM     17  H   LIG    1       -2.648  -0.926  -5.125  0.00  0.00    +0.380 HD
ENDBRANCH  15  16
ENDBRANCH   3  15
TORSDOF 5
ENDMDL
MODEL     1069
REMARK  Name = ZINC000257229017
REMARK                            x       y       z     vdW  Elec       q    Type
REMARK                         _______ _______ _______ _____ _____    ______ ____
ROOT
ATOM      1  C   LIG    1        0.002  -0.004   0.002  0.00  0.00    +0.200 C 
ATOM      2  C   LIG    1        0.675  -0.516  -1.288  0.00  0.00    -0.040 C 
ATOM      3  C   LIG    1       -0.137  -1.781  -1.664  0.00  0.00    +0.130 C 
ATOM      4  C   LIG    1       -1.587  -1.376  -1.300  0.00  0.00    +0.150 C 
ATOM      5  C   LIG    1       -1.436  -0.551  -0.005  0.00  0.00    +0.200 C 
ENDROOT
BRANCH   5   6
ATOM      6  N   LIG    1       -1.656  -1.409   1.167  0.00  0.00    -0.510 NA
ATOM      7  C   LIG    1       -0.652  -2.481   1.231  0.00  0.00    +0.140 C 
ATOM      8  C   LIG    1       -0.882  -3.313   2.496  0.00  0.00    +0.220 C 
ATOM      9  O   LIG    1       -2.218  -3.823   2.489  0.00  0.00    -0.380 OA
ATOM     10  C   LIG    1       -3.222  -2.806   2.428  0.00  0.00    +0.220 C 
ATOM     11  C   LIG    1       -3.016  -1.968   1.163  0.00  0.00    +0.150 C 
ENDBRANCH   5   6
BRANCH   1  12
ATOM     12  N   LIG    1       -0.018   1.465   0.010  0.00  0.00    -0.840 NA
ATOM     13  H   LIG    1       -0.556   1.823  -0.764  0.00  0.00    +0.350 HD
ATOM     14  H   LIG    1        0.919   1.839   0.003  0.00  0.00    +0.340 HD
ENDBRANCH   1  12
BRANCH   4  15
ATOM     15  O   LIG    1       -2.160  -0.580  -2.340  0.00  0.00    -0.550 OA
ATOM     16  H   LIG    1       -2.224  -1.034  -3.192  0.00  0.00    +0.390 HD
ENDBRANCH   4  15
BRANCH   3  17
ATOM     17  O   LIG    1       -0.020  -2.061  -3.060  0.00  0.00    -0.560 OA
ATOM     18  H   LIG    1        0.884  -2.242  -3.351  0.00  0.00    +0.380 HD
ENDBRANCH   3  17
TORSDOF 4
ENDMDL
MODEL     1070
REMARK  Name = ZINC000005004071
REMARK                            x       y       z     vdW  Elec       q    Type
REMARK                         _______ _______ _______ _____ _____    ______ ____
ROOT
ATOM      1  C   LIG    1        0.800  -2.408   1.286  0.00  0.00    +0.010 C 
ATOM      2  C   LIG    1        1.401  -3.077   2.526  0.00  0.00    +0.220 C 
ATOM      3  C   LIG    1        2.880  -2.696   2.632  0.00  0.00    +0.110 C 
ATOM      4  C   LIG    1        3.599  -3.108   1.344  0.00  0.00    +0.140 C 
ATOM      5  O   LIG    1        2.971  -2.474   0.227  0.00  0.00    -0.370 OA
ATOM      6  C   LIG    1        1.597  -2.830   0.049  0.00  0.00    +0.340 C 
ENDROOT
BRANCH   3   7
ATOM      7  O   LIG    1        2.998  -1.284   2.815  0.00  0.00    -0.510 OA
ATOM      8  H   LIG    1        3.910  -0.972   2.891  0.00  0.00    +0.370 HD
ENDBRANCH   3   7
BRANCH   2   9
ATOM      9  O   LIG    1        0.706  -2.633   3.693  0.00  0.00    -0.530 OA
ATOM     10  H   LIG    1        1.035  -3.018   4.516  0.00  0.00    +0.380 HD
ENDBRANCH   2   9
BRANCH   6  11
ATOM     11  O   LIG    1        1.079  -2.165  -1.105  0.00  0.00    -0.530 OA
ATOM     12  H   LIG    1        1.539  -2.386  -1.926  0.00  0.00    +0.390 HD
ENDBRANCH   6  11
BRANCH   1  13
ATOM     13  S   LIG    1        0.879  -0.605   1.472  0.00  0.00    -0.130 S 
BRANCH  13  15
ATOM     14  C   LIG    1       -0.019   1.526   0.010  0.00  0.00    +0.050 C 
ATOM     15  C   LIG    1        0.002  -0.004   0.002  0.00  0.00    +0.030 C 
ENDBRANCH  13  15
ENDBRANCH   1  13
BRANCH   4  16
ATOM     16  C   LIG    1        5.065  -2.677   1.418  0.00  0.00    +0.200 C 
BRANCH  16  17
ATOM     17  O   LIG    1        5.763  -3.162   0.269  0.00  0.00    -0.560 OA
ATOM     18  H   LIG    1        6.700  -2.926   0.249  0.00  0.00    +0.380 HD
ENDBRANCH  16  17
ENDBRANCH   4  16
TORSDOF 7
ENDMDL
MODEL     1071
REMARK  Name = ZINC000005004074
REMARK                            x       y       z     vdW  Elec       q    Type
REMARK                         _______ _______ _______ _____ _____    ______ ____
ROOT
ATOM      1  C   LIG    1        0.775  -2.394  -1.322  0.00  0.00    +0.050 C 
ATOM      2  C   LIG    1        1.596  -2.829  -0.106  0.00  0.00    +0.350 C 
ATOM      3  O   LIG    1        1.582  -4.255  -0.009  0.00  0.00    -0.390 OA
ATOM      4  C   LIG    1        2.154  -4.922  -1.136  0.00  0.00    +0.150 C 
ATOM      5  C   LIG    1        1.355  -4.570  -2.394  0.00  0.00    +0.130 C 
ATOM      6  C   LIG    1        1.352  -3.050  -2.581  0.00  0.00    +0.220 C 
ENDROOT
BRANCH   5   7
ATOM      7  O   LIG    1        0.012  -5.037  -2.253  0.00  0.00    -0.550 OA
ATOM      8  H   LIG    1       -0.061  -5.993  -2.128  0.00  0.00    +0.380 HD
ENDBRANCH   5   7
BRANCH   2   9
ATOM      9  O   LIG    1        1.029  -2.265   1.079  0.00  0.00    -0.540 OA
ATOM     10  H   LIG    1        1.499  -2.500   1.890  0.00  0.00    +0.390 HD
ENDBRANCH   2   9
BRANCH   6  11
ATOM     11  O   LIG    1        2.689  -2.591  -2.789  0.00  0.00    -0.540 OA
ATOM     12  H   LIG    1        3.119  -2.972  -3.567  0.00  0.00    +0.380 HD
ENDBRANCH   6  11
BRANCH   1  13
ATOM     13  S   LIG    1        0.851  -0.589  -1.490  0.00  0.00    -0.220 S 
BRANCH  13  15
ATOM     14  C   LIG    1       -0.019   1.526   0.010  0.00  0.00    +0.050 C 
ATOM     15  C   LIG    1        0.002  -0.004   0.002  0.00  0.00    +0.090 C 
ENDBRANCH  13  15
ENDBRANCH   1  13
BRANCH   4  16
ATOM     16  C   LIG    1        2.111  -6.434  -0.910  0.00  0.00    +0.210 C 
BRANCH  16  17
ATOM     17  O   LIG    1        2.949  -6.775   0.196  0.00  0.00    -0.560 OA
ATOM     18  H   LIG    1        2.970  -7.720   0.397  0.00  0.00    +0.380 HD
ENDBRANCH  16  17
ENDBRANCH   4  16
TORSDOF 7
ENDMDL
MODEL     1072
REMARK  Name = ZINC000005004073
REMARK                            x       y       z     vdW  Elec       q    Type
REMARK                         _______ _______ _______ _____ _____    ______ ____
ROOT
ATOM      1  C   LIG    1        0.775  -2.394  -1.322  0.00  0.00    +0.010 C 
ATOM      2  C   LIG    1       -0.684  -2.853  -1.393  0.00  0.00    +0.350 C 
ATOM      3  O   LIG    1       -1.226  -2.515  -2.671  0.00  0.00    -0.370 OA
ATOM      4  C   LIG    1       -0.558  -3.136  -3.772  0.00  0.00    +0.160 C 
ATOM      5  C   LIG    1        0.905  -2.688  -3.796  0.00  0.00    +0.110 C 
ATOM      6  C   LIG    1        1.565  -3.047  -2.460  0.00  0.00    +0.220 C 
ENDROOT
BRANCH   5   7
ATOM      7  O   LIG    1        0.969  -1.274  -3.996  0.00  0.00    -0.520 OA
ATOM      8  H   LIG    1        0.565  -0.975  -4.822  0.00  0.00    +0.370 HD
ENDBRANCH   5   7
BRANCH   2   9
ATOM      9  O   LIG    1       -1.438  -2.204  -0.368  0.00  0.00    -0.540 OA
ATOM     10  H   LIG    1       -2.373  -2.448  -0.353  0.00  0.00    +0.390 HD
ENDBRANCH   2   9
BRANCH   6  11
ATOM     11  O   LIG    1        1.562  -4.467  -2.292  0.00  0.00    -0.550 OA
ATOM     12  H   LIG    1        2.040  -4.945  -2.984  0.00  0.00    +0.390 HD
ENDBRANCH   6  11
BRANCH   1  13
ATOM     13  S   LIG    1        0.851  -0.589  -1.490  0.00  0.00    -0.150 S 
BRANCH  13  15
ATOM     14  C   LIG    1       -0.019   1.526   0.010  0.00  0.00    +0.060 C 
ATOM     15  C   LIG    1        0.002  -0.004   0.002  0.00  0.00    +0.060 C 
ENDBRANCH  13  15
ENDBRANCH   1  13
BRANCH   4  16
ATOM     16  C   LIG    1       -1.240  -2.726  -5.079  0.00  0.00    +0.200 C 
BRANCH  16  17
ATOM     17  O   LIG    1       -2.571  -3.244  -5.105  0.00  0.00    -0.560 OA
ATOM     18  H   LIG    1       -3.064  -3.023  -5.907  0.00  0.00    +0.380 HD
ENDBRANCH  16  17
ENDBRANCH   4  16
TORSDOF 7
ENDMDL
MODEL     1073
REMARK  Name = ZINC000005022258
REMARK                            x       y       z     vdW  Elec       q    Type
REMARK                         _______ _______ _______ _____ _____    ______ ____
ROOT
ATOM      1  C   LIG    1       -0.117   5.440   0.035  0.00  0.00    +0.280 C 
ATOM      2  O   LIG    1        0.661   5.947  -1.056  0.00  0.00    -0.340 OA
ATOM      3  C   LIG    1        1.760   6.724  -0.554  0.00  0.00    +0.150 C 
ATOM      4  C   LIG    1        1.309   7.205   0.848  0.00  0.00    +0.130 C 
ATOM      5  C   LIG    1        0.510   5.967   1.343  0.00  0.00    +0.180 C 
ENDROOT
BRANCH   1  11
ATOM      6  O   LIG    1        0.002  -0.004   0.002  0.00  0.00    -0.540 OA
ATOM      7  C   LIG    1       -0.014   1.212   0.009  0.00  0.00    +0.700 A 
ATOM      8  N   LIG    1       -1.194   1.859   0.029  0.00  0.00    -0.630 N 
ATOM      9  H   LIG    1       -2.020   1.351   0.037  0.00  0.00    +0.440 HD
ATOM     10  C   LIG    1       -1.238   3.226   0.037  0.00  0.00    +0.390 A 
ATOM     11  C   LIG    1       -0.088   3.933   0.025  0.00  0.00    -0.280 A 
ATOM     12  C   LIG    1        1.146   3.239   0.004  0.00  0.00    +0.560 A 
ATOM     13  O   LIG    1        2.197   3.855  -0.008  0.00  0.00    -0.500 OA
ATOM     14  N   LIG    1        1.147   1.891   0.001  0.00  0.00    -0.660 N 
ATOM     15  H   LIG    1        1.989   1.409  -0.013  0.00  0.00    +0.430 HD
ENDBRANCH   1  11
BRANCH   4  16
ATOM     16  O   LIG    1        0.467   8.356   0.752  0.00  0.00    -0.540 OA
ATOM     17  H   LIG    1        0.895   9.123   0.347  0.00  0.00    +0.380 HD
ENDBRANCH   4  16
BRANCH   5  18
ATOM     18  O   LIG    1       -0.499   6.354   2.278  0.00  0.00    -0.540 OA
ATOM     19  H   LIG    1       -0.154   6.771   3.079  0.00  0.00    +0.390 HD
ENDBRANCH   5  18
BRANCH   3  20
ATOM     20  C   LIG    1        2.025   7.922  -1.469  0.00  0.00    +0.190 C 
BRANCH  20  21
ATOM     21  O   LIG    1        2.489   7.458  -2.738  0.00  0.00    -0.560 OA
ATOM     22  H   LIG    1        2.678   8.165  -3.370  0.00  0.00    +0.380 HD
ENDBRANCH  20  21
ENDBRANCH   3  20
TORSDOF 5
ENDMDL
MODEL     1074
REMARK  Name = ZINC000005022260
REMARK                            x       y       z     vdW  Elec       q    Type
REMARK                         _______ _______ _______ _____ _____    ______ ____
ROOT
ATOM      1  C   LIG    1       -0.117   5.440   0.035  0.00  0.00    +0.260 C 
ATOM      2  O   LIG    1        0.701   5.971  -1.031  0.00  0.00    -0.330 OA
ATOM      3  C   LIG    1        1.037   7.321  -0.669  0.00  0.00    +0.160 C 
ATOM      4  C   LIG    1        0.997   7.406   0.869  0.00  0.00    +0.140 C 
ATOM      5  C   LIG    1        0.554   5.990   1.319  0.00  0.00    +0.180 C 
ENDROOT
BRANCH   1  11
ATOM      6  O   LIG    1        0.002  -0.004   0.002  0.00  0.00    -0.540 OA
ATOM      7  C   LIG    1       -0.014   1.212   0.009  0.00  0.00    +0.700 A 
ATOM      8  N   LIG    1       -1.194   1.859   0.029  0.00  0.00    -0.640 N 
ATOM      9  H   LIG    1       -2.020   1.351   0.037  0.00  0.00    +0.440 HD
ATOM     10  C   LIG    1       -1.238   3.226   0.037  0.00  0.00    +0.360 A 
ATOM     11  C   LIG    1       -0.088   3.933   0.025  0.00  0.00    -0.240 A 
ATOM     12  C   LIG    1        1.146   3.239   0.004  0.00  0.00    +0.550 A 
ATOM     13  O   LIG    1        2.197   3.855  -0.008  0.00  0.00    -0.450 OA
ATOM     14  N   LIG    1        1.147   1.891   0.001  0.00  0.00    -0.660 N 
ATOM     15  H   LIG    1        1.989   1.409  -0.013  0.00  0.00    +0.430 HD
ENDBRANCH   1  11
BRANCH   4  16
ATOM     16  O   LIG    1        0.046   8.385   1.292  0.00  0.00    -0.560 OA
ATOM     17  H   LIG    1        0.244   9.282   0.989  0.00  0.00    +0.380 HD
ENDBRANCH   4  16
BRANCH   5  18
ATOM     18  O   LIG    1        1.683   5.194   1.683  0.00  0.00    -0.520 OA
ATOM     19  H   LIG    1        2.191   5.548   2.426  0.00  0.00    +0.370 HD
ENDBRANCH   5  18
BRANCH   3  20
ATOM     20  C   LIG    1        0.018   8.290  -1.273  0.00  0.00    +0.170 C 
BRANCH  20  21
ATOM     21  O   LIG    1        0.134   8.276  -2.697  0.00  0.00    -0.560 OA
ATOM     22  H   LIG    1       -0.483   8.869  -3.147  0.00  0.00    +0.380 HD
ENDBRANCH  20  21
ENDBRANCH   3  20
TORSDOF 5
ENDMDL
MODEL     1075
REMARK  Name = ZINC000005030592
REMARK                            x       y       z     vdW  Elec       q    Type
REMARK                         _______ _______ _______ _____ _____    ______ ____
ROOT
ATOM      1  C1* LIG    1        0.183  -4.175  -0.022  0.00  0.00    +0.390 C 
ATOM      2  O4* LIG    1       -1.134  -4.763  -0.089  0.00  0.00    -0.290 OA
ATOM      3  C4* LIG    1       -0.927  -6.104  -0.583  0.00  0.00    +0.130 C 
ATOM      4  C3* LIG    1        0.151  -5.958  -1.681  0.00  0.00    +0.140 C 
ATOM      5  C2* LIG    1        0.901  -4.660  -1.301  0.00  0.00    +0.170 C 
ENDROOT
BRANCH   1   9
ATOM      6  C   LIG    1        0.002  -0.004   0.002  0.00  0.00    +0.440 A 
ATOM      7  C   LIG    1       -1.185  -0.718   0.004  0.00  0.00    -0.260 A 
ATOM      8  C   LIG    1       -1.122  -2.118  -0.004  0.00  0.00    +0.540 A 
ATOM      9  N   LIG    1        0.089  -2.713  -0.013  0.00  0.00    -0.520 N 
ATOM     10  C   LIG    1        1.213  -1.968  -0.014  0.00  0.00    +0.630 A 
ATOM     11  O   LIG    1       -2.143  -2.786  -0.003  0.00  0.00    -0.510 OA
ATOM     12  N   LIG    1        1.171  -0.664  -0.013  0.00  0.00    -0.570 NA
BRANCH   6  13
ATOM     13  N   LIG    1       -0.017   1.376   0.010  0.00  0.00    -0.830 N 
ATOM     14  H   LIG    1       -0.863   1.849   0.016  0.00  0.00    +0.410 HD
ATOM     15  H   LIG    1        0.817   1.872   0.004  0.00  0.00    +0.410 HD
ENDBRANCH   6  13
ENDBRANCH   1   9
BRANCH   4  16
ATOM     16  O3* LIG    1       -0.458  -5.832  -2.967  0.00  0.00    -0.540 OA
ATOM     17  H3* LIG    1       -0.989  -6.598  -3.228  0.00  0.00    +0.380 HD
ENDBRANCH   4  16
BRANCH   5  18
ATOM     18  O2* LIG    1        0.779  -3.689  -2.343  0.00  0.00    -0.530 OA
ATOM     19  H2* LIG    1        1.159  -3.968  -3.187  0.00  0.00    +0.390 HD
ENDBRANCH   5  18
BRANCH   3  20
ATOM     20  C5* LIG    1       -2.223  -6.659  -1.177  0.00  0.00    +0.210 C 
BRANCH  20  21
ATOM     21  O5* LIG    1       -3.190  -6.826  -0.138  0.00  0.00    -0.560 OA
ATOM     22  H5* LIG    1       -4.038  -7.176  -0.443  0.00  0.00    +0.380 HD
ENDBRANCH  20  21
ENDBRANCH   3  20
TORSDOF 6
ENDMDL
MODEL     1076
REMARK  Name = ZINC000005030596
REMARK                            x       y       z     vdW  Elec       q    Type
REMARK                         _______ _______ _______ _____ _____    ______ ____
ROOT
ATOM      1  C1* LIG    1        0.183  -4.175  -0.022  0.00  0.00    +0.440 C 
ATOM      2  O4* LIG    1        1.141  -4.623   0.962  0.00  0.00    -0.330 OA
ATOM      3  C4* LIG    1        2.436  -4.403   0.361  0.00  0.00    +0.110 C 
ATOM      4  C3* LIG    1        2.261  -4.823  -1.116  0.00  0.00    +0.140 C 
ATOM      5  C2* LIG    1        0.743  -4.669  -1.374  0.00  0.00    +0.200 C 
ENDROOT
BRANCH   1   9
ATOM      6  C   LIG    1       -0.018  -0.006   0.059  0.00  0.00    +0.440 A 
ATOM      7  C   LIG    1       -0.918  -0.696  -0.736  0.00  0.00    -0.240 A 
ATOM      8  C   LIG    1       -0.849  -2.096  -0.762  0.00  0.00    +0.550 A 
ATOM      9  N   LIG    1        0.089  -2.713  -0.013  0.00  0.00    -0.540 N 
ATOM     10  C   LIG    1        0.940  -1.990   0.743  0.00  0.00    +0.610 A 
ATOM     11  O   LIG    1       -1.622  -2.744  -1.449  0.00  0.00    -0.530 OA
ATOM     12  N   LIG    1        0.892  -0.687   0.773  0.00  0.00    -0.570 NA
BRANCH   6  13
ATOM     13  N   LIG    1       -0.053   1.373   0.112  0.00  0.00    -0.830 N 
ATOM     14  H   LIG    1       -0.709   1.862  -0.409  0.00  0.00    +0.410 HD
ATOM     15  H   LIG    1        0.582   1.853   0.667  0.00  0.00    +0.410 HD
ENDBRANCH   6  13
ENDBRANCH   1   9
BRANCH   4  16
ATOM     16  O3* LIG    1        2.668  -6.180  -1.302  0.00  0.00    -0.550 OA
ATOM     17  H3* LIG    1        3.599  -6.343  -1.096  0.00  0.00    +0.380 HD
ENDBRANCH   4  16
BRANCH   5  18
ATOM     18  O2* LIG    1        0.505  -3.705  -2.402  0.00  0.00    -0.530 OA
ATOM     19  H2* LIG    1        0.889  -3.939  -3.257  0.00  0.00    +0.390 HD
ENDBRANCH   5  18
BRANCH   3  20
ATOM     20  C5* LIG    1        3.494  -5.273   1.043  0.00  0.00    +0.220 C 
BRANCH  20  21
ATOM     21  O5* LIG    1        3.669  -4.838   2.393  0.00  0.00    -0.560 OA
ATOM     22  H5* LIG    1        4.327  -5.346   2.887  0.00  0.00    +0.390 HD
ENDBRANCH  20  21
ENDBRANCH   3  20
TORSDOF 6
ENDMDL
MODEL     1077
REMARK  Name = ZINC000005047991
REMARK                            x       y       z     vdW  Elec       q    Type
REMARK                         _______ _______ _______ _____ _____    ______ ____
ROOT
ATOM      1  C   LIG    1        0.652  -0.570  -1.138  0.00  0.00    +0.320 C 
ATOM      2  O   LIG    1       -0.088  -0.248  -2.317  0.00  0.00    -0.380 OA
ATOM      3  C   LIG    1       -1.440  -0.712  -2.303  0.00  0.00    +0.160 C 
ATOM      4  C   LIG    1       -1.452  -2.239  -2.194  0.00  0.00    +0.170 C 
ATOM      5  C   LIG    1       -0.699  -2.659  -0.928  0.00  0.00    +0.150 C 
ATOM      6  C   LIG    1        0.723  -2.091  -0.982  0.00  0.00    +0.150 C 
ENDROOT
BRANCH   1   8
ATOM      7  C   LIG    1       -0.017   1.425   0.010  0.00  0.00    +0.210 C 
ATOM      8  O   LIG    1        0.002  -0.004   0.002  0.00  0.00    -0.370 OA
ENDBRANCH   1   8
BRANCH   5   9
ATOM      9  O   LIG    1       -1.376  -2.148   0.223  0.00  0.00    -0.530 OA
ATOM     10  H   LIG    1       -0.952  -2.377   1.062  0.00  0.00    +0.380 HD
ENDBRANCH   5   9
BRANCH   4  11
ATOM     11  O   LIG    1       -2.803  -2.701  -2.122  0.00  0.00    -0.530 OA
ATOM     12  H   LIG    1       -2.886  -3.662  -2.051  0.00  0.00    +0.380 HD
ENDBRANCH   4  11
BRANCH   3  13
ATOM     13  C   LIG    1       -2.139  -0.287  -3.596  0.00  0.00    +0.220 C 
ATOM     14  C   LIG    1       -2.124   1.239  -3.705  0.00  0.00    +0.020 C 
BRANCH  13  15
ATOM     15  O   LIG    1       -3.490  -0.751  -3.582  0.00  0.00    -0.540 OA
ATOM     16  H   LIG    1       -4.016  -0.407  -2.846  0.00  0.00    +0.380 HD
ENDBRANCH  13  15
ENDBRANCH   3  13
BRANCH   6  17
ATOM     17  O   LIG    1        1.413  -2.417   0.227  0.00  0.00    -0.550 OA
ATOM     18  H   LIG    1        2.322  -2.088   0.262  0.00  0.00    +0.390 HD
ENDBRANCH   6  17
TORSDOF 6
ENDMDL
MODEL     1078
REMARK  Name = ZINC000005047983
REMARK                            x       y       z     vdW  Elec       q    Type
REMARK                         _______ _______ _______ _____ _____    ______ ____
ROOT
ATOM      1  C   LIG    1       -2.849  -2.589   0.141  0.00  0.00    +0.170 C 
ENDROOT
BRANCH   1   2
ATOM      2  O   LIG    1       -3.552  -2.034   1.254  0.00  0.00    -0.530 OA
ATOM      3  H   LIG    1       -3.162  -2.249   2.113  0.00  0.00    +0.370 HD
ENDBRANCH   1   2
BRANCH   1   4
ATOM      4  C   LIG    1       -1.413  -2.059   0.130  0.00  0.00    +0.170 C 
BRANCH   4   5
ATOM      5  O   LIG    1       -0.710  -2.613  -0.983  0.00  0.00    -0.530 OA
ATOM      6  H   LIG    1       -1.099  -2.398  -1.841  0.00  0.00    +0.370 HD
ENDBRANCH   4   5
BRANCH   4   7
ATOM      7  C   LIG    1       -1.433  -0.534   0.013  0.00  0.00    +0.160 C 
BRANCH   7   9
ATOM      8  C   LIG    1       -0.019   1.526   0.010  0.00  0.00    +0.020 C 
ATOM      9  C   LIG    1        0.002  -0.004   0.002  0.00  0.00    +0.180 C 
BRANCH   9  10
ATOM     10  O   LIG    1        0.693  -0.477   1.160  0.00  0.00    -0.550 OA
ATOM     11  H   LIG    1        0.294  -0.202   1.996  0.00  0.00    +0.370 HD
ENDBRANCH   9  10
ENDBRANCH   7   9
BRANCH   7  12
ATOM     12  O   LIG    1       -2.137   0.021   1.126  0.00  0.00    -0.530 OA
ATOM     13  H   LIG    1       -1.747  -0.195   1.985  0.00  0.00    +0.370 HD
ENDBRANCH   7  12
ENDBRANCH   4   7
ENDBRANCH   1   4
BRANCH   1  14
ATOM     14  C   LIG    1       -2.829  -4.114   0.258  0.00  0.00    +0.190 C 
BRANCH  14  15
ATOM     15  C   LIG    1       -4.242  -4.636   0.269  0.00  0.00    +0.490 C 
ATOM     16  O   LIG    1       -4.638  -5.333  -0.640  0.00  0.00    -0.540 OA
ATOM     17  N   LIG    1       -5.067  -4.327   1.290  0.00  0.00    -0.840 N 
ATOM     18  H   LIG    1       -5.977  -4.662   1.296  0.00  0.00    +0.400 HD
ATOM     19  H   LIG    1       -4.750  -3.769   2.017  0.00  0.00    +0.400 HD
ENDBRANCH  14  15
BRANCH  14  20
ATOM     20  O   LIG    1       -2.125  -4.668  -0.855  0.00  0.00    -0.510 OA
ATOM     21  H   LIG    1       -2.515  -4.453  -1.713  0.00  0.00    +0.380 HD
ENDBRANCH  14  20
ENDBRANCH   1  14
TORSDOF 10
ENDMDL
MODEL     1079
REMARK  Name = ZINC000005047992
REMARK                            x       y       z     vdW  Elec       q    Type
REMARK                         _______ _______ _______ _____ _____    ______ ____
ROOT
ATOM      1  C   LIG    1        0.652  -0.570  -1.138  0.00  0.00    +0.320 C 
ATOM      2  O   LIG    1       -0.088  -0.248  -2.317  0.00  0.00    -0.380 OA
ATOM      3  C   LIG    1       -1.440  -0.712  -2.303  0.00  0.00    +0.160 C 
ATOM      4  C   LIG    1       -1.452  -2.239  -2.194  0.00  0.00    +0.180 C 
ATOM      5  C   LIG    1       -0.699  -2.659  -0.928  0.00  0.00    +0.150 C 
ATOM      6  C   LIG    1        0.723  -2.091  -0.982  0.00  0.00    +0.150 C 
ENDROOT
BRANCH   1   8
ATOM      7  C   LIG    1       -0.017   1.425   0.010  0.00  0.00    +0.210 C 
ATOM      8  O   LIG    1        0.002  -0.004   0.002  0.00  0.00    -0.370 OA
ENDBRANCH   1   8
BRANCH   5   9
ATOM      9  O   LIG    1       -1.376  -2.148   0.223  0.00  0.00    -0.530 OA
ATOM     10  H   LIG    1       -0.952  -2.377   1.062  0.00  0.00    +0.380 HD
ENDBRANCH   5   9
BRANCH   4  11
ATOM     11  O   LIG    1       -2.803  -2.701  -2.122  0.00  0.00    -0.540 OA
ATOM     12  H   LIG    1       -2.886  -3.662  -2.051  0.00  0.00    +0.380 HD
ENDBRANCH   4  11
BRANCH   3  13
ATOM     13  C   LIG    1       -2.139  -0.287  -3.596  0.00  0.00    +0.240 C 
ATOM     14  C   LIG    1       -2.016   1.229  -3.768  0.00  0.00    +0.020 C 
BRANCH  13  15
ATOM     15  O   LIG    1       -1.525  -0.944  -4.707  0.00  0.00    -0.560 OA
ATOM     16  H   LIG    1       -0.585  -0.744  -4.812  0.00  0.00    +0.380 HD
ENDBRANCH  13  15
ENDBRANCH   3  13
BRANCH   6  17
ATOM     17  O   LIG    1        1.413  -2.417   0.227  0.00  0.00    -0.550 OA
ATOM     18  H   LIG    1        2.322  -2.088   0.262  0.00  0.00    +0.390 HD
ENDBRANCH   6  17
TORSDOF 6
ENDMDL
MODEL     1080
REMARK  Name = ZINC000005047986
REMARK                            x       y       z     vdW  Elec       q    Type
REMARK                         _______ _______ _______ _____ _____    ______ ____
ROOT
ATOM      1  C   LIG    1       -2.844  -2.592  -0.110  0.00  0.00    +0.170 C 
ENDROOT
BRANCH   1   2
ATOM      2  O   LIG    1       -3.612  -2.132   1.003  0.00  0.00    -0.540 OA
ATOM      3  H   LIG    1       -3.271  -2.418   1.861  0.00  0.00    +0.380 HD
ENDBRANCH   1   2
BRANCH   1   4
ATOM      4  C   LIG    1       -1.413  -2.063   0.004  0.00  0.00    +0.170 C 
BRANCH   4   5
ATOM      5  O   LIG    1       -0.644  -2.523  -1.109  0.00  0.00    -0.530 OA
ATOM      6  H   LIG    1       -0.986  -2.238  -1.968  0.00  0.00    +0.370 HD
ENDBRANCH   4   5
BRANCH   4   7
ATOM      7  C   LIG    1       -1.433  -0.534   0.013  0.00  0.00    +0.160 C 
BRANCH   7   9
ATOM      8  C   LIG    1       -0.019   1.526   0.010  0.00  0.00    +0.020 C 
ATOM      9  C   LIG    1        0.002  -0.004   0.002  0.00  0.00    +0.190 C 
BRANCH   9  10
ATOM     10  O   LIG    1        0.693  -0.477   1.160  0.00  0.00    -0.550 OA
ATOM     11  H   LIG    1        0.294  -0.202   1.996  0.00  0.00    +0.370 HD
ENDBRANCH   9  10
ENDBRANCH   7   9
BRANCH   7  12
ATOM     12  O   LIG    1       -2.124  -0.060  -1.145  0.00  0.00    -0.550 OA
ATOM     13  H   LIG    1       -1.725  -0.336  -1.981  0.00  0.00    +0.370 HD
ENDBRANCH   7  12
ENDBRANCH   4   7
ENDBRANCH   1   4
BRANCH   1  14
ATOM     14  C   LIG    1       -2.823  -4.122  -0.119  0.00  0.00    +0.190 C 
BRANCH  14  15
ATOM     15  C   LIG    1       -4.232  -4.643  -0.232  0.00  0.00    +0.490 C 
ATOM     16  O   LIG    1       -4.573  -5.263  -1.217  0.00  0.00    -0.540 OA
ATOM     17  N   LIG    1       -5.115  -4.420   0.762  0.00  0.00    -0.840 N 
ATOM     18  H   LIG    1       -6.022  -4.755   0.689  0.00  0.00    +0.400 HD
ATOM     19  H   LIG    1       -4.843  -3.924   1.550  0.00  0.00    +0.400 HD
ENDBRANCH  14  15
BRANCH  14  20
ATOM     20  O   LIG    1       -2.054  -4.582  -1.232  0.00  0.00    -0.510 OA
ATOM     21  H   LIG    1       -2.396  -4.296  -2.091  0.00  0.00    +0.380 HD
ENDBRANCH  14  20
ENDBRANCH   1  14
TORSDOF 10
ENDMDL
MODEL     1081
REMARK  Name = ZINC000005047971
REMARK                            x       y       z     vdW  Elec       q    Type
REMARK                         _______ _______ _______ _____ _____    ______ ____
ROOT
ATOM      1  C   LIG    1        0.673  -0.582   1.123  0.00  0.00    +0.270 C 
ATOM      2  O   LIG    1        2.089  -0.303   1.060  0.00  0.00    -0.340 OA
ATOM      3  C   LIG    1        2.711  -1.300   1.900  0.00  0.00    +0.130 C 
ATOM      4  C   LIG    1        1.944  -2.606   1.597  0.00  0.00    +0.160 C 
ATOM      5  C   LIG    1        0.570  -2.123   1.076  0.00  0.00    +0.130 C 
ENDROOT
BRANCH   1   7
ATOM      6  C   LIG    1       -0.017   1.425   0.010  0.00  0.00    +0.220 C 
ATOM      7  O   LIG    1        0.002  -0.004   0.002  0.00  0.00    -0.370 OA
ENDBRANCH   1   7
BRANCH   4   8
ATOM      8  O   LIG    1        2.625  -3.366   0.597  0.00  0.00    -0.500 OA
ATOM      9  H   LIG    1        2.187  -4.197   0.368  0.00  0.00    +0.370 HD
ENDBRANCH   4   8
BRANCH   5  10
ATOM     10  O   LIG    1        0.358  -2.571  -0.265  0.00  0.00    -0.530 OA
ATOM     11  H   LIG    1       -0.489  -2.296  -0.642  0.00  0.00    +0.390 HD
ENDBRANCH   5  10
BRANCH   3  12
ATOM     12  C   LIG    1        4.190  -1.452   1.540  0.00  0.00    +0.260 C 
BRANCH  12  13
ATOM     13  C   LIG    1        4.886  -0.094   1.656  0.00  0.00    +0.120 C 
ATOM     14  C   LIG    1        6.333  -0.220   1.177  0.00  0.00    +0.010 C 
BRANCH  13  15
ATOM     15  O   LIG    1        4.198   0.864   0.849  0.00  0.00    -0.540 OA
ATOM     16  H   LIG    1        4.585   1.750   0.875  0.00  0.00    +0.370 HD
ENDBRANCH  13  15
ENDBRANCH  12  13
BRANCH  12  17
ATOM     17  O   LIG    1        4.307  -1.934   0.200  0.00  0.00    -0.520 OA
ATOM     18  H   LIG    1        3.910  -1.352  -0.463  0.00  0.00    +0.380 HD
ENDBRANCH  12  17
ENDBRANCH   3  12
TORSDOF 7
ENDMDL
MODEL     1082
REMARK  Name = ZINC000005047972
REMARK                            x       y       z     vdW  Elec       q    Type
REMARK                         _______ _______ _______ _____ _____    ______ ____
ROOT
ATOM      1  C   LIG    1        0.673  -0.582   1.123  0.00  0.00    +0.290 C 
ATOM      2  O   LIG    1        2.089  -0.303   1.060  0.00  0.00    -0.370 OA
ATOM      3  C   LIG    1        2.711  -1.300   1.900  0.00  0.00    +0.150 C 
ATOM      4  C   LIG    1        1.944  -2.606   1.597  0.00  0.00    +0.170 C 
ATOM      5  C   LIG    1        0.570  -2.123   1.076  0.00  0.00    +0.130 C 
ENDROOT
BRANCH   1   7
ATOM      6  C   LIG    1       -0.017   1.425   0.010  0.00  0.00    +0.210 C 
ATOM      7  O   LIG    1        0.002  -0.004   0.002  0.00  0.00    -0.370 OA
ENDBRANCH   1   7
BRANCH   4   8
ATOM      8  O   LIG    1        2.625  -3.366   0.597  0.00  0.00    -0.530 OA
ATOM      9  H   LIG    1        2.187  -4.197   0.368  0.00  0.00    +0.380 HD
ENDBRANCH   4   8
BRANCH   5  10
ATOM     10  O   LIG    1        0.358  -2.571  -0.265  0.00  0.00    -0.530 OA
ATOM     11  H   LIG    1       -0.489  -2.296  -0.642  0.00  0.00    +0.390 HD
ENDBRANCH   5  10
BRANCH   3  12
ATOM     12  C   LIG    1        4.190  -1.452   1.540  0.00  0.00    +0.270 C 
BRANCH  12  13
ATOM     13  C   LIG    1        4.912  -0.124   1.776  0.00  0.00    +0.140 C 
ATOM     14  C   LIG    1        6.412  -0.308   1.535  0.00  0.00    +0.020 C 
BRANCH  13  15
ATOM     15  O   LIG    1        4.695   0.304   3.122  0.00  0.00    -0.570 OA
ATOM     16  H   LIG    1        5.124   1.142   3.342  0.00  0.00    +0.380 HD
ENDBRANCH  13  15
ENDBRANCH  12  13
BRANCH  12  17
ATOM     17  O   LIG    1        4.778  -2.465   2.358  0.00  0.00    -0.540 OA
ATOM     18  H   LIG    1        4.733  -2.280   3.306  0.00  0.00    +0.380 HD
ENDBRANCH  12  17
ENDBRANCH   3  12
TORSDOF 7
ENDMDL
MODEL     1083
REMARK  Name = ZINC000005047988
REMARK                            x       y       z     vdW  Elec       q    Type
REMARK                         _______ _______ _______ _____ _____    ______ ____
ROOT
ATOM      1  C   LIG    1        0.652  -0.570  -1.138  0.00  0.00    +0.290 C 
ATOM      2  O   LIG    1       -0.088  -0.248  -2.317  0.00  0.00    -0.380 OA
ATOM      3  C   LIG    1        0.492  -0.747  -3.524  0.00  0.00    +0.150 C 
ATOM      4  C   LIG    1        0.556  -2.275  -3.464  0.00  0.00    +0.170 C 
ATOM      5  C   LIG    1        1.366  -2.696  -2.234  0.00  0.00    +0.140 C 
ATOM      6  C   LIG    1        0.723  -2.091  -0.982  0.00  0.00    +0.140 C 
ENDROOT
BRANCH   1   8
ATOM      7  C   LIG    1       -0.017   1.425   0.010  0.00  0.00    +0.210 C 
ATOM      8  O   LIG    1        0.002  -0.004   0.002  0.00  0.00    -0.370 OA
ENDBRANCH   1   8
BRANCH   5   9
ATOM      9  O   LIG    1        1.372  -4.121  -2.130  0.00  0.00    -0.550 OA
ATOM     10  H   LIG    1        1.867  -4.458  -1.371  0.00  0.00    +0.380 HD
ENDBRANCH   5   9
BRANCH   4  11
ATOM     11  O   LIG    1       -0.767  -2.806  -3.371  0.00  0.00    -0.510 OA
ATOM     12  H   LIG    1       -0.802  -3.771  -3.328  0.00  0.00    +0.380 HD
ENDBRANCH   4  11
BRANCH   3  13
ATOM     13  C   LIG    1       -0.366  -0.319  -4.717  0.00  0.00    +0.230 C 
ATOM     14  C   LIG    1       -0.534   1.202  -4.704  0.00  0.00    +0.020 C 
BRANCH  13  15
ATOM     15  O   LIG    1       -1.649  -0.941  -4.629  0.00  0.00    -0.540 OA
ATOM     16  H   LIG    1       -2.142  -0.715  -3.828  0.00  0.00    +0.380 HD
ENDBRANCH  13  15
ENDBRANCH   3  13
BRANCH   6  17
ATOM     17  O   LIG    1       -0.595  -2.618  -0.820  0.00  0.00    -0.520 OA
ATOM     18  H   LIG    1       -1.062  -2.278  -0.045  0.00  0.00    +0.380 HD
ENDBRANCH   6  17
TORSDOF 6
ENDMDL
MODEL     1084
REMARK  Name = ZINC000005047973
REMARK                            x       y       z     vdW  Elec       q    Type
REMARK                         _______ _______ _______ _____ _____    ______ ____
ROOT
ATOM      1  C   LIG    1        0.673  -0.582   1.123  0.00  0.00    +0.270 C 
ATOM      2  O   LIG    1        2.089  -0.303   1.060  0.00  0.00    -0.340 OA
ATOM      3  C   LIG    1        2.711  -1.300   1.900  0.00  0.00    +0.140 C 
ATOM      4  C   LIG    1        1.944  -2.606   1.597  0.00  0.00    +0.170 C 
ATOM      5  C   LIG    1        0.570  -2.123   1.076  0.00  0.00    +0.130 C 
ENDROOT
BRANCH   1   7
ATOM      6  C   LIG    1       -0.017   1.425   0.010  0.00  0.00    +0.220 C 
ATOM      7  O   LIG    1        0.002  -0.004   0.002  0.00  0.00    -0.370 OA
ENDBRANCH   1   7
BRANCH   4   8
ATOM      8  O   LIG    1        2.625  -3.366   0.597  0.00  0.00    -0.530 OA
ATOM      9  H   LIG    1        2.187  -4.197   0.368  0.00  0.00    +0.380 HD
ENDBRANCH   4   8
BRANCH   5  10
ATOM     10  O   LIG    1        0.358  -2.571  -0.265  0.00  0.00    -0.530 OA
ATOM     11  H   LIG    1       -0.489  -2.296  -0.642  0.00  0.00    +0.390 HD
ENDBRANCH   5  10
BRANCH   3  12
ATOM     12  C   LIG    1        4.190  -1.452   1.540  0.00  0.00    +0.260 C 
BRANCH  12  13
ATOM     13  C   LIG    1        4.912  -0.124   1.776  0.00  0.00    +0.120 C 
ATOM     14  C   LIG    1        6.391  -0.276   1.415  0.00  0.00    +0.020 C 
BRANCH  13  15
ATOM     15  O   LIG    1        4.324   0.890   0.957  0.00  0.00    -0.540 OA
ATOM     16  H   LIG    1        4.733   1.760   1.055  0.00  0.00    +0.370 HD
ENDBRANCH  13  15
ENDBRANCH  12  13
BRANCH  12  17
ATOM     17  O   LIG    1        4.778  -2.465   2.358  0.00  0.00    -0.530 OA
ATOM     18  H   LIG    1        4.733  -2.280   3.306  0.00  0.00    +0.370 HD
ENDBRANCH  12  17
ENDBRANCH   3  12
TORSDOF 7
ENDMDL
MODEL     1085
REMARK  Name = ZINC000005063376
REMARK                            x       y       z     vdW  Elec       q    Type
REMARK                         _______ _______ _______ _____ _____    ______ ____
ROOT
ATOM      1  C   LIG    1       -1.244  -2.135   0.003  0.00  0.00    +0.230 C 
ATOM      2  O   LIG    1       -2.608  -2.567  -0.089  0.00  0.00    -0.360 OA
ATOM      3  C   LIG    1       -2.790  -3.982  -0.027  0.00  0.00    +0.430 C 
ATOM      4  O   LIG    1       -2.217  -4.506   1.177  0.00  0.00    -0.370 OA
ATOM      5  C   LIG    1       -0.828  -4.208   1.303  0.00  0.00    +0.130 C 
ATOM      6  C   LIG    1       -0.245  -4.754   2.606  0.00  0.00    +0.230 C 
ATOM      7  O   LIG    1        1.119  -4.322   2.698  0.00  0.00    -0.370 OA
ATOM      8  C   LIG    1        1.302  -2.908   2.636  0.00  0.00    +0.400 C 
ATOM      9  O   LIG    1        0.730  -2.384   1.431  0.00  0.00    -0.360 OA
ATOM     10  C   LIG    1       -0.659  -2.681   1.304  0.00  0.00    +0.120 C 
ENDROOT
BRANCH   1  11
ATOM     11  C   LIG    1       -1.185  -0.630   0.010  0.00  0.00    +0.470 C 
ATOM     12  O   LIG    1       -2.208   0.015   0.023  0.00  0.00    -0.480 OA
BRANCH  11  14
ATOM     13  C   LIG    1       -0.018   1.448   0.010  0.00  0.00    +0.280 C 
ATOM     14  O   LIG    1        0.002  -0.004   0.002  0.00  0.00    -0.340 OA
ENDBRANCH  11  14
ENDBRANCH   1  11
BRANCH   6  15
ATOM     15  C   LIG    1       -1.040  -4.211   3.795  0.00  0.00    +0.170 C 
BRANCH  15  16
ATOM     16  O   LIG    1       -0.545  -4.790   5.003  0.00  0.00    -0.560 OA
ATOM     17  H   LIG    1       -1.004  -4.491   5.800  0.00  0.00    +0.380 HD
ENDBRANCH  15  16
ENDBRANCH   6  15
TORSDOF 4
ENDMDL
MODEL     1086
REMARK  Name = ZINC000005063414
REMARK                            x       y       z     vdW  Elec       q    Type
REMARK                         _______ _______ _______ _____ _____    ______ ____
ROOT
ATOM      1  C   LIG    1       -0.969  -4.199   1.433  0.00  0.00    +0.160 C 
ENDROOT
BRANCH   1   2
ATOM      2  O   LIG    1       -2.007  -4.774   0.636  0.00  0.00    -0.530 OA
ATOM      3  H   LIG    1       -2.899  -4.574   0.950  0.00  0.00    +0.370 HD
ENDBRANCH   1   2
BRANCH   1   4
ATOM      4  C   LIG    1       -1.115  -2.676   1.441  0.00  0.00    +0.190 C 
BRANCH   4   5
ATOM      5  O   LIG    1       -2.335  -2.318   2.093  0.00  0.00    -0.550 OA
ATOM      6  H   LIG    1       -3.127  -2.679   1.672  0.00  0.00    +0.370 HD
ENDBRANCH   4   5
BRANCH   4   7
ATOM      7  C   LIG    1       -1.136  -2.159   0.001  0.00  0.00    +0.270 C 
BRANCH   7  10
ATOM      8  C   LIG    1       -0.018   1.503   0.010  0.00  0.00    +0.100 C 
ATOM      9  C   LIG    1        0.002  -0.004   0.002  0.00  0.00    +0.510 C 
ATOM     10  N   LIG    1       -1.156  -0.694   0.009  0.00  0.00    -0.610 N 
ATOM     11  C   LIG    1       -2.434   0.021   0.025  0.00  0.00    +0.290 C 
ATOM     12  O   LIG    1        1.060  -0.596  -0.011  0.00  0.00    -0.550 OA
ENDBRANCH   7  10
ENDBRANCH   4   7
ENDBRANCH   1   4
BRANCH   1  13
ATOM     13  C   LIG    1       -1.073  -4.729   2.865  0.00  0.00    +0.170 C 
BRANCH  13  14
ATOM     14  O   LIG    1       -0.035  -4.155   3.662  0.00  0.00    -0.540 OA
ATOM     15  H   LIG    1        0.857  -4.354   3.348  0.00  0.00    +0.380 HD
ENDBRANCH  13  14
BRANCH  13  16
ATOM     16  C   LIG    1       -0.927  -6.252   2.857  0.00  0.00    +0.180 C 
BRANCH  16  17
ATOM     17  O   LIG    1       -1.964  -6.826   2.060  0.00  0.00    -0.530 OA
ATOM     18  H   LIG    1       -2.857  -6.627   2.373  0.00  0.00    +0.370 HD
ENDBRANCH  16  17
BRANCH  16  19
ATOM     19  C   LIG    1       -1.031  -6.782   4.289  0.00  0.00    +0.150 C 
BRANCH  19  20
ATOM     20  O   LIG    1       -0.779  -8.188   4.296  0.00  0.00    -0.570 OA
ATOM     21  H   LIG    1       -0.828  -8.592   5.173  0.00  0.00    +0.380 HD
ENDBRANCH  19  20
ENDBRANCH  16  19
ENDBRANCH  13  16
ENDBRANCH   1  13
TORSDOF 11
ENDMDL
MODEL     1087
REMARK  Name = ZINC000005063415
REMARK                            x       y       z     vdW  Elec       q    Type
REMARK                         _______ _______ _______ _____ _____    ______ ____
ROOT
ATOM      1  C   LIG    1       -1.095  -4.206   1.433  0.00  0.00    +0.170 C 
ENDROOT
BRANCH   1   2
ATOM      2  O   LIG    1        0.008  -4.663   0.647  0.00  0.00    -0.540 OA
ATOM      3  H   LIG    1        0.870  -4.368   0.970  0.00  0.00    +0.370 HD
ENDBRANCH   1   2
BRANCH   1   4
ATOM      4  C   LIG    1       -1.115  -2.676   1.441  0.00  0.00    +0.170 C 
BRANCH   4   5
ATOM      5  O   LIG    1        0.051  -2.188   2.106  0.00  0.00    -0.530 OA
ATOM      6  H   LIG    1        0.882  -2.460   1.693  0.00  0.00    +0.370 HD
ENDBRANCH   4   5
BRANCH   4   7
ATOM      7  C   LIG    1       -1.136  -2.159   0.001  0.00  0.00    +0.250 C 
BRANCH   7  10
ATOM      8  C   LIG    1       -0.018   1.503   0.010  0.00  0.00    +0.100 C 
ATOM      9  C   LIG    1        0.002  -0.004   0.002  0.00  0.00    +0.520 C 
ATOM     10  N   LIG    1       -1.156  -0.694   0.009  0.00  0.00    -0.620 N 
ATOM     11  C   LIG    1       -2.434   0.021   0.025  0.00  0.00    +0.290 C 
ATOM     12  O   LIG    1        1.060  -0.596  -0.011  0.00  0.00    -0.540 OA
ENDBRANCH   7  10
ENDBRANCH   4   7
ENDBRANCH   1   4
BRANCH   1  13
ATOM     13  C   LIG    1       -0.948  -4.722   2.865  0.00  0.00    +0.160 C 
BRANCH  13  14
ATOM     14  O   LIG    1        0.211  -4.140   3.465  0.00  0.00    -0.530 OA
ATOM     15  H   LIG    1        1.036  -4.342   3.004  0.00  0.00    +0.370 HD
ENDBRANCH  13  14
BRANCH  13  16
ATOM     16  C   LIG    1       -0.802  -6.245   2.847  0.00  0.00    +0.190 C 
BRANCH  16  17
ATOM     17  O   LIG    1       -1.961  -6.827   2.247  0.00  0.00    -0.540 OA
ATOM     18  H   LIG    1       -2.787  -6.625   2.708  0.00  0.00    +0.370 HD
ENDBRANCH  16  17
BRANCH  16  19
ATOM     19  C   LIG    1       -0.656  -6.761   4.280  0.00  0.00    +0.160 C 
BRANCH  19  20
ATOM     20  O   LIG    1       -0.403  -8.167   4.256  0.00  0.00    -0.570 OA
ATOM     21  H   LIG    1       -0.299  -8.563   5.132  0.00  0.00    +0.380 HD
ENDBRANCH  19  20
ENDBRANCH  16  19
ENDBRANCH  13  16
ENDBRANCH   1  13
TORSDOF 11
ENDMDL
MODEL     1088
REMARK  Name = ZINC000005063416
REMARK                            x       y       z     vdW  Elec       q    Type
REMARK                         _______ _______ _______ _____ _____    ______ ____
ROOT
ATOM      1  C   LIG    1       -0.969  -4.199   1.433  0.00  0.00    +0.160 C 
ENDROOT
BRANCH   1   2
ATOM      2  O   LIG    1        0.251  -4.557   0.781  0.00  0.00    -0.540 OA
ATOM      3  H   LIG    1        1.043  -4.197   1.202  0.00  0.00    +0.380 HD
ENDBRANCH   1   2
BRANCH   1   4
ATOM      4  C   LIG    1       -1.115  -2.676   1.441  0.00  0.00    +0.180 C 
BRANCH   4   5
ATOM      5  O   LIG    1       -2.335  -2.318   2.093  0.00  0.00    -0.550 OA
ATOM      6  H   LIG    1       -3.127  -2.679   1.672  0.00  0.00    +0.370 HD
ENDBRANCH   4   5
BRANCH   4   7
ATOM      7  C   LIG    1       -1.136  -2.159   0.001  0.00  0.00    +0.260 C 
BRANCH   7  10
ATOM      8  C   LIG    1       -0.018   1.503   0.010  0.00  0.00    +0.100 C 
ATOM      9  C   LIG    1        0.002  -0.004   0.002  0.00  0.00    +0.510 C 
ATOM     10  N   LIG    1       -1.156  -0.694   0.009  0.00  0.00    -0.610 N 
ATOM     11  C   LIG    1       -2.434   0.021   0.025  0.00  0.00    +0.290 C 
ATOM     12  O   LIG    1        1.060  -0.596  -0.011  0.00  0.00    -0.540 OA
ENDBRANCH   7  10
ENDBRANCH   4   7
ENDBRANCH   1   4
BRANCH   1  13
ATOM     13  C   LIG    1       -0.948  -4.717   2.873  0.00  0.00    +0.160 C 
BRANCH  13  14
ATOM     14  O   LIG    1        0.082  -4.049   3.604  0.00  0.00    -0.540 OA
ATOM     15  H   LIG    1        0.969  -4.179   3.242  0.00  0.00    +0.370 HD
ENDBRANCH  13  14
BRANCH  13  16
ATOM     16  C   LIG    1       -0.677  -6.223   2.869  0.00  0.00    +0.190 C 
BRANCH  16  17
ATOM     17  O   LIG    1       -1.707  -6.891   2.138  0.00  0.00    -0.540 OA
ATOM     18  H   LIG    1       -2.594  -6.761   2.500  0.00  0.00    +0.370 HD
ENDBRANCH  16  17
BRANCH  16  19
ATOM     19  C   LIG    1       -0.656  -6.740   4.309  0.00  0.00    +0.150 C 
BRANCH  19  20
ATOM     20  O   LIG    1       -0.289  -8.121   4.313  0.00  0.00    -0.570 OA
ATOM     21  H   LIG    1       -0.255  -8.517   5.195  0.00  0.00    +0.380 HD
ENDBRANCH  19  20
ENDBRANCH  16  19
ENDBRANCH  13  16
ENDBRANCH   1  13
TORSDOF 11
ENDMDL
MODEL     1089
REMARK  Name = ZINC000005063411
REMARK                            x       y       z     vdW  Elec       q    Type
REMARK                         _______ _______ _______ _____ _____    ______ ____
ROOT
ATOM      1  C   LIG    1        0.746  -1.888  -1.280  0.00  0.00    +0.290 C 
ATOM      2  O   LIG    1       -0.549  -2.436  -1.609  0.00  0.00    -0.380 OA
ATOM      3  C   LIG    1       -0.279  -3.741  -2.167  0.00  0.00    +0.160 C 
ATOM      4  C   LIG    1        0.968  -3.539  -3.057  0.00  0.00    +0.180 C 
ATOM      5  C   LIG    1        1.660  -2.292  -2.458  0.00  0.00    +0.140 C 
ENDROOT
BRANCH   4   6
ATOM      6  O   LIG    1        0.583  -3.300  -4.412  0.00  0.00    -0.510 OA
ATOM      7  H   LIG    1        1.327  -3.167  -5.015  0.00  0.00    +0.380 HD
ENDBRANCH   4   6
BRANCH   5   8
ATOM      8  O   LIG    1        2.970  -2.622  -1.993  0.00  0.00    -0.550 OA
ATOM      9  H   LIG    1        3.450  -1.876  -1.607  0.00  0.00    +0.390 HD
ENDBRANCH   5   8
BRANCH   1  10
ATOM     10  O   LIG    1        0.671  -0.465  -1.174  0.00  0.00    -0.370 OA
BRANCH  10  12
ATOM     11  C   LIG    1       -0.019   1.526   0.010  0.00  0.00    +0.050 C 
ATOM     12  C   LIG    1        0.002  -0.004   0.002  0.00  0.00    +0.170 C 
ENDBRANCH  10  12
ENDBRANCH   1  10
BRANCH   3  13
ATOM     13  C   LIG    1       -1.465  -4.216  -3.009  0.00  0.00    +0.250 C 
BRANCH  13  14
ATOM     14  O   LIG    1       -1.643  -3.337  -4.122  0.00  0.00    -0.520 OA
ATOM     15  H   LIG    1       -1.818  -2.419  -3.874  0.00  0.00    +0.370 HD
ENDBRANCH  13  14
BRANCH  13  16
ATOM     16  C   LIG    1       -2.732  -4.215  -2.151  0.00  0.00    +0.150 C 
BRANCH  16  17
ATOM     17  O   LIG    1       -3.816  -4.768  -2.900  0.00  0.00    -0.560 OA
ATOM     18  H   LIG    1       -4.653  -4.798  -2.417  0.00  0.00    +0.380 HD
ENDBRANCH  16  17
ENDBRANCH  13  16
ENDBRANCH   3  13
TORSDOF 8
ENDMDL
MODEL     1090
REMARK  Name = ZINC000217410768
REMARK                            x       y       z     vdW  Elec       q    Type
REMARK                         _______ _______ _______ _____ _____    ______ ____
ROOT
ATOM      1  N   LIG    1        1.125   3.299   0.009  0.00  0.00    -0.430 N 
ATOM      2  C   LIG    1        0.817   4.134  -1.031  0.00  0.00    +0.710 C 
ATOM      3  N   LIG    1        0.604   5.422  -0.625  0.00  0.00    -0.710 N 
ATOM      4  H   LIG    1        0.566   6.215  -1.183  0.00  0.00    +0.440 HD
ATOM      5  C   LIG    1        0.448   5.353   0.810  0.00  0.00    +0.220 C 
ATOM      6  C   LIG    1        0.929   6.453   1.745  0.00  0.00    -0.270 C 
ATOM      7  S   LIG    1        1.074   5.516   3.330  0.00  0.00    +2.400 S 
ATOM      8  C   LIG    1        1.303   3.852   2.570  0.00  0.00    -0.280 C 
ATOM      9  O   LIG    1       -0.169   5.558   4.019  0.00  0.00    -0.910 OA
ATOM     10  O   LIG    1        2.268   5.899   3.998  0.00  0.00    -0.910 OA
ATOM     11  O   LIG    1        0.740   3.770  -2.188  0.00  0.00    -0.530 OA
ATOM     12  C   LIG    1        1.417   4.169   1.109  0.00  0.00    +0.210 C 
ENDROOT
BRANCH   1  15
ATOM     13  O   LIG    1        0.002  -0.004   0.002  0.00  0.00    -0.520 OA
ATOM     14  C   LIG    1       -0.014   1.209   0.009  0.00  0.00    +0.650 C 
ATOM     15  N   LIG    1        1.143   1.898   0.001  0.00  0.00    -0.490 N 
ATOM     16  H   LIG    1        1.990   1.425  -0.009  0.00  0.00    +0.420 HD
ENDBRANCH   1  15
TORSDOF 1
ENDMDL
MODEL     1091
REMARK  Name = ZINC000257254795
REMARK                            x       y       z     vdW  Elec       q    Type
REMARK                         _______ _______ _______ _____ _____    ______ ____
ROOT
ATOM      1  C   LIG    1       -1.312  -2.034  -0.243  0.00  0.00    +0.510 C 
ATOM      2  N   LIG    1       -2.453  -2.750  -0.279  0.00  0.00    -0.600 N 
ATOM      3  C   LIG    1       -3.735  -2.047  -0.070  0.00  0.00    +0.270 C 
ATOM      4  C   LIG    1       -4.819  -2.543  -1.045  0.00  0.00    +0.180 C 
ATOM      5  N   LIG    1       -4.236  -2.756  -2.353  0.00  0.00    -0.540 NA
ATOM      6  C   LIG    1       -3.830  -4.151  -2.516  0.00  0.00    +0.180 C 
ATOM      7  C   LIG    1       -2.464  -4.447  -2.043  0.00  0.00    -0.010 C 
ATOM      8  C   LIG    1       -5.166  -2.351  -3.416  0.00  0.00    +0.200 C 
ATOM      9  C   LIG    1       -2.368  -4.173  -0.526  0.00  0.00    +0.320 C 
ATOM     10  O   LIG    1       -0.245  -2.583  -0.416  0.00  0.00    -0.520 OA
ENDROOT
BRANCH   7  11
ATOM     11  C   LIG    1       -2.143  -5.895  -2.313  0.00  0.00    +0.530 C 
ATOM     12  O   LIG    1       -1.870  -6.637  -1.393  0.00  0.00    -0.540 OA
ATOM     13  N   LIG    1       -2.160  -6.365  -3.576  0.00  0.00    -0.850 N 
ATOM     14  H   LIG    1       -1.953  -7.296  -3.749  0.00  0.00    +0.400 HD
ATOM     15  H   LIG    1       -2.378  -5.771  -4.311  0.00  0.00    +0.400 HD
ENDBRANCH   7  11
BRANCH   1  16
ATOM     16  C   LIG    1       -1.362  -0.549   0.012  0.00  0.00    +0.210 C 
BRANCH  16  18
ATOM     17  C   LIG    1       -0.018   1.465   0.010  0.00  0.00    +0.190 C 
ATOM     18  N   LIG    1        0.002  -0.004   0.002  0.00  0.00    -0.530 NA
ATOM     19  C   LIG    1        0.786  -0.526   1.129  0.00  0.00    +0.200 C 
ENDBRANCH  16  18
ENDBRANCH   1  16
TORSDOF 3
ENDMDL
MODEL     1092
REMARK  Name = ZINC000005082135
REMARK                            x       y       z     vdW  Elec       q    Type
REMARK                         _______ _______ _______ _____ _____    ______ ____
ROOT
ATOM      1  C   LIG    1        0.002  -0.004   0.002  0.00  0.00    +0.450 A 
ATOM      2  C   LIG    1       -1.185  -0.718   0.004  0.00  0.00    -0.250 A 
ATOM      3  C   LIG    1       -1.122  -2.118  -0.004  0.00  0.00    +0.540 A 
ATOM      4  N   LIG    1        0.089  -2.713  -0.013  0.00  0.00    -0.530 N 
ATOM      5  C   LIG    1        1.213  -1.968  -0.014  0.00  0.00    +0.630 A 
ATOM      6  O   LIG    1       -2.143  -2.786  -0.003  0.00  0.00    -0.550 OA
ATOM      7  N   LIG    1        1.171  -0.664  -0.013  0.00  0.00    -0.570 NA
ENDROOT
BRANCH   4   8
ATOM      8  C1* LIG    1        0.183  -4.175  -0.022  0.00  0.00    +0.410 C 
ATOM      9  C2* LIG    1        0.857  -4.662  -1.329  0.00  0.00    +0.010 C 
ATOM     10  C3* LIG    1        1.427  -6.033  -0.874  0.00  0.00    +0.170 C 
ATOM     11  C4* LIG    1        1.805  -5.759   0.597  0.00  0.00    +0.200 C 
ATOM     12  O4* LIG    1        1.044  -4.625   1.036  0.00  0.00    -0.360 OA
BRANCH  10  13
ATOM     13  O3* LIG    1        0.430  -7.054  -0.965  0.00  0.00    -0.550 OA
ATOM     14  H3* LIG    1        0.099  -7.201  -1.862  0.00  0.00    +0.390 HD
ENDBRANCH  10  13
BRANCH  11  15
ATOM     15  C5* LIG    1        1.463  -6.977   1.457  0.00  0.00    +0.200 C 
BRANCH  15  16
ATOM     16  O5* LIG    1        1.921  -6.761   2.793  0.00  0.00    -0.570 OA
ATOM     17  H5* LIG    1        1.738  -7.495   3.396  0.00  0.00    +0.380 HD
ENDBRANCH  15  16
ENDBRANCH  11  15
ENDBRANCH   4   8
BRANCH   1  18
ATOM     18  N   LIG    1       -0.017   1.376   0.010  0.00  0.00    -0.830 N 
ATOM     19  H   LIG    1       -0.863   1.849   0.016  0.00  0.00    +0.420 HD
ATOM     20  H   LIG    1        0.817   1.872   0.004  0.00  0.00    +0.410 HD
ENDBRANCH   1  18
TORSDOF 5
ENDMDL
MODEL     1093
REMARK  Name = ZINC000005115824
REMARK                            x       y       z     vdW  Elec       q    Type
REMARK                         _______ _______ _______ _____ _____    ______ ____
ROOT
ATOM      1  CA  HIS A  2        2.727  -0.647   2.613  0.00  0.00    +0.180 C 
ENDROOT
BRANCH   1   3
ATOM      2  C   ALA A  1        0.731  -0.503   1.223  0.00  0.00    +0.500 C 
ATOM      3  N   HIS A  2        2.019  -0.161   1.426  0.00  0.00    -0.650 N 
ATOM      4  H   HIS A  2        2.476   0.406   0.786  0.00  0.00    +0.400 HD
ATOM      5  O   ALA A  1        0.159  -1.213   2.023  0.00  0.00    -0.540 OA
BRANCH   2   7
ATOM      6  CB  ALA A  1       -0.019   1.526   0.010  0.00  0.00    +0.110 C 
ATOM      7  CA  ALA A  1        0.002  -0.004   0.002  0.00  0.00    +0.170 C 
BRANCH   7   8
ATOM      8  N   ALA A  1       -1.376  -0.512   0.012  0.00  0.00    -0.620 N 
ATOM      9  H1  ALA A  1       -1.848  -0.187   0.843  0.00  0.00    +0.440 HD
ATOM     10  H2  ALA A  1       -1.362  -1.521   0.007  0.00  0.00    +0.440 HD
ATOM     11  H3  ALA A  1       -1.864  -0.178  -0.805  0.00  0.00    +0.430 HD
ENDBRANCH   7   8
ENDBRANCH   2   7
ENDBRANCH   1   3
BRANCH   1  12
ATOM     12  C   HIS A  2        2.451   0.273   3.774  0.00  0.00    +0.490 C 
ATOM     13  OXT HIS A  2        2.949   0.046   4.863  0.00  0.00    -0.680 OA
ATOM     14  O   HIS A  2        1.729   1.244   3.624  0.00  0.00    -0.690 OA
ENDBRANCH   1  12
BRANCH   1  15
ATOM     15  CB  HIS A  2        4.231  -0.676   2.332  0.00  0.00    +0.150 C 
BRANCH  15  16
ATOM     16  CG  HIS A  2        4.521  -1.688   1.253  0.00  0.00    +0.010 A 
ATOM     17  CD2 HIS A  2        5.184  -1.452   0.105  0.00  0.00    +0.110 A 
ATOM     18  NE2 HIS A  2        5.223  -2.636  -0.580  0.00  0.00    -0.570 N 
ATOM     19  HE2 HIS A  2        5.634  -2.787  -1.446  0.00  0.00    +0.420 HD
ATOM     20  CE1 HIS A  2        4.582  -3.555   0.174  0.00  0.00    +0.390 A 
ATOM     21  ND1 HIS A  2        4.170  -2.982   1.271  0.00  0.00    -0.480 NA
ENDBRANCH  15  16
ENDBRANCH   1  15
TORSDOF 6
ENDMDL
MODEL     1094
REMARK  Name = ZINC000005121079
REMARK                            x       y       z     vdW  Elec       q    Type
REMARK                         _______ _______ _______ _____ _____    ______ ____
ROOT
ATOM      1  C1* LIG    1        2.406   1.113  -0.006  0.00  0.00    +0.440 C 
ATOM      2  O4* LIG    1        3.537   2.010   0.046  0.00  0.00    -0.350 OA
ATOM      3  C4* LIG    1        4.638   1.207   0.526  0.00  0.00    +0.140 C 
ATOM      4  C3* LIG    1        4.025   0.318   1.631  0.00  0.00    +0.130 C 
ATOM      5  C2* LIG    1        2.522   0.253   1.271  0.00  0.00    +0.160 C 
ENDROOT
BRANCH   1  13
ATOM      6  O   LIG    1        0.002  -0.004   0.002  0.00  0.00    -0.570 OA
ATOM      7  C   LIG    1       -0.014   1.212   0.009  0.00  0.00    +0.710 C 
ATOM      8  N   LIG    1       -1.200   1.840   0.029  0.00  0.00    -0.740 N 
ATOM      9  H   LIG    1       -2.015   1.315   0.045  0.00  0.00    +0.420 HD
ATOM     10  C   LIG    1       -1.287   3.301   0.026  0.00  0.00    +0.260 C 
ATOM     11  C   LIG    1       -0.041   3.881   0.704  0.00  0.00    +0.030 C 
ATOM     12  C   LIG    1        1.201   3.335  -0.009  0.00  0.00    +0.270 C 
ATOM     13  N   LIG    1        1.153   1.872   0.001  0.00  0.00    -0.620 N 
ENDBRANCH   1  13
BRANCH   4  14
ATOM     14  O3* LIG    1        4.211   0.916   2.916  0.00  0.00    -0.550 OA
ATOM     15  H3* LIG    1        5.138   1.033   3.164  0.00  0.00    +0.380 HD
ENDBRANCH   4  14
BRANCH   5  16
ATOM     16  O2* LIG    1        2.127  -1.096   1.012  0.00  0.00    -0.520 OA
ATOM     17  H2* LIG    1        2.237  -1.690   1.767  0.00  0.00    +0.380 HD
ENDBRANCH   5  16
BRANCH   3  18
ATOM     18  C5* LIG    1        5.736   2.100   1.106  0.00  0.00    +0.210 C 
BRANCH  18  19
ATOM     19  O5* LIG    1        6.317   2.880   0.060  0.00  0.00    -0.560 OA
ATOM     20  H5* LIG    1        7.023   3.472   0.355  0.00  0.00    +0.380 HD
ENDBRANCH  18  19
ENDBRANCH   3  18
TORSDOF 5
ENDMDL
MODEL     1095
REMARK  Name = ZINC000005121078
REMARK                            x       y       z     vdW  Elec       q    Type
REMARK                         _______ _______ _______ _____ _____    ______ ____
ROOT
ATOM      1  C1* LIG    1        2.406   1.113  -0.006  0.00  0.00    +0.430 C 
ATOM      2  O4* LIG    1        3.537   2.010   0.046  0.00  0.00    -0.350 OA
ATOM      3  C4* LIG    1        4.638   1.207   0.526  0.00  0.00    +0.140 C 
ATOM      4  C3* LIG    1        4.025   0.318   1.631  0.00  0.00    +0.120 C 
ATOM      5  C2* LIG    1        2.522   0.253   1.271  0.00  0.00    +0.170 C 
ENDROOT
BRANCH   1  13
ATOM      6  O   LIG    1        0.002  -0.004   0.002  0.00  0.00    -0.600 OA
ATOM      7  C   LIG    1       -0.014   1.212   0.009  0.00  0.00    +0.730 C 
ATOM      8  N   LIG    1       -1.200   1.840   0.029  0.00  0.00    -0.730 N 
ATOM      9  H   LIG    1       -2.015   1.315   0.045  0.00  0.00    +0.420 HD
ATOM     10  C   LIG    1       -1.287   3.301   0.026  0.00  0.00    +0.250 C 
ATOM     11  C   LIG    1       -0.041   3.881   0.704  0.00  0.00    +0.030 C 
ATOM     12  C   LIG    1        1.201   3.335  -0.009  0.00  0.00    +0.270 C 
ATOM     13  N   LIG    1        1.153   1.872   0.001  0.00  0.00    -0.600 N 
ENDBRANCH   1  13
BRANCH   4  14
ATOM     14  O3* LIG    1        4.211   0.916   2.916  0.00  0.00    -0.540 OA
ATOM     15  H3* LIG    1        5.138   1.033   3.164  0.00  0.00    +0.380 HD
ENDBRANCH   4  14
BRANCH   5  16
ATOM     16  O2* LIG    1        1.730   0.808   2.324  0.00  0.00    -0.530 OA
ATOM     17  H2* LIG    1        1.814   0.342   3.167  0.00  0.00    +0.380 HD
ENDBRANCH   5  16
BRANCH   3  18
ATOM     18  C5* LIG    1        5.736   2.100   1.106  0.00  0.00    +0.210 C 
BRANCH  18  19
ATOM     19  O5* LIG    1        6.317   2.880   0.060  0.00  0.00    -0.560 OA
ATOM     20  H5* LIG    1        7.023   3.472   0.355  0.00  0.00    +0.380 HD
ENDBRANCH  18  19
ENDBRANCH   3  18
TORSDOF 5
ENDMDL
MODEL     1096
REMARK  Name = ZINC000005105863
REMARK                            x       y       z     vdW  Elec       q    Type
REMARK                         _______ _______ _______ _____ _____    ______ ____
ROOT
ATOM      1  N   LIG    1       -1.585   4.978   0.062  0.00  0.00    -0.450 N 
ATOM      2  C   LIG    1       -2.540   5.768   0.630  0.00  0.00    +0.460 A 
ATOM      3  N   LIG    1       -2.240   7.022   0.447  0.00  0.00    -0.420 NA
ATOM      4  C   LIG    1       -1.081   7.109  -0.245  0.00  0.00    -0.100 A 
ATOM      5  C   LIG    1       -0.290   8.184  -0.721  0.00  0.00    +0.570 A 
ATOM      6  O   LIG    1       -0.626   9.341  -0.529  0.00  0.00    -0.500 OA
ATOM      7  N   LIG    1        0.842   7.894  -1.401  0.00  0.00    -0.640 N 
ATOM      8  H   LIG    1        1.399   8.612  -1.739  0.00  0.00    +0.430 HD
ATOM      9  C   LIG    1        1.206   6.603  -1.608  0.00  0.00    +0.620 A 
ATOM     10  N   LIG    1        0.492   5.602  -1.173  0.00  0.00    -0.530 NA
ATOM     11  C   LIG    1       -0.646   5.803  -0.494  0.00  0.00    +0.250 A 
ENDROOT
BRANCH   1  12
ATOM     12  C   LIG    1       -1.565   3.513   0.054  0.00  0.00    +0.300 C 
BRANCH  12  13
ATOM     13  C   LIG    1       -0.720   3.008   1.225  0.00  0.00    +0.070 C 
BRANCH  13  14
ATOM     14  CA  LIG    1       -0.699   1.479   1.216  0.00  0.00    +0.100 C 
BRANCH  14  15
ATOM     15  N   LIG    1       -0.012   1.005   0.008  0.00  0.00    -0.620 N 
ATOM     16  H1  LIG    1       -0.500   1.339  -0.810  0.00  0.00    +0.410 HD
ATOM     17  H2  LIG    1        0.935   1.354   0.000  0.00  0.00    +0.440 HD
ATOM     18  H3  LIG    1        0.002  -0.004   0.002  0.00  0.00    +0.430 HD
ENDBRANCH  14  15
BRANCH  14  19
ATOM     19  C   LIG    1        0.030   0.979   2.437  0.00  0.00    +0.490 C 
ATOM     20  OXT LIG    1       -0.585   0.762   3.467  0.00  0.00    -0.630 OA
ATOM     21  O   LIG    1        1.234   0.793   2.394  0.00  0.00    -0.660 OA
ENDBRANCH  14  19
ENDBRANCH  13  14
ENDBRANCH  12  13
ENDBRANCH   1  12
TORSDOF 5
ENDMDL
MODEL     1097
REMARK  Name = ZINC000005124771
REMARK                            x       y       z     vdW  Elec       q    Type
REMARK                         _______ _______ _______ _____ _____    ______ ____
ROOT
ATOM      1  C   LIG    1       -1.354  -0.434  -0.020  0.00  0.00    +0.340 C 
ATOM      2  O   LIG    1       -1.964  -0.271  -1.296  0.00  0.00    -0.360 OA
ATOM      3  C   LIG    1       -1.371  -0.981  -2.402  0.00  0.00    +0.240 C 
ATOM      4  C   LIG    1       -1.405  -2.444  -2.021  0.00  0.00    +0.150 C 
ATOM      5  O   LIG    1       -0.824  -3.438  -2.884  0.00  0.00    -0.310 OA
ATOM      6  C   LIG    1       -0.463  -4.453  -2.047  0.00  0.00    +0.650 C 
ATOM      7  N   LIG    1       -0.231  -4.013  -0.779  0.00  0.00    -0.720 N 
ATOM      8  H   LIG    1        0.047  -4.552  -0.022  0.00  0.00    +0.440 HD
ATOM      9  O   LIG    1       -0.361  -5.613  -2.392  0.00  0.00    -0.500 OA
ATOM     10  C   LIG    1       -0.479  -2.588  -0.778  0.00  0.00    +0.200 C 
ATOM     11  C   LIG    1       -1.198  -1.918   0.366  0.00  0.00    +0.190 C 
ENDROOT
BRANCH   1  13
ATOM     12  C   LIG    1       -0.095   1.602  -0.136  0.00  0.00    +0.230 C 
ATOM     13  O   LIG    1       -0.062   0.177  -0.043  0.00  0.00    -0.400 OA
ENDBRANCH   1  13
BRANCH  11  14
ATOM     14  O   LIG    1       -2.482  -2.515   0.553  0.00  0.00    -0.540 OA
ATOM     15  H   LIG    1       -2.994  -2.127   1.276  0.00  0.00    +0.390 HD
ENDBRANCH  11  14
BRANCH   3  16
ATOM     16  C   LIG    1        0.074  -0.522  -2.611  0.00  0.00    +0.170 C 
BRANCH  16  17
ATOM     17  O   LIG    1        0.084   0.847  -3.021  0.00  0.00    -0.560 OA
ATOM     18  H   LIG    1        0.969   1.206  -3.171  0.00  0.00    +0.380 HD
ENDBRANCH  16  17
ENDBRANCH   3  16
TORSDOF 4
ENDMDL
MODEL     1098
REMARK  Name = ZINC000005124772
REMARK                            x       y       z     vdW  Elec       q    Type
REMARK                         _______ _______ _______ _____ _____    ______ ____
ROOT
ATOM      1  C   LIG    1       -1.289  -0.450   0.058  0.00  0.00    +0.300 C 
ATOM      2  O   LIG    1       -1.980  -0.191   1.275  0.00  0.00    -0.370 OA
ATOM      3  C   LIG    1       -3.227  -0.887   1.481  0.00  0.00    +0.270 C 
ATOM      4  C   LIG    1       -2.897  -2.361   1.403  0.00  0.00    +0.160 C 
ATOM      5  O   LIG    1       -3.938  -3.348   1.501  0.00  0.00    -0.310 OA
ATOM      6  C   LIG    1       -3.462  -4.421   0.805  0.00  0.00    +0.650 C 
ATOM      7  N   LIG    1       -2.559  -4.054  -0.146  0.00  0.00    -0.710 N 
ATOM      8  H   LIG    1       -2.099  -4.643  -0.766  0.00  0.00    +0.440 HD
ATOM      9  O   LIG    1       -3.804  -5.569   1.009  0.00  0.00    -0.490 OA
ATOM     10  C   LIG    1       -2.413  -2.617  -0.054  0.00  0.00    +0.190 C 
ATOM     11  C   LIG    1       -1.062  -1.956  -0.175  0.00  0.00    +0.180 C 
ENDROOT
BRANCH   1  13
ATOM     12  C   LIG    1       -0.108   1.634   0.165  0.00  0.00    +0.230 C 
ATOM     13  O   LIG    1       -0.021   0.209   0.097  0.00  0.00    -0.370 OA
ENDBRANCH   1  13
BRANCH  11  14
ATOM     14  O   LIG    1       -0.171  -2.479   0.812  0.00  0.00    -0.540 OA
ATOM     15  H   LIG    1        0.715  -2.094   0.786  0.00  0.00    +0.400 HD
ENDBRANCH  11  14
BRANCH   3  16
ATOM     16  C   LIG    1       -4.229  -0.510   0.387  0.00  0.00    +0.160 C 
BRANCH  16  17
ATOM     17  O   LIG    1       -4.577   0.870   0.516  0.00  0.00    -0.560 OA
ATOM     18  H   LIG    1       -5.210   1.179  -0.147  0.00  0.00    +0.390 HD
ENDBRANCH  16  17
ENDBRANCH   3  16
TORSDOF 4
ENDMDL
MODEL     1099
REMARK  Name = ZINC000257264339
REMARK                            x       y       z     vdW  Elec       q    Type
REMARK                         _______ _______ _______ _____ _____    ______ ____
ROOT
ATOM      1  C   LIG    1       -0.018   1.461   0.010  0.00  0.00    +0.290 C 
ATOM      2  N   LIG    1        0.002  -0.004   0.002  0.00  0.00    -0.610 N 
ATOM      3  C   LIG    1        0.005  -0.647  -1.172  0.00  0.00    +0.490 C 
ATOM      4  C   LIG    1        0.088  -2.143  -1.284  0.00  0.00    +0.270 C 
ATOM      5  O   LIG    1       -0.165  -2.747  -0.011  0.00  0.00    -0.360 OA
ATOM      6  C   LIG    1        0.570  -2.129   1.046  0.00  0.00    +0.150 C 
ATOM      7  C   LIG    1        0.495  -2.954   2.323  0.00  0.00    +0.060 C 
ATOM      8  C   LIG    1       -0.955  -3.037   2.809  0.00  0.00    +0.310 C 
ATOM      9  N   LIG    1       -1.477  -1.669   2.940  0.00  0.00    -1.000 NA
ATOM     10  C   LIG    1       -1.413  -0.783   1.772  0.00  0.00    +0.300 C 
ATOM     11  O   LIG    1       -0.062   0.007  -2.191  0.00  0.00    -0.530 OA
ATOM     12  C   LIG    1        0.024  -0.723   1.281  0.00  0.00    +0.200 C 
ENDROOT
BRANCH   9  13
ATOM     13  S   LIG    1       -2.122  -1.140   4.370  0.00  0.00    +2.610 S 
ATOM     14  O   LIG    1       -2.581  -2.324   5.007  0.00  0.00    -0.950 OA
ATOM     15  O   LIG    1       -3.029  -0.115   3.988  0.00  0.00    -0.950 OA
ATOM     16  C   LIG    1       -0.712  -0.438   5.271  0.00  0.00    -0.280 C 
ENDBRANCH   9  13
TORSDOF 1
ENDMDL
MODEL     1100
REMARK  Name = ZINC000005160447
REMARK                            x       y       z     vdW  Elec       q    Type
REMARK                         _______ _______ _______ _____ _____    ______ ____
ROOT
ATOM      1  C   LIG    1        0.657  -2.104  -1.120  0.00  0.00    +0.310 C 
ENDROOT
BRANCH   1   2
ATOM      2  N   LIG    1        1.354  -2.503  -2.345  0.00  0.00    -0.730 N 
ATOM      3  H   LIG    1        1.372  -1.906  -3.109  0.00  0.00    +0.420 HD
ATOM      4  C   LIG    1        1.970  -3.700  -2.411  0.00  0.00    +0.530 C 
ATOM      5  O   LIG    1        1.948  -4.446  -1.455  0.00  0.00    -0.540 OA
ATOM      6  C   LIG    1        2.686  -4.110  -3.671  0.00  0.00    +0.120 C 
ENDBRANCH   1   2
BRANCH   1   7
ATOM      7  C   LIG    1        0.598  -0.600  -1.043  0.00  0.00    +0.470 C 
ATOM      8  O   LIG    1        1.088   0.070  -1.921  0.00  0.00    -0.490 OA
BRANCH   7  10
ATOM      9  C   LIG    1       -0.018   1.448   0.010  0.00  0.00    +0.280 C 
ATOM     10  O   LIG    1        0.002  -0.004   0.002  0.00  0.00    -0.350 OA
ENDBRANCH   7  10
ENDBRANCH   1   7
BRANCH   1  11
ATOM     11  C   LIG    1       -0.764  -2.670  -1.133  0.00  0.00    -0.360 C 
BRANCH  11  12
ATOM     12  S   LIG    1       -0.693  -4.482  -1.077  0.00  0.00    +2.640 S 
ATOM     13  O   LIG    1       -0.211  -4.923   0.185  0.00  0.00    -0.940 OA
ATOM     14  O   LIG    1       -0.157  -4.998  -2.287  0.00  0.00    -0.950 OA
BRANCH  12  15
ATOM     15  N   LIG    1       -2.279  -4.958  -1.096  0.00  0.00    -1.260 NA
ATOM     16  H   LIG    1       -2.503  -5.901  -1.072  0.00  0.00    +0.420 HD
ATOM     17  H   LIG    1       -2.985  -4.293  -1.132  0.00  0.00    +0.410 HD
ENDBRANCH  12  15
ENDBRANCH  11  12
ENDBRANCH   1  11
TORSDOF 6
ENDMDL
MODEL     1101
REMARK  Name = ZINC000257254794
REMARK                            x       y       z     vdW  Elec       q    Type
REMARK                         _______ _______ _______ _____ _____    ______ ____
ROOT
ATOM      1  C   LIG    1       -1.312  -2.034  -0.243  0.00  0.00    +0.510 C 
ATOM      2  N   LIG    1       -2.453  -2.750  -0.279  0.00  0.00    -0.600 N 
ATOM      3  C   LIG    1       -3.735  -2.047  -0.070  0.00  0.00    +0.270 C 
ATOM      4  C   LIG    1       -4.683  -2.855   0.837  0.00  0.00    +0.180 C 
ATOM      5  N   LIG    1       -3.928  -3.462   1.913  0.00  0.00    -0.540 NA
ATOM      6  C   LIG    1       -3.535  -4.826   1.560  0.00  0.00    +0.180 C 
ATOM      7  C   LIG    1       -2.257  -4.923   0.831  0.00  0.00    -0.010 C 
ATOM      8  C   LIG    1       -4.690  -3.441   3.168  0.00  0.00    +0.200 C 
ATOM      9  C   LIG    1       -2.368  -4.173  -0.526  0.00  0.00    +0.320 C 
ATOM     10  O   LIG    1       -0.245  -2.583  -0.416  0.00  0.00    -0.520 OA
ENDROOT
BRANCH   7  11
ATOM     11  C   LIG    1       -1.934  -6.373   0.574  0.00  0.00    +0.530 C 
ATOM     12  O   LIG    1       -1.810  -6.774  -0.563  0.00  0.00    -0.530 OA
ATOM     13  N   LIG    1       -1.785  -7.223   1.609  0.00  0.00    -0.850 N 
ATOM     14  H   LIG    1       -1.577  -8.156   1.444  0.00  0.00    +0.400 HD
ATOM     15  H   LIG    1       -1.885  -6.902   2.519  0.00  0.00    +0.400 HD
ENDBRANCH   7  11
BRANCH   1  16
ATOM     16  C   LIG    1       -1.362  -0.549   0.012  0.00  0.00    +0.210 C 
BRANCH  16  18
ATOM     17  C   LIG    1       -0.018   1.465   0.010  0.00  0.00    +0.190 C 
ATOM     18  N   LIG    1        0.002  -0.004   0.002  0.00  0.00    -0.530 NA
ATOM     19  C   LIG    1        0.786  -0.526   1.129  0.00  0.00    +0.200 C 
ENDBRANCH  16  18
ENDBRANCH   1  16
TORSDOF 3
ENDMDL
MODEL     1102
REMARK  Name = ZINC000005202049
REMARK                            x       y       z     vdW  Elec       q    Type
REMARK                         _______ _______ _______ _____ _____    ______ ____
ROOT
ATOM      1  C   LIG    1        0.652  -0.570  -1.138  0.00  0.00    +0.320 C 
ATOM      2  O   LIG    1       -0.088  -0.241  -2.318  0.00  0.00    -0.370 OA
ATOM      3  C   LIG    1       -1.430  -0.723  -2.296  0.00  0.00    +0.120 C 
ATOM      4  C   LIG    1       -2.189  -0.305  -3.557  0.00  0.00    +0.250 C 
ATOM      5  O   LIG    1       -3.489  -0.906  -3.519  0.00  0.00    -0.380 OA
ATOM      6  C   LIG    1       -3.478  -2.330  -3.412  0.00  0.00    +0.410 C 
ATOM      7  O   LIG    1       -2.754  -2.730  -2.243  0.00  0.00    -0.370 OA
ATOM      8  C   LIG    1       -1.407  -2.255  -2.232  0.00  0.00    +0.150 C 
ATOM      9  C   LIG    1       -0.684  -2.676  -0.953  0.00  0.00    +0.210 C 
ATOM     10  C   LIG    1        0.727  -2.090  -0.977  0.00  0.00    +0.150 C 
ENDROOT
BRANCH   1  12
ATOM     11  C   LIG    1       -0.017   1.425   0.010  0.00  0.00    +0.220 C 
ATOM     12  O   LIG    1        0.002  -0.004   0.002  0.00  0.00    -0.390 OA
ENDBRANCH   1  12
BRANCH   9  13
ATOM     13  O   LIG    1       -0.613  -4.102  -0.888  0.00  0.00    -0.550 OA
ATOM     14  H   LIG    1       -0.166  -4.439  -0.100  0.00  0.00    +0.390 HD
ENDBRANCH   9  13
BRANCH  10  15
ATOM     15  O   LIG    1        1.392  -2.401   0.249  0.00  0.00    -0.550 OA
ATOM     16  H   LIG    1        2.295  -2.059   0.305  0.00  0.00    +0.390 HD
ENDBRANCH  10  15
TORSDOF 3
ENDMDL
MODEL     1103
REMARK  Name = ZINC000005202047
REMARK                            x       y       z     vdW  Elec       q    Type
REMARK                         _______ _______ _______ _____ _____    ______ ____
ROOT
ATOM      1  C   LIG    1        0.652  -0.570  -1.138  0.00  0.00    +0.300 C 
ATOM      2  O   LIG    1        2.059  -0.319  -1.057  0.00  0.00    -0.380 OA
ATOM      3  C   LIG    1        2.790  -0.837  -2.165  0.00  0.00    +0.130 C 
ATOM      4  C   LIG    1        4.278  -0.500  -2.053  0.00  0.00    +0.260 C 
ATOM      5  O   LIG    1        4.966  -1.136  -3.138  0.00  0.00    -0.380 OA
ATOM      6  C   LIG    1        4.794  -2.553  -3.196  0.00  0.00    +0.420 C 
ATOM      7  O   LIG    1        3.401  -2.876  -3.284  0.00  0.00    -0.370 OA
ATOM      8  C   LIG    1        2.640  -2.363  -2.191  0.00  0.00    +0.140 C 
ATOM      9  C   LIG    1        1.158  -2.703  -2.343  0.00  0.00    +0.210 C 
ATOM     10  C   LIG    1        0.393  -2.078  -1.173  0.00  0.00    +0.150 C 
ENDROOT
BRANCH   1  12
ATOM     11  C   LIG    1       -0.017   1.425   0.010  0.00  0.00    +0.230 C 
ATOM     12  O   LIG    1        0.002  -0.004   0.002  0.00  0.00    -0.370 OA
ENDBRANCH   1  12
BRANCH   9  13
ATOM     13  O   LIG    1        0.986  -4.121  -2.328  0.00  0.00    -0.540 OA
ATOM     14  H   LIG    1        0.067  -4.407  -2.420  0.00  0.00    +0.390 HD
ENDBRANCH   9  13
BRANCH  10  15
ATOM     15  O   LIG    1       -1.006  -2.311  -1.340  0.00  0.00    -0.550 OA
ATOM     16  H   LIG    1       -1.554  -1.942  -0.634  0.00  0.00    +0.400 HD
ENDBRANCH  10  15
TORSDOF 3
ENDMDL
MODEL     1104
REMARK  Name = ZINC000001586280
REMARK                            x       y       z     vdW  Elec       q    Type
REMARK                         _______ _______ _______ _____ _____    ______ ____
ROOT
ATOM      1  C   LIG    1       -1.244  -2.135   0.003  0.00  0.00    +0.120 C 
ATOM      2  C   LIG    1       -0.772  -2.665   1.333  0.00  0.00    +0.520 C 
ATOM      3  N   LIG    1       -1.198  -3.865   1.769  0.00  0.00    -0.660 N 
ATOM      4  H   LIG    1       -0.840  -4.228   2.594  0.00  0.00    +0.440 HD
ATOM      5  C   LIG    1       -2.110  -4.567   1.077  0.00  0.00    +0.720 C 
ATOM      6  N   LIG    1       -2.806  -4.017   0.070  0.00  0.00    -0.730 N 
ATOM      7  H   LIG    1       -3.397  -4.572  -0.463  0.00  0.00    +0.430 HD
ATOM      8  O   LIG    1       -2.311  -5.730   1.371  0.00  0.00    -0.530 OA
ATOM      9  O   LIG    1       -0.009  -2.010   2.010  0.00  0.00    -0.440 OA
ATOM     10  F   LIG    1       -0.423  -2.630  -1.016  0.00  0.00    -0.140 F 
ATOM     11  C   LIG    1       -2.686  -2.590  -0.237  0.00  0.00    +0.420 C 
ENDROOT
BRANCH   1  12
ATOM     12  C   LIG    1       -1.185  -0.630   0.010  0.00  0.00    +0.470 C 
ATOM     13  O   LIG    1       -2.208   0.015   0.023  0.00  0.00    -0.440 OA
BRANCH  12  15
ATOM     14  C   LIG    1       -0.018   1.448   0.010  0.00  0.00    +0.290 C 
ATOM     15  O   LIG    1        0.002  -0.004   0.002  0.00  0.00    -0.330 OA
ENDBRANCH  12  15
ENDBRANCH   1  12
BRANCH  11  16
ATOM     16  O   LIG    1       -3.565  -1.846   0.609  0.00  0.00    -0.360 OA
ATOM     17  C   LIG    1       -4.950  -2.026   0.309  0.00  0.00    +0.230 C 
ENDBRANCH  11  16
TORSDOF 3
ENDMDL
MODEL     1105
REMARK  Name = ZINC000005201826
REMARK                            x       y       z     vdW  Elec       q    Type
REMARK                         _______ _______ _______ _____ _____    ______ ____
ROOT
ATOM      1  C   LIG    1       -0.667  -2.662  -1.313  0.00  0.00    +0.190 C 
ENDROOT
BRANCH   1   2
ATOM      2  O   LIG    1       -1.357  -2.059  -2.410  0.00  0.00    -0.530 OA
ATOM      3  H   LIG    1       -2.307  -2.238  -2.424  0.00  0.00    +0.370 HD
ENDBRANCH   1   2
BRANCH   1   4
ATOM      4  C   LIG    1       -1.244  -2.135   0.003  0.00  0.00    +0.240 C 
BRANCH   4   5
ATOM      5  C   LIG    1       -1.185  -0.630   0.010  0.00  0.00    +0.440 C 
ATOM      6  O   LIG    1       -2.208   0.015   0.023  0.00  0.00    -0.500 OA
BRANCH   5   8
ATOM      7  C   LIG    1       -0.018   1.448   0.010  0.00  0.00    +0.280 C 
ATOM      8  O   LIG    1        0.002  -0.004   0.002  0.00  0.00    -0.360 OA
ENDBRANCH   5   8
ENDBRANCH   4   5
BRANCH   4   9
ATOM      9  O   LIG    1       -2.602  -2.560   0.131  0.00  0.00    -0.520 OA
ATOM     10  H   LIG    1       -3.180  -2.249  -0.579  0.00  0.00    +0.380 HD
ENDBRANCH   4   9
ENDBRANCH   1   4
BRANCH   1  11
ATOM     11  C   LIG    1       -0.840  -4.181  -1.375  0.00  0.00    +0.180 C 
BRANCH  11  12
ATOM     12  O   LIG    1       -0.150  -4.783  -0.278  0.00  0.00    -0.530 OA
ATOM     13  H   LIG    1        0.800  -4.604  -0.264  0.00  0.00    +0.380 HD
ENDBRANCH  11  12
BRANCH  11  14
ATOM     14  C   LIG    1       -0.263  -4.707  -2.690  0.00  0.00    +0.230 C 
BRANCH  14  15
ATOM     15  C   LIG    1       -0.433  -6.203  -2.751  0.00  0.00    +0.430 C 
ATOM     16  O   LIG    1       -1.152  -6.696  -3.588  0.00  0.00    -0.500 OA
BRANCH  15  17
ATOM     17  O   LIG    1        0.214  -6.988  -1.875  0.00  0.00    -0.340 OA
ATOM     18  C   LIG    1        0.003  -8.420  -1.992  0.00  0.00    +0.260 C 
ENDBRANCH  15  17
ENDBRANCH  14  15
BRANCH  14  19
ATOM     19  O   LIG    1       -0.952  -4.104  -3.788  0.00  0.00    -0.510 OA
ATOM     20  H   LIG    1       -1.903  -4.283  -3.801  0.00  0.00    +0.380 HD
ENDBRANCH  14  19
ENDBRANCH  11  14
ENDBRANCH   1  11
TORSDOF 11
ENDMDL
MODEL     1106
REMARK  Name = ZINC000001608203
REMARK                            x       y       z     vdW  Elec       q    Type
REMARK                         _______ _______ _______ _____ _____    ______ ____
ROOT
ATOM      1  C   LIG    1        0.657  -2.104  -1.120  0.00  0.00    +0.120 C 
ATOM      2  C   LIG    1       -0.723  -2.649  -1.387  0.00  0.00    +0.510 C 
ATOM      3  N   LIG    1       -1.175  -2.744  -2.651  0.00  0.00    -0.660 N 
ATOM      4  H   LIG    1       -2.086  -3.035  -2.811  0.00  0.00    +0.440 HD
ATOM      5  C   LIG    1       -0.383  -2.443  -3.693  0.00  0.00    +0.710 C 
ATOM      6  N   LIG    1        0.940  -2.269  -3.544  0.00  0.00    -0.730 N 
ATOM      7  H   LIG    1        1.472  -1.971  -4.299  0.00  0.00    +0.430 HD
ATOM      8  O   LIG    1       -0.876  -2.325  -4.798  0.00  0.00    -0.530 OA
ATOM      9  O   LIG    1       -1.425  -3.001  -0.463  0.00  0.00    -0.430 OA
ATOM     10  F   LIG    1        1.137  -2.615   0.091  0.00  0.00    -0.130 F 
ATOM     11  C   LIG    1        1.592  -2.521  -2.257  0.00  0.00    +0.440 C 
ENDROOT
BRANCH   1  12
ATOM     12  C   LIG    1        0.598  -0.600  -1.043  0.00  0.00    +0.450 C 
ATOM     13  O   LIG    1        1.088   0.070  -1.921  0.00  0.00    -0.440 OA
BRANCH  12  15
ATOM     14  C   LIG    1       -0.018   1.448   0.010  0.00  0.00    +0.280 C 
ATOM     15  O   LIG    1        0.002  -0.004   0.002  0.00  0.00    -0.340 OA
ENDBRANCH  12  15
ENDBRANCH   1  12
BRANCH  11  16
ATOM     16  O   LIG    1        2.803  -1.766  -2.181  0.00  0.00    -0.530 OA
ATOM     17  H   LIG    1        3.444  -1.979  -2.873  0.00  0.00    +0.400 HD
ENDBRANCH  11  16
TORSDOF 3
ENDMDL
MODEL     1107
REMARK  Name = ZINC000005202046
REMARK                            x       y       z     vdW  Elec       q    Type
REMARK                         _______ _______ _______ _____ _____    ______ ____
ROOT
ATOM      1  C   LIG    1        0.652  -0.570  -1.138  0.00  0.00    +0.320 C 
ATOM      2  O   LIG    1       -0.088  -0.241  -2.318  0.00  0.00    -0.370 OA
ATOM      3  C   LIG    1       -1.430  -0.723  -2.296  0.00  0.00    +0.120 C 
ATOM      4  C   LIG    1       -2.189  -0.305  -3.557  0.00  0.00    +0.250 C 
ATOM      5  O   LIG    1       -3.489  -0.906  -3.519  0.00  0.00    -0.390 OA
ATOM      6  C   LIG    1       -3.478  -2.330  -3.412  0.00  0.00    +0.410 C 
ATOM      7  O   LIG    1       -2.754  -2.730  -2.243  0.00  0.00    -0.370 OA
ATOM      8  C   LIG    1       -1.407  -2.255  -2.232  0.00  0.00    +0.160 C 
ATOM      9  C   LIG    1       -0.684  -2.676  -0.953  0.00  0.00    +0.220 C 
ATOM     10  C   LIG    1        0.727  -2.090  -0.977  0.00  0.00    +0.150 C 
ENDROOT
BRANCH   1  12
ATOM     11  C   LIG    1       -0.017   1.425   0.010  0.00  0.00    +0.220 C 
ATOM     12  O   LIG    1        0.002  -0.004   0.002  0.00  0.00    -0.400 OA
ENDBRANCH   1  12
BRANCH   9  13
ATOM     13  O   LIG    1       -0.613  -4.102  -0.888  0.00  0.00    -0.540 OA
ATOM     14  H   LIG    1       -0.166  -4.439  -0.100  0.00  0.00    +0.380 HD
ENDBRANCH   9  13
BRANCH  10  15
ATOM     15  O   LIG    1        1.457  -2.650  -2.070  0.00  0.00    -0.530 OA
ATOM     16  H   LIG    1        2.363  -2.322  -2.147  0.00  0.00    +0.380 HD
ENDBRANCH  10  15
TORSDOF 3
ENDMDL
MODEL     1108
REMARK  Name = ZINC000005201827
REMARK                            x       y       z     vdW  Elec       q    Type
REMARK                         _______ _______ _______ _____ _____    ______ ____
ROOT
ATOM      1  C   LIG    1       -0.642  -2.676   1.301  0.00  0.00    +0.200 C 
ENDROOT
BRANCH   1   2
ATOM      2  O   LIG    1       -1.310  -2.085   2.418  0.00  0.00    -0.540 OA
ATOM      3  H   LIG    1       -2.260  -2.264   2.447  0.00  0.00    +0.370 HD
ENDBRANCH   1   2
BRANCH   1   4
ATOM      4  C   LIG    1       -1.244  -2.135   0.003  0.00  0.00    +0.240 C 
BRANCH   4   5
ATOM      5  C   LIG    1       -1.185  -0.630   0.010  0.00  0.00    +0.440 C 
ATOM      6  O   LIG    1       -2.208   0.015   0.023  0.00  0.00    -0.500 OA
BRANCH   5   8
ATOM      7  C   LIG    1       -0.018   1.448   0.010  0.00  0.00    +0.280 C 
ATOM      8  O   LIG    1        0.002  -0.004   0.002  0.00  0.00    -0.360 OA
ENDBRANCH   5   8
ENDBRANCH   4   5
BRANCH   4   9
ATOM      9  O   LIG    1       -2.605  -2.559  -0.104  0.00  0.00    -0.500 OA
ATOM     10  H   LIG    1       -3.169  -2.255   0.620  0.00  0.00    +0.380 HD
ENDBRANCH   4   9
ENDBRANCH   1   4
BRANCH   1  11
ATOM     11  C   LIG    1       -0.814  -4.195   1.349  0.00  0.00    +0.180 C 
BRANCH  11  12
ATOM     12  O   LIG    1       -2.194  -4.524   1.181  0.00  0.00    -0.520 OA
ATOM     13  H   LIG    1       -2.773  -4.150   1.859  0.00  0.00    +0.370 HD
ENDBRANCH  11  12
BRANCH  11  14
ATOM     14  C   LIG    1       -0.325  -4.721   2.701  0.00  0.00    +0.230 C 
BRANCH  14  15
ATOM     15  C   LIG    1       -0.494  -6.218   2.748  0.00  0.00    +0.430 C 
ATOM     16  O   LIG    1        0.476  -6.934   2.819  0.00  0.00    -0.500 OA
BRANCH  15  17
ATOM     17  O   LIG    1       -1.724  -6.756   2.712  0.00  0.00    -0.340 OA
ATOM     18  C   LIG    1       -1.811  -8.204   2.762  0.00  0.00    +0.260 C 
ENDBRANCH  15  17
ENDBRANCH  14  15
BRANCH  14  19
ATOM     19  O   LIG    1        1.055  -4.392   2.869  0.00  0.00    -0.520 OA
ATOM     20  H   LIG    1        1.634  -4.766   2.191  0.00  0.00    +0.390 HD
ENDBRANCH  14  19
ENDBRANCH  11  14
ENDBRANCH   1  11
TORSDOF 11
ENDMDL
MODEL     1109
REMARK  Name = ZINC000005201828
REMARK                            x       y       z     vdW  Elec       q    Type
REMARK                         _______ _______ _______ _____ _____    ______ ____
ROOT
ATOM      1  C   LIG    1       -0.667  -2.662  -1.313  0.00  0.00    +0.180 C 
ENDROOT
BRANCH   1   2
ATOM      2  O   LIG    1        0.691  -2.237  -1.441  0.00  0.00    -0.530 OA
ATOM      3  H   LIG    1        1.269  -2.549  -0.732  0.00  0.00    +0.380 HD
ENDBRANCH   1   2
BRANCH   1   4
ATOM      4  C   LIG    1       -1.244  -2.135   0.003  0.00  0.00    +0.240 C 
BRANCH   4   5
ATOM      5  C   LIG    1       -1.185  -0.630   0.010  0.00  0.00    +0.430 C 
ATOM      6  O   LIG    1       -2.208   0.015   0.023  0.00  0.00    -0.500 OA
BRANCH   5   8
ATOM      7  C   LIG    1       -0.018   1.448   0.010  0.00  0.00    +0.260 C 
ATOM      8  O   LIG    1        0.002  -0.004   0.002  0.00  0.00    -0.340 OA
ENDBRANCH   5   8
ENDBRANCH   4   5
BRANCH   4   9
ATOM      9  O   LIG    1       -2.602  -2.560   0.131  0.00  0.00    -0.520 OA
ATOM     10  H   LIG    1       -3.180  -2.249  -0.579  0.00  0.00    +0.390 HD
ENDBRANCH   4   9
ENDBRANCH   1   4
BRANCH   1  11
ATOM     11  C   LIG    1       -0.726  -4.191  -1.321  0.00  0.00    +0.180 C 
BRANCH  11  12
ATOM     12  O   LIG    1       -0.061  -4.699  -0.163  0.00  0.00    -0.530 OA
ATOM     13  H   LIG    1        0.872  -4.450  -0.105  0.00  0.00    +0.380 HD
ENDBRANCH  11  12
BRANCH  11  14
ATOM     14  C   LIG    1       -0.037  -4.721  -2.580  0.00  0.00    +0.240 C 
BRANCH  14  15
ATOM     15  C   LIG    1       -0.096  -6.227  -2.587  0.00  0.00    +0.430 C 
ATOM     16  O   LIG    1       -0.727  -6.803  -3.442  0.00  0.00    -0.500 OA
BRANCH  15  17
ATOM     17  O   LIG    1        0.553  -6.929  -1.645  0.00  0.00    -0.340 OA
ATOM     18  C   LIG    1        0.453  -8.376  -1.714  0.00  0.00    +0.260 C 
ENDBRANCH  15  17
ENDBRANCH  14  15
BRANCH  14  19
ATOM     19  O   LIG    1       -0.703  -4.213  -3.737  0.00  0.00    -0.520 OA
ATOM     20  H   LIG    1       -1.636  -4.462  -3.796  0.00  0.00    +0.390 HD
ENDBRANCH  14  19
ENDBRANCH  11  14
ENDBRANCH   1  11
TORSDOF 11
ENDMDL
MODEL     1110
REMARK  Name = ZINC000001589592
REMARK                            x       y       z     vdW  Elec       q    Type
REMARK                         _______ _______ _______ _____ _____    ______ ____
ROOT
ATOM      1  C   LIG    1        0.001  -4.173  -0.023  0.00  0.00    +0.290 C 
ATOM      2  C   LIG    1       -0.773  -4.693   1.166  0.00  0.00    +0.030 C 
ATOM      3  C   LIG    1       -1.587  -5.651   0.814  0.00  0.00    -0.160 C 
ATOM      4  C   LIG    1       -1.490  -5.930  -0.668  0.00  0.00    +0.180 C 
ATOM      5  C   LIG    1       -0.773  -4.691  -1.257  0.00  0.00    +0.210 C 
ENDROOT
BRANCH   1   9
ATOM      6  C   LIG    1        0.002  -0.004   0.002  0.00  0.00    +0.500 A 
ATOM      7  N   LIG    1       -1.135  -0.687   0.004  0.00  0.00    -0.620 NA
ATOM      8  C   LIG    1       -1.129  -2.018  -0.004  0.00  0.00    +0.660 A 
ATOM      9  N   LIG    1        0.026  -2.708  -0.014  0.00  0.00    -0.530 N 
ATOM     10  C   LIG    1        1.220  -2.050  -0.016  0.00  0.00    +0.380 A 
ATOM     11  O   LIG    1       -2.189  -2.623  -0.003  0.00  0.00    -0.540 OA
ATOM     12  C   LIG    1        1.230  -0.697  -0.013  0.00  0.00    -0.150 A 
BRANCH   6  13
ATOM     13  N   LIG    1       -0.017   1.371   0.010  0.00  0.00    -0.820 N 
ATOM     14  H   LIG    1       -0.863   1.845   0.016  0.00  0.00    +0.410 HD
ATOM     15  H   LIG    1        0.817   1.868   0.004  0.00  0.00    +0.420 HD
ENDBRANCH   6  13
ENDBRANCH   1   9
BRANCH   4  16
ATOM     16  O   LIG    1       -0.719  -7.110  -0.903  0.00  0.00    -0.540 OA
ATOM     17  H   LIG    1       -1.096  -7.910  -0.514  0.00  0.00    +0.380 HD
ENDBRANCH   4  16
BRANCH   5  18
ATOM     18  O   LIG    1        0.120  -5.066  -2.308  0.00  0.00    -0.550 OA
ATOM     19  H   LIG    1       -0.315  -5.488  -3.061  0.00  0.00    +0.390 HD
ENDBRANCH   5  18
BRANCH   3  20
ATOM     20  C   LIG    1       -2.502  -6.383   1.761  0.00  0.00    +0.250 C 
BRANCH  20  21
ATOM     21  O   LIG    1       -2.334  -5.864   3.082  0.00  0.00    -0.570 OA
ATOM     22  H   LIG    1       -2.894  -6.290   3.746  0.00  0.00    +0.390 HD
ENDBRANCH  20  21
ENDBRANCH   3  20
TORSDOF 6
ENDMDL
MODEL     1111
REMARK  Name = ZINC000006524892
REMARK                            x       y       z     vdW  Elec       q    Type
REMARK                         _______ _______ _______ _____ _____    ______ ____
ROOT
ATOM      1  C1*   C A  1        0.001  -4.173  -0.023  0.00  0.00    +0.450 C 
ATOM      2  O4*   C A  1       -0.935  -4.653  -1.012  0.00  0.00    -0.330 OA
ATOM      3  C4*   C A  1       -2.238  -4.503  -0.408  0.00  0.00    +0.110 C 
ATOM      4  C3*   C A  1       -2.043  -4.931   1.063  0.00  0.00    +0.130 C 
ATOM      5  C2*   C A  1       -0.534  -4.709   1.324  0.00  0.00    +0.190 C 
ENDROOT
BRANCH   1   9
ATOM      6  C4    C A  1        0.124  -0.006   0.052  0.00  0.00    +0.510 A 
ATOM      7  N3    C A  1        0.928  -0.727   0.823  0.00  0.00    -0.610 NA
ATOM      8  C2    C A  1        0.884  -2.058   0.794  0.00  0.00    +0.660 A 
ATOM      9  N1    C A  1        0.026  -2.708  -0.014  0.00  0.00    -0.540 N 
ATOM     10  C6    C A  1       -0.819  -2.010  -0.823  0.00  0.00    +0.370 A 
ATOM     11  O2    C A  1        1.634  -2.698   1.512  0.00  0.00    -0.540 OA
ATOM     12  C5    C A  1       -0.791  -0.657  -0.802  0.00  0.00    -0.140 A 
BRANCH   6  13
ATOM     13  N4    C A  1        0.178   1.368   0.090  0.00  0.00    -0.810 N 
ATOM     14  H41   C A  1        0.805   1.812   0.682  0.00  0.00    +0.410 HD
ATOM     15  H42   C A  1       -0.414   1.892  -0.471  0.00  0.00    +0.420 HD
ENDBRANCH   6  13
ENDBRANCH   1   9
BRANCH   4  16
ATOM     16  O3*   C A  1       -2.830  -4.113   1.931  0.00  0.00    -0.550 OA
ATOM     17  H3*   C A  1       -3.781  -4.170   1.770  0.00  0.00    +0.390 HD
ENDBRANCH   4  16
BRANCH   5  18
ATOM     18  O2*   C A  1        0.102  -5.943   1.664  0.00  0.00    -0.540 OA
ATOM     19  H2*   C A  1       -0.241  -6.353   2.470  0.00  0.00    +0.390 HD
ENDBRANCH   5  18
BRANCH   3  20
ATOM     20  C5*   C A  1       -3.254  -5.413  -1.101  0.00  0.00    +0.210 C 
BRANCH  20  21
ATOM     21  O5*   C A  1       -3.451  -4.971  -2.446  0.00  0.00    -0.570 OA
ATOM     22  H5*   C A  1       -4.084  -5.503  -2.946  0.00  0.00    +0.390 HD
ENDBRANCH  20  21
ENDBRANCH   3  20
TORSDOF 6
ENDMDL
MODEL     1112
REMARK  Name = ZINC000005273580
REMARK                            x       y       z     vdW  Elec       q    Type
REMARK                         _______ _______ _______ _____ _____    ______ ____
ROOT
ATOM      1  CA  PRO A  1       -1.330   1.951   0.019  0.00  0.00    +0.140 C 
ATOM      2  CB  PRO A  1       -1.816   2.177  -1.428  0.00  0.00    +0.080 C 
ATOM      3  CG  PRO A  1       -3.348   1.961  -1.318  0.00  0.00    +0.170 C 
ATOM      4  CD  PRO A  1       -3.428   0.835  -0.257  0.00  0.00    +0.220 C 
ATOM      5  N   PRO A  1       -2.349   1.143   0.704  0.00  0.00    -0.560 N 
ATOM      6  C   PRO A  1       -2.307   0.746   1.992  0.00  0.00    +0.520 C 
ATOM      7  O   PRO A  1       -1.368   1.059   2.692  0.00  0.00    -0.520 OA
ENDROOT
BRANCH   6   8
ATOM      8  CA  PRO A  1       -3.427  -0.086   2.561  0.00  0.00    +0.170 C 
ATOM      9  CB  PRO A  1       -3.514  -1.448   1.827  0.00  0.00    +0.090 C 
ATOM     10  CG  PRO A  1       -4.210  -2.334   2.893  0.00  0.00    +0.080 C 
ATOM     11  CD  PRO A  1       -3.627  -1.804   4.220  0.00  0.00    +0.250 C 
ATOM     12  N   PRO A  1       -3.147  -0.431   3.971  0.00  0.00    -0.500 N 
ATOM     13  H1  PRO A  1       -3.629   0.213   4.580  0.00  0.00    +0.430 HD
ATOM     14  H2  PRO A  1       -2.154  -0.382   4.140  0.00  0.00    +0.440 HD
ENDBRANCH   6   8
BRANCH   1  16
ATOM     15  O   PRO A  1        0.002  -0.004   0.002  0.00  0.00    -0.690 OA
ATOM     16  C   PRO A  1       -0.015   1.215   0.009  0.00  0.00    +0.500 C 
ATOM     17  OXT PRO A  1        1.033   1.839   0.002  0.00  0.00    -0.680 OA
ENDBRANCH   1  16
BRANCH   3  18
ATOM     18  OD  PRO A  1       -3.896   1.530  -2.565  0.00  0.00    -0.550 OA
ATOM     19  HD  PRO A  1       -4.852   1.383  -2.545  0.00  0.00    +0.380 HD
ENDBRANCH   3  18
TORSDOF 3
ENDMDL
MODEL     1113
REMARK  Name = ZINC000005273582
REMARK                            x       y       z     vdW  Elec       q    Type
REMARK                         _______ _______ _______ _____ _____    ______ ____
ROOT
ATOM      1  CA  PRO A  1       -1.330   1.951   0.019  0.00  0.00    +0.150 C 
ATOM      2  CB  PRO A  1       -1.816   2.177  -1.428  0.00  0.00    +0.070 C 
ATOM      3  CG  PRO A  1       -3.348   1.961  -1.318  0.00  0.00    +0.180 C 
ATOM      4  CD  PRO A  1       -3.428   0.835  -0.257  0.00  0.00    +0.220 C 
ATOM      5  N   PRO A  1       -2.349   1.143   0.704  0.00  0.00    -0.550 N 
ATOM      6  C   PRO A  1       -2.307   0.746   1.992  0.00  0.00    +0.510 C 
ATOM      7  O   PRO A  1       -1.368   1.059   2.692  0.00  0.00    -0.530 OA
ENDROOT
BRANCH   6   8
ATOM      8  CA  PRO A  1       -3.427  -0.086   2.561  0.00  0.00    +0.170 C 
ATOM      9  CB  PRO A  1       -4.752   0.704   2.499  0.00  0.00    +0.100 C 
ATOM     10  CG  PRO A  1       -5.450   0.320   3.830  0.00  0.00    +0.080 C 
ATOM     11  CD  PRO A  1       -4.244   0.208   4.795  0.00  0.00    +0.260 C 
ATOM     12  N   PRO A  1       -3.159  -0.386   3.979  0.00  0.00    -0.500 N 
ATOM     13  H1  PRO A  1       -2.274   0.017   4.247  0.00  0.00    +0.440 HD
ATOM     14  H2  PRO A  1       -3.136  -1.384   4.120  0.00  0.00    +0.430 HD
ENDBRANCH   6   8
BRANCH   1  16
ATOM     15  O   PRO A  1        0.002  -0.004   0.002  0.00  0.00    -0.690 OA
ATOM     16  C   PRO A  1       -0.015   1.215   0.009  0.00  0.00    +0.500 C 
ATOM     17  OXT PRO A  1        1.033   1.839   0.002  0.00  0.00    -0.680 OA
ENDBRANCH   1  16
BRANCH   3  18
ATOM     18  OD  PRO A  1       -4.001   3.146  -0.857  0.00  0.00    -0.550 OA
ATOM     19  HD  PRO A  1       -4.960   3.059  -0.772  0.00  0.00    +0.370 HD
ENDBRANCH   3  18
TORSDOF 3
ENDMDL
MODEL     1114
REMARK  Name = ZINC000096532909
REMARK                            x       y       z     vdW  Elec       q    Type
REMARK                         _______ _______ _______ _____ _____    ______ ____
ROOT
ATOM      1  O   LIG    1        0.002  -0.004   0.002  0.00  0.00    -0.930 OA
ATOM      2  S   LIG    1       -0.017   1.417   0.010  0.00  0.00    +2.390 S 
ATOM      3  C   LIG    1       -0.474   2.004   1.677  0.00  0.00    -0.310 C 
ATOM      4  C   LIG    1        0.760   2.709   2.232  0.00  0.00    +0.030 C 
ATOM      5  C   LIG    1        1.020   4.125   1.711  0.00  0.00    +0.000 C 
ATOM      6  C   LIG    1        2.510   3.737   1.704  0.00  0.00    +0.010 C 
ATOM      7  C   LIG    1        2.032   2.302   1.480  0.00  0.00    +0.010 C 
ATOM      8  O   LIG    1       -0.780   2.118  -0.963  0.00  0.00    -0.930 OA
ATOM      9  C   LIG    1        1.698   2.043  -0.003  0.00  0.00    -0.300 C 
ENDROOT
BRANCH   6  10
ATOM     10  C   LIG    1        3.214   3.974   3.042  0.00  0.00    +0.190 C 
BRANCH  10  11
ATOM     11  O   LIG    1        3.644   5.334   3.120  0.00  0.00    -0.560 OA
ATOM     12  H   LIG    1        4.099   5.556   3.944  0.00  0.00    +0.380 HD
ENDBRANCH  10  11
ENDBRANCH   6  10
BRANCH   5  13
ATOM     13  C   LIG    1        0.671   5.225   2.715  0.00  0.00    +0.190 C 
BRANCH  13  14
ATOM     14  O   LIG    1        0.837   6.503   2.098  0.00  0.00    -0.560 OA
ATOM     15  H   LIG    1        0.633   7.250   2.679  0.00  0.00    +0.380 HD
ENDBRANCH  13  14
ENDBRANCH   5  13
TORSDOF 4
ENDMDL
MODEL     1115
REMARK  Name = ZINC000005290458
REMARK                            x       y       z     vdW  Elec       q    Type
REMARK                         _______ _______ _______ _____ _____    ______ ____
ROOT
ATOM      1  N   LIG    1       -1.237   1.898   0.018  0.00  0.00    -0.540 N 
ATOM      2  C   LIG    1       -1.239   3.359   0.020  0.00  0.00    +0.520 C 
ATOM      3  O   LIG    1       -2.206   3.829  -0.928  0.00  0.00    -0.370 OA
ATOM      4  C   LIG    1       -1.790   3.654  -2.289  0.00  0.00    +0.520 C 
ATOM      5  N   LIG    1       -1.870   2.237  -2.636  0.00  0.00    -0.540 N 
ATOM      6  C   LIG    1       -3.030   1.429  -2.272  0.00  0.00    +0.520 C 
ATOM      7  O   LIG    1       -2.663   0.501  -1.245  0.00  0.00    -0.360 OA
ATOM      8  C   LIG    1       -2.482   1.135   0.020  0.00  0.00    +0.520 C 
ENDROOT
BRANCH   1  10
ATOM      9  O   LIG    1        0.002  -0.004   0.002  0.00  0.00    -0.160 OA
ATOM     10  N   LIG    1       -0.014   1.214   0.009  0.00  0.00    +0.210 N 
ATOM     11  O   LIG    1        1.032   1.837   0.002  0.00  0.00    -0.190 OA
ENDBRANCH   1  10
BRANCH   5  12
ATOM     12  N   LIG    1       -0.812   1.641  -3.334  0.00  0.00    +0.210 N 
ATOM     13  O   LIG    1       -0.866   0.461  -3.631  0.00  0.00    -0.160 OA
ATOM     14  O   LIG    1        0.162   2.303  -3.645  0.00  0.00    -0.190 OA
ENDBRANCH   5  12
TORSDOF 2
ENDMDL
MODEL     1116
REMARK  Name = ZINC000096532913
REMARK                            x       y       z     vdW  Elec       q    Type
REMARK                         _______ _______ _______ _____ _____    ______ ____
ROOT
ATOM      1  O   LIG    1        0.117   0.036  -0.089  0.00  0.00    -0.930 OA
ATOM      2  S   LIG    1        0.091   1.457  -0.061  0.00  0.00    +2.370 S 
ATOM      3  C   LIG    1       -0.376   2.033   1.630  0.00  0.00    -0.280 C 
ATOM      4  C   LIG    1        0.999   2.071   2.288  0.00  0.00    +0.000 C 
ATOM      5  C   LIG    1        1.535   3.131   3.212  0.00  0.00    +0.020 C 
ATOM      6  C   LIG    1        2.834   2.892   2.369  0.00  0.00    +0.040 C 
ATOM      7  C   LIG    1        1.831   2.920   1.261  0.00  0.00    -0.010 C 
ATOM      8  O   LIG    1       -0.656   2.173  -1.035  0.00  0.00    -0.930 OA
ATOM      9  C   LIG    1        1.817   2.104  -0.011  0.00  0.00    -0.290 C 
ENDROOT
BRANCH   6  10
ATOM     10  C   LIG    1        3.810   4.070   2.359  0.00  0.00    +0.180 C 
BRANCH  10  11
ATOM     11  O   LIG    1        4.646   4.007   3.516  0.00  0.00    -0.570 OA
ATOM     12  H   LIG    1        5.291   4.725   3.575  0.00  0.00    +0.380 HD
ENDBRANCH  10  11
ENDBRANCH   6  10
BRANCH   5  13
ATOM     13  C   LIG    1        0.903   4.512   3.026  0.00  0.00    +0.200 C 
BRANCH  13  14
ATOM     14  O   LIG    1        1.347   5.383   4.068  0.00  0.00    -0.560 OA
ATOM     15  H   LIG    1        0.986   6.278   4.013  0.00  0.00    +0.380 HD
ENDBRANCH  13  14
ENDBRANCH   5  13
TORSDOF 4
ENDMDL
MODEL     1117
REMARK  Name = ZINC000001723461
REMARK                            x       y       z     vdW  Elec       q    Type
REMARK                         _______ _______ _______ _____ _____    ______ ____
ROOT
ATOM      1  C   LIG    1        0.657  -2.104  -1.120  0.00  0.00    -0.160 C 
ATOM      2  C   LIG    1       -0.736  -2.754  -1.241  0.00  0.00    +0.350 C 
ATOM      3  O   LIG    1       -0.543  -3.908  -2.108  0.00  0.00    -0.320 OA
ATOM      4  C   LIG    1        0.458  -3.669  -2.966  0.00  0.00    +0.500 C 
ATOM      5  O   LIG    1        0.599  -4.210  -4.037  0.00  0.00    -0.420 OA
ATOM      6  C   LIG    1        1.414  -2.720   0.034  0.00  0.00    +0.500 C 
ATOM      7  O   LIG    1        1.250  -2.457   1.202  0.00  0.00    -0.400 OA
ATOM      8  O   LIG    1        2.307  -3.642  -0.450  0.00  0.00    -0.330 OA
ATOM      9  C   LIG    1        2.643  -3.307  -1.827  0.00  0.00    +0.310 C 
ATOM     10  C   LIG    1        1.382  -2.620  -2.393  0.00  0.00    +0.000 C 
ENDROOT
BRANCH   1  11
ATOM     11  C   LIG    1        0.598  -0.600  -1.043  0.00  0.00    +0.500 C 
ATOM     12  O   LIG    1        1.088   0.070  -1.921  0.00  0.00    -0.480 OA
BRANCH  11  14
ATOM     13  C   LIG    1       -0.018   1.448   0.010  0.00  0.00    +0.280 C 
ATOM     14  O   LIG    1        0.002  -0.004   0.002  0.00  0.00    -0.340 OA
ENDBRANCH  11  14
ENDBRANCH   1  11
TORSDOF 2
ENDMDL
MODEL     1118
REMARK  Name = ZINC000005339397
REMARK                            x       y       z     vdW  Elec       q    Type
REMARK                         _______ _______ _______ _____ _____    ______ ____
ROOT
ATOM      1  C   LIG    1        0.746  -1.888  -1.280  0.00  0.00    +0.290 C 
ATOM      2  O   LIG    1       -0.557  -2.416  -1.538  0.00  0.00    -0.390 OA
ATOM      3  C   LIG    1       -0.600  -3.841  -1.638  0.00  0.00    +0.150 C 
ATOM      4  C   LIG    1        0.285  -4.297  -2.800  0.00  0.00    +0.180 C 
ATOM      5  C   LIG    1        1.713  -3.790  -2.574  0.00  0.00    +0.150 C 
ATOM      6  C   LIG    1        1.685  -2.266  -2.428  0.00  0.00    +0.150 C 
ENDROOT
BRANCH   5   7
ATOM      7  O   LIG    1        2.531  -4.150  -3.689  0.00  0.00    -0.550 OA
ATOM      8  H   LIG    1        3.450  -3.861  -3.613  0.00  0.00    +0.390 HD
ENDBRANCH   5   7
BRANCH   4   9
ATOM      9  O   LIG    1       -0.223  -3.764  -4.025  0.00  0.00    -0.530 OA
ATOM     10  H   LIG    1        0.290  -4.014  -4.806  0.00  0.00    +0.380 HD
ENDBRANCH   4   9
BRANCH   6  11
ATOM     11  O   LIG    1        3.003  -1.789  -2.146  0.00  0.00    -0.560 OA
ATOM     12  H   LIG    1        3.059  -0.829  -2.040  0.00  0.00    +0.390 HD
ENDBRANCH   6  11
BRANCH   1  13
ATOM     13  O   LIG    1        0.671  -0.465  -1.174  0.00  0.00    -0.360 OA
BRANCH  13  15
ATOM     14  C   LIG    1       -0.019   1.526   0.010  0.00  0.00    +0.050 C 
ATOM     15  C   LIG    1        0.002  -0.004   0.002  0.00  0.00    +0.170 C 
ENDBRANCH  13  15
ENDBRANCH   1  13
BRANCH   3  16
ATOM     16  C   LIG    1       -2.041  -4.292  -1.886  0.00  0.00    +0.250 C 
BRANCH  16  17
ATOM     17  O   LIG    1       -2.478  -3.811  -3.159  0.00  0.00    -0.520 OA
ATOM     18  H   LIG    1       -2.462  -2.847  -3.242  0.00  0.00    +0.380 HD
ENDBRANCH  16  17
BRANCH  16  19
ATOM     19  C   LIG    1       -2.947  -3.729  -0.789  0.00  0.00    +0.160 C 
BRANCH  19  20
ATOM     20  O   LIG    1       -4.270  -4.244  -0.954  0.00  0.00    -0.560 OA
ATOM     21  H   LIG    1       -4.900  -3.928  -0.292  0.00  0.00    +0.380 HD
ENDBRANCH  19  20
ENDBRANCH  16  19
ENDBRANCH   3  16
TORSDOF 9
ENDMDL
MODEL     1119
REMARK  Name = ZINC000005382684
REMARK                            x       y       z     vdW  Elec       q    Type
REMARK                         _______ _______ _______ _____ _____    ______ ____
ROOT
ATOM      1  O   LIG    1        0.002  -0.004   0.002  0.00  0.00    -0.550 OA
ATOM      2  C   LIG    1       -0.014   1.212   0.009  0.00  0.00    +0.720 C 
ATOM      3  N   LIG    1       -1.150   1.935   0.029  0.00  0.00    -0.620 N 
ATOM      4  C   LIG    1       -0.828   3.347   0.255  0.00  0.00    +0.480 C 
ATOM      5  C   LIG    1        0.715   3.354   0.357  0.00  0.00    +0.480 C 
ATOM      6  N   LIG    1        1.131   4.037  -0.905  0.00  0.00    -0.660 N 
ATOM      7  C   LIG    1        0.068   4.628  -1.430  0.00  0.00    +0.730 C 
ATOM      8  O   LIG    1        0.136   5.485  -2.290  0.00  0.00    -0.550 OA
ATOM      9  C   LIG    1        2.509   3.885  -1.387  0.00  0.00    +0.540 C 
ATOM     10  O   LIG    1        2.792   2.485  -1.527  0.00  0.00    -0.400 OA
ATOM     11  C   LIG    1        2.459   1.648  -0.410  0.00  0.00    +0.550 C 
ATOM     12  N   LIG    1       -1.097   4.180  -0.920  0.00  0.00    -0.630 N 
ATOM     13  N   LIG    1        1.083   1.954   0.002  0.00  0.00    -0.660 N 
ENDROOT
BRANCH  12  14
ATOM     14  C   LIG    1       -2.426   4.479  -1.459  0.00  0.00    +0.480 C 
BRANCH  14  15
ATOM     15  O   LIG    1       -2.641   3.715  -2.647  0.00  0.00    -0.590 OA
ATOM     16  H   LIG    1       -3.503   3.863  -3.059  0.00  0.00    +0.400 HD
ENDBRANCH  14  15
ENDBRANCH  12  14
BRANCH   3  17
ATOM     17  C   LIG    1       -2.500   1.394  -0.147  0.00  0.00    +0.480 C 
BRANCH  17  18
ATOM     18  O   LIG    1       -2.899   0.714   1.045  0.00  0.00    -0.590 OA
ATOM     19  H   LIG    1       -3.785   0.329   1.000  0.00  0.00    +0.400 HD
ENDBRANCH  17  18
ENDBRANCH   3  17
TORSDOF 4
ENDMDL
MODEL     1120
REMARK  Name = ZINC000002194280
REMARK                            x       y       z     vdW  Elec       q    Type
REMARK                         _______ _______ _______ _____ _____    ______ ____
ROOT
ATOM      1  C   LIG    1        1.765  -0.433  -0.017  0.00  0.00    -0.270 C 
ENDROOT
BRANCH   1   2
ATOM      2  C   LIG    1        1.917  -1.932  -0.027  0.00  0.00    -0.120 C 
ATOM      3  C   LIG    1        2.263  -2.565  -1.095  0.00  0.00    +0.050 C 
ATOM      4  C   LIG    1        2.388  -4.070  -0.998  0.00  0.00    -0.250 C 
ATOM      5  S   LIG    1        2.473  -4.359   0.814  0.00  0.00    +2.400 S 
ATOM      6  O   LIG    1        3.827  -4.346   1.244  0.00  0.00    -0.920 OA
ATOM      7  O   LIG    1        1.616  -5.434   1.173  0.00  0.00    -0.920 OA
ATOM      8  C   LIG    1        1.676  -2.757   1.219  0.00  0.00    -0.260 C 
ENDBRANCH   1   2
BRANCH   1   9
ATOM      9  S   LIG    1        0.002  -0.004   0.002  0.00  0.00    +2.610 S 
ATOM     10  O   LIG    1       -0.610  -0.356  -1.231  0.00  0.00    -0.950 OA
ATOM     11  O   LIG    1       -0.587  -0.369   1.243  0.00  0.00    -0.950 OA
BRANCH   9  12
ATOM     12  N   LIG    1       -0.020   1.652   0.011  0.00  0.00    -1.250 NA
ATOM     13  H   LIG    1       -0.867   2.125   0.018  0.00  0.00    +0.420 HD
ATOM     14  H   LIG    1        0.813   2.148   0.006  0.00  0.00    +0.410 HD
ENDBRANCH   9  12
ENDBRANCH   1   9
TORSDOF 3
ENDMDL
MODEL     1121
REMARK  Name = ZINC000257336068
REMARK                            x       y       z     vdW  Elec       q    Type
REMARK                         _______ _______ _______ _____ _____    ______ ____
ROOT
ATOM      1  C   LIG    1        2.795  -0.825  -2.739  0.00  0.00    +0.140 C 
ATOM      2  C   LIG    1        2.573  -2.324  -2.519  0.00  0.00    -0.030 C 
ATOM      3  C   LIG    1        3.217  -3.104  -3.667  0.00  0.00    +0.220 C 
ATOM      4  N   LIG    1        4.654  -2.806  -3.719  0.00  0.00    -0.680 NA
ATOM      5  H   LIG    1        5.115  -3.102  -2.871  0.00  0.00    +0.340 HD
ATOM      6  C   LIG    1        4.892  -1.380  -3.977  0.00  0.00    +0.200 C 
ATOM      7  C   LIG    1        4.298  -0.548  -2.837  0.00  0.00    +0.150 C 
ENDROOT
BRANCH   1   8
ATOM      8  O   LIG    1        2.155  -0.419  -3.951  0.00  0.00    -0.540 OA
ATOM      9  H   LIG    1        1.200  -0.567  -3.959  0.00  0.00    +0.370 HD
ENDBRANCH   1   8
BRANCH   7  10
ATOM     10  O   LIG    1        4.513   0.840  -3.099  0.00  0.00    -0.550 OA
ATOM     11  H   LIG    1        5.444   1.087  -3.176  0.00  0.00    +0.380 HD
ENDBRANCH   7  10
BRANCH   1  12
ATOM     12  C   LIG    1        2.207  -0.042  -1.563  0.00  0.00    +0.260 C 
BRANCH  12  13
ATOM     13  N   LIG    1        0.796  -0.399  -1.397  0.00  0.00    -1.120 NA
ATOM     14  H   LIG    1        0.327  -0.866  -2.105  0.00  0.00    +0.410 HD
BRANCH  13  16
ATOM     15  C   LIG    1       -0.022   1.810   0.012  0.00  0.00    -0.280 C 
ATOM     16  S   LIG    1        0.002  -0.004   0.002  0.00  0.00    +2.620 S 
ATOM     17  O   LIG    1       -1.309  -0.519  -0.182  0.00  0.00    -0.960 OA
ATOM     18  O   LIG    1        0.845  -0.497   1.035  0.00  0.00    -0.950 OA
ENDBRANCH  13  16
ENDBRANCH  12  13
ENDBRANCH   1  12
TORSDOF 5
ENDMDL
MODEL     1122
REMARK  Name = ZINC000005567078
REMARK                            x       y       z     vdW  Elec       q    Type
REMARK                         _______ _______ _______ _____ _____    ______ ____
ROOT
ATOM      1  C   LIG    1        0.002  -0.004   0.002  0.00  0.00    +0.490 A 
ATOM      2  N   LIG    1       -1.135  -0.686   0.004  0.00  0.00    -0.590 NA
ATOM      3  C   LIG    1       -1.130  -2.018  -0.004  0.00  0.00    +0.660 A 
ATOM      4  N   LIG    1        0.025  -2.709  -0.013  0.00  0.00    -0.520 N 
ATOM      5  C   LIG    1        1.221  -2.052  -0.015  0.00  0.00    +0.360 A 
ATOM      6  O   LIG    1       -2.190  -2.622  -0.002  0.00  0.00    -0.530 OA
ATOM      7  C   LIG    1        1.232  -0.697  -0.013  0.00  0.00    -0.090 A 
ATOM      8  F   LIG    1        2.401  -0.020  -0.015  0.00  0.00    -0.120 F 
ENDROOT
BRANCH   1   9
ATOM      9  N   LIG    1       -0.017   1.372   0.010  0.00  0.00    -0.810 N 
ATOM     10  H   LIG    1       -0.863   1.846   0.016  0.00  0.00    +0.420 HD
ATOM     11  H   LIG    1        0.817   1.868   0.004  0.00  0.00    +0.420 HD
ENDBRANCH   1   9
BRANCH   4  12
ATOM     12  C   LIG    1       -0.002  -4.174  -0.021  0.00  0.00    +0.280 C 
BRANCH  12  13
ATOM     13  C   LIG    1       -0.018  -4.675  -1.466  0.00  0.00    +0.200 C 
BRANCH  13  14
ATOM     14  O   LIG    1       -1.179  -4.174  -2.132  0.00  0.00    -0.550 OA
ATOM     15  H   LIG    1       -2.014  -4.446  -1.726  0.00  0.00    +0.390 HD
ENDBRANCH  13  14
BRANCH  13  16
ATOM     16  C   LIG    1       -0.047  -6.205  -1.475  0.00  0.00    +0.010 C 
BRANCH  16  17
ATOM     17  C   LIG    1        0.063  -6.709  -2.915  0.00  0.00    +0.180 C 
BRANCH  17  18
ATOM     18  O   LIG    1        0.037  -8.138  -2.924  0.00  0.00    -0.580 OA
ATOM     19  H   LIG    1        0.102  -8.527  -3.806  0.00  0.00    +0.380 HD
ENDBRANCH  17  18
ENDBRANCH  16  17
ENDBRANCH  13  16
ENDBRANCH  12  13
ENDBRANCH   4  12
TORSDOF 7
ENDMDL
MODEL     1123
REMARK  Name = ZINC000005567081
REMARK                            x       y       z     vdW  Elec       q    Type
REMARK                         _______ _______ _______ _____ _____    ______ ____
ROOT
ATOM      1  C   LIG    1        0.002  -0.004   0.002  0.00  0.00    +0.500 A 
ATOM      2  N   LIG    1       -1.135  -0.686   0.004  0.00  0.00    -0.600 NA
ATOM      3  C   LIG    1       -1.130  -2.018  -0.004  0.00  0.00    +0.650 A 
ATOM      4  N   LIG    1        0.025  -2.709  -0.013  0.00  0.00    -0.520 N 
ATOM      5  C   LIG    1        1.221  -2.052  -0.015  0.00  0.00    +0.360 A 
ATOM      6  O   LIG    1       -2.190  -2.622  -0.002  0.00  0.00    -0.530 OA
ATOM      7  C   LIG    1        1.232  -0.697  -0.013  0.00  0.00    -0.090 A 
ATOM      8  F   LIG    1        2.401  -0.020  -0.015  0.00  0.00    -0.120 F 
ENDROOT
BRANCH   1   9
ATOM      9  N   LIG    1       -0.017   1.372   0.010  0.00  0.00    -0.810 N 
ATOM     10  H   LIG    1       -0.863   1.846   0.016  0.00  0.00    +0.420 HD
ATOM     11  H   LIG    1        0.817   1.868   0.004  0.00  0.00    +0.420 HD
ENDBRANCH   1   9
BRANCH   4  12
ATOM     12  C   LIG    1       -0.002  -4.174  -0.021  0.00  0.00    +0.290 C 
BRANCH  12  13
ATOM     13  C   LIG    1       -0.018  -4.675  -1.466  0.00  0.00    +0.200 C 
BRANCH  13  14
ATOM     14  O   LIG    1        1.206  -4.316  -2.109  0.00  0.00    -0.560 OA
ATOM     15  H   LIG    1        1.995  -4.685  -1.687  0.00  0.00    +0.380 HD
ENDBRANCH  13  14
BRANCH  13  16
ATOM     16  C   LIG    1       -0.172  -6.198  -1.476  0.00  0.00    +0.020 C 
BRANCH  16  17
ATOM     17  C   LIG    1       -0.313  -6.687  -2.919  0.00  0.00    +0.180 C 
BRANCH  17  18
ATOM     18  O   LIG    1       -0.457  -8.108  -2.928  0.00  0.00    -0.580 OA
ATOM     19  H   LIG    1       -0.552  -8.488  -3.812  0.00  0.00    +0.380 HD
ENDBRANCH  17  18
ENDBRANCH  16  17
ENDBRANCH  13  16
ENDBRANCH  12  13
ENDBRANCH   4  12
TORSDOF 7
ENDMDL
MODEL     1124
REMARK  Name = ZINC000005599990
REMARK                            x       y       z     vdW  Elec       q    Type
REMARK                         _______ _______ _______ _____ _____    ______ ____
ROOT
ATOM      1  C   LIG    1        0.018   1.787   0.328  0.00  0.00    +0.360 C 
ATOM      2  N   LIG    1        0.005   0.330   0.175  0.00  0.00    -0.570 N 
ATOM      3  C   LIG    1       -0.016  -0.372  -0.991  0.00  0.00    +0.570 C 
ATOM      4  N   LIG    1        0.254  -1.694  -0.817  0.00  0.00    -0.670 N 
ATOM      5  H   LIG    1        0.125  -2.406  -1.463  0.00  0.00    +0.450 HD
ATOM      6  C   LIG    1        0.776  -1.822   0.535  0.00  0.00    +0.190 C 
ATOM      7  C   LIG    1        0.465  -3.077   1.323  0.00  0.00    +0.210 C 
ATOM      8  C   LIG    1        1.028  -2.835   2.747  0.00  0.00    +0.140 C 
ATOM      9  C   LIG    1        0.516  -1.530   3.349  0.00  0.00    +0.200 C 
ATOM     10  O   LIG    1        0.689  -0.416   2.450  0.00  0.00    -0.340 OA
ATOM     11  S   LIG    1       -0.346   0.335  -2.515  0.00  0.00    -0.590 S 
ATOM     12  C   LIG    1        0.019  -0.660   1.235  0.00  0.00    +0.380 C 
ENDROOT
BRANCH   7  13
ATOM     13  O   LIG    1       -0.949  -3.277   1.383  0.00  0.00    -0.550 OA
ATOM     14  H   LIG    1       -1.217  -4.033   1.923  0.00  0.00    +0.400 HD
ENDBRANCH   7  13
BRANCH   8  15
ATOM     15  O   LIG    1        0.641  -3.921   3.591  0.00  0.00    -0.550 OA
ATOM     16  H   LIG    1        0.988  -3.862   4.492  0.00  0.00    +0.390 HD
ENDBRANCH   8  15
BRANCH   9  17
ATOM     17  C   LIG    1       -0.972  -1.683   3.671  0.00  0.00    +0.180 C 
BRANCH  17  18
ATOM     18  O   LIG    1       -1.428  -0.526   4.375  0.00  0.00    -0.570 OA
ATOM     19  H   LIG    1       -2.365  -0.554   4.612  0.00  0.00    +0.380 HD
ENDBRANCH  17  18
ENDBRANCH   9  17
TORSDOF 4
ENDMDL
MODEL     1125
REMARK  Name = ZINC000005599974
REMARK                            x       y       z     vdW  Elec       q    Type
REMARK                         _______ _______ _______ _____ _____    ______ ____
ROOT
ATOM      1  C   LIG    1       -0.018   1.461   0.010  0.00  0.00    +0.360 C 
ATOM      2  N   LIG    1        0.002  -0.004   0.002  0.00  0.00    -0.580 N 
ATOM      3  C   LIG    1        0.008  -0.786  -1.091  0.00  0.00    +0.570 C 
ATOM      4  N   LIG    1       -0.033  -2.098  -0.817  0.00  0.00    -0.650 N 
ATOM      5  H   LIG    1        0.007  -2.812  -1.472  0.00  0.00    +0.450 HD
ATOM      6  C   LIG    1       -0.151  -2.277   0.648  0.00  0.00    +0.220 C 
ATOM      7  C   LIG    1       -1.486  -2.926   0.941  0.00  0.00    +0.190 C 
ATOM      8  C   LIG    1       -2.152  -2.442   2.208  0.00  0.00    +0.130 C 
ATOM      9  C   LIG    1       -2.108  -0.932   2.357  0.00  0.00    +0.190 C 
ATOM     10  O   LIG    1       -0.798  -0.434   2.211  0.00  0.00    -0.340 OA
ATOM     11  S   LIG    1        0.065  -0.164  -2.685  0.00  0.00    -0.630 S 
ATOM     12  C   LIG    1        0.025  -0.869   1.183  0.00  0.00    +0.410 C 
ENDROOT
BRANCH   7  13
ATOM     13  O   LIG    1       -2.339  -2.620  -0.164  0.00  0.00    -0.550 OA
ATOM     14  H   LIG    1       -3.212  -3.034  -0.114  0.00  0.00    +0.390 HD
ENDBRANCH   7  13
BRANCH   8  15
ATOM     15  O   LIG    1       -3.515  -2.870   2.215  0.00  0.00    -0.550 OA
ATOM     16  H   LIG    1       -3.994  -2.645   3.024  0.00  0.00    +0.390 HD
ENDBRANCH   8  15
BRANCH   9  17
ATOM     17  C   LIG    1       -3.005  -0.300   1.290  0.00  0.00    +0.180 C 
BRANCH  17  18
ATOM     18  O   LIG    1       -3.103   1.106   1.523  0.00  0.00    -0.570 OA
ATOM     19  H   LIG    1       -3.657   1.573   0.883  0.00  0.00    +0.380 HD
ENDBRANCH  17  18
ENDBRANCH   9  17
TORSDOF 4
ENDMDL
MODEL     1126
REMARK  Name = ZINC000002516144
REMARK                            x       y       z     vdW  Elec       q    Type
REMARK                         _______ _______ _______ _____ _____    ______ ____
ROOT
ATOM      1  C   LIG    1        0.002  -0.004   0.002  0.00  0.00    +0.040 A 
ATOM      2  C   LIG    1       -1.155  -0.706   0.004  0.00  0.00    +0.230 A 
ATOM      3  N   LIG    1       -1.114  -2.079  -0.004  0.00  0.00    -0.520 N 
ATOM      4  C   LIG    1        0.064  -2.730  -0.013  0.00  0.00    +0.700 A 
ATOM      5  N   LIG    1        1.228  -2.056  -0.015  0.00  0.00    -0.650 N 
ATOM      6  H   LIG    1        2.067  -2.543  -0.022  0.00  0.00    +0.440 HD
ATOM      7  O   LIG    1        0.075  -3.946  -0.021  0.00  0.00    -0.540 OA
ATOM      8  C   LIG    1        1.236  -0.708  -0.013  0.00  0.00    +0.550 A 
ATOM      9  O   LIG    1        2.291  -0.100  -0.016  0.00  0.00    -0.510 OA
ENDROOT
BRANCH   3  10
ATOM     10  C1* LIG    1       -2.365  -2.842  -0.002  0.00  0.00    +0.430 C 
ATOM     11  C2* LIG    1       -2.484  -3.698  -1.289  0.00  0.00    +0.010 C 
ATOM     12  C3* LIG    1       -4.016  -3.882  -1.415  0.00  0.00    +0.160 C 
ATOM     13  C4* LIG    1       -4.605  -2.731  -0.577  0.00  0.00    +0.190 C 
ATOM     14  O4* LIG    1       -3.501  -1.956  -0.076  0.00  0.00    -0.360 OA
BRANCH  12  15
ATOM     15  O3* LIG    1       -4.413  -5.147  -0.881  0.00  0.00    -0.550 OA
ATOM     16  H3* LIG    1       -4.024  -5.906  -1.337  0.00  0.00    +0.390 HD
ENDBRANCH  12  15
BRANCH  13  17
ATOM     17  C5* LIG    1       -5.506  -1.858  -1.453  0.00  0.00    +0.210 C 
BRANCH  17  18
ATOM     18  O5* LIG    1       -6.138  -0.864  -0.644  0.00  0.00    -0.560 OA
ATOM     19  H5* LIG    1       -6.726  -0.273  -1.135  0.00  0.00    +0.390 HD
ENDBRANCH  17  18
ENDBRANCH  13  17
ENDBRANCH   3  10
BRANCH   1  20
ATOM     20  N   LIG    1       -0.017   1.403   0.010  0.00  0.00    -0.860 N 
ATOM     21  H   LIG    1       -0.864   1.876   0.016  0.00  0.00    +0.410 HD
ATOM     22  H   LIG    1        0.816   1.899   0.004  0.00  0.00    +0.410 HD
ENDBRANCH   1  20
TORSDOF 5
ENDMDL
MODEL     1127
REMARK  Name = ZINC000005599976
REMARK                            x       y       z     vdW  Elec       q    Type
REMARK                         _______ _______ _______ _____ _____    ______ ____
ROOT
ATOM      1  C   LIG    1       -0.018   1.461   0.010  0.00  0.00    +0.380 C 
ATOM      2  N   LIG    1        0.002  -0.004   0.002  0.00  0.00    -0.570 N 
ATOM      3  C   LIG    1        0.009  -0.818  -1.089  0.00  0.00    +0.560 C 
ATOM      4  N   LIG    1       -0.248  -2.117  -0.780  0.00  0.00    -0.670 N 
ATOM      5  H   LIG    1       -0.124  -2.889  -1.355  0.00  0.00    +0.450 HD
ATOM      6  C   LIG    1       -0.747  -2.115   0.587  0.00  0.00    +0.190 C 
ATOM      7  C   LIG    1       -0.400  -3.286   1.488  0.00  0.00    +0.210 C 
ATOM      8  C   LIG    1       -0.961  -2.896   2.891  0.00  0.00    +0.140 C 
ATOM      9  C   LIG    1       -0.441  -1.539   3.356  0.00  0.00    +0.150 C 
ATOM     10  O   LIG    1       -0.611  -0.519   2.354  0.00  0.00    -0.340 OA
ATOM     11  S   LIG    1        0.310  -0.264  -2.680  0.00  0.00    -0.590 S 
ATOM     12  C   LIG    1        0.025  -0.884   1.155  0.00  0.00    +0.360 C 
ENDROOT
BRANCH   7  13
ATOM     13  O   LIG    1       -1.017  -4.490   1.028  0.00  0.00    -0.540 OA
ATOM     14  H   LIG    1       -0.874  -5.251   1.607  0.00  0.00    +0.390 HD
ENDBRANCH   7  13
BRANCH   8  15
ATOM     15  O   LIG    1       -2.387  -2.850   2.818  0.00  0.00    -0.540 OA
ATOM     16  H   LIG    1       -2.818  -2.649   3.660  0.00  0.00    +0.380 HD
ENDBRANCH   8  15
BRANCH   9  17
ATOM     17  C   LIG    1       -1.200  -1.125   4.619  0.00  0.00    +0.220 C 
BRANCH  17  18
ATOM     18  O   LIG    1       -0.606   0.053   5.166  0.00  0.00    -0.560 OA
ATOM     19  H   LIG    1       -1.036   0.373   5.971  0.00  0.00    +0.390 HD
ENDBRANCH  17  18
ENDBRANCH   9  17
TORSDOF 4
ENDMDL
MODEL     1128
REMARK  Name = ZINC000005613304
REMARK                            x       y       z     vdW  Elec       q    Type
REMARK                         _______ _______ _______ _____ _____    ______ ____
ROOT
ATOM      1  C   LIG    1       -1.136  -2.159   0.001  0.00  0.00    +0.420 C 
ATOM      2  O   LIG    1       -1.260  -2.630  -1.342  0.00  0.00    -0.350 OA
ATOM      3  C   LIG    1       -2.452  -2.200  -2.003  0.00  0.00    +0.180 C 
ATOM      4  C   LIG    1       -3.673  -2.733  -1.248  0.00  0.00    +0.170 C 
ATOM      5  C   LIG    1       -3.623  -2.239   0.201  0.00  0.00    +0.150 C 
ATOM      6  C   LIG    1       -2.304  -2.690   0.837  0.00  0.00    +0.140 C 
ENDROOT
BRANCH   1   9
ATOM      7  C   LIG    1       -0.018   1.503   0.010  0.00  0.00    +0.100 C 
ATOM      8  C   LIG    1        0.002  -0.004   0.002  0.00  0.00    +0.520 C 
ATOM      9  N   LIG    1       -1.156  -0.694   0.009  0.00  0.00    -0.740 N 
ATOM     10  H   LIG    1       -2.002  -0.220   0.020  0.00  0.00    +0.400 HD
ATOM     11  O   LIG    1        1.060  -0.596  -0.011  0.00  0.00    -0.530 OA
ENDBRANCH   1   9
BRANCH   5  12
ATOM     12  O   LIG    1       -4.720  -2.790   0.932  0.00  0.00    -0.560 OA
ATOM     13  H   LIG    1       -4.751  -2.518   1.860  0.00  0.00    +0.390 HD
ENDBRANCH   5  12
BRANCH   4  14
ATOM     14  O   LIG    1       -3.661  -4.162  -1.268  0.00  0.00    -0.550 OA
ATOM     15  H   LIG    1       -4.407  -4.568  -0.807  0.00  0.00    +0.390 HD
ENDBRANCH   4  14
BRANCH   6  16
ATOM     16  O   LIG    1       -2.214  -2.174   2.167  0.00  0.00    -0.560 OA
ATOM     17  H   LIG    1       -1.402  -2.421   2.631  0.00  0.00    +0.390 HD
ENDBRANCH   6  16
BRANCH   3  18
ATOM     18  C   LIG    1       -2.463  -2.737  -3.436  0.00  0.00    +0.220 C 
BRANCH  18  19
ATOM     19  O   LIG    1       -1.390  -2.150  -4.173  0.00  0.00    -0.570 OA
ATOM     20  H   LIG    1       -1.336  -2.446  -5.092  0.00  0.00    +0.380 HD
ENDBRANCH  18  19
ENDBRANCH   3  18
TORSDOF 6
ENDMDL
MODEL     1129
REMARK  Name = ZINC000005640723
REMARK                            x       y       z     vdW  Elec       q    Type
REMARK                         _______ _______ _______ _____ _____    ______ ____
ROOT
ATOM      1  C   LIG    1       -0.018   1.461   0.010  0.00  0.00    +0.350 C 
ATOM      2  N   LIG    1        0.002  -0.004   0.002  0.00  0.00    -0.570 N 
ATOM      3  C   LIG    1        0.007  -0.751  -1.110  0.00  0.00    +0.710 C 
ATOM      4  N   LIG    1        0.027  -2.073  -0.841  0.00  0.00    -0.700 N 
ATOM      5  H   LIG    1        0.034  -2.799  -1.484  0.00  0.00    +0.450 HD
ATOM      6  C   LIG    1        0.035  -2.191   0.617  0.00  0.00    +0.290 C 
ATOM      7  C   LIG    1        1.243  -2.941   1.113  0.00  0.00    +0.540 C 
ATOM      8  N   LIG    1        0.748  -3.994   1.799  0.00  0.00    -0.570 N 
ATOM      9  C   LIG    1       -0.591  -3.999   1.796  0.00  0.00    +0.710 C 
ATOM     10  O   LIG    1       -1.266  -4.846   2.348  0.00  0.00    -0.510 OA
ATOM     11  C   LIG    1        1.574  -5.005   2.464  0.00  0.00    +0.350 C 
ATOM     12  O   LIG    1        2.409  -2.660   0.935  0.00  0.00    -0.430 OA
ATOM     13  N   LIG    1       -1.107  -2.957   1.113  0.00  0.00    -0.610 N 
ATOM     14  C   LIG    1       -2.526  -2.653   0.909  0.00  0.00    +0.370 C 
ATOM     15  O   LIG    1       -0.004  -0.290  -2.234  0.00  0.00    -0.510 OA
ATOM     16  C   LIG    1        0.023  -0.770   1.115  0.00  0.00    +0.540 C 
ATOM     17  O   LIG    1        0.025  -0.394   2.268  0.00  0.00    -0.430 OA
ENDROOT
TORSDOF 0
ENDMDL
MODEL     1130
REMARK  Name = ZINC000005732061
REMARK                            x       y       z     vdW  Elec       q    Type
REMARK                         _______ _______ _______ _____ _____    ______ ____
ROOT
ATOM      1  C   LIG    1        0.673  -0.582   1.123  0.00  0.00    +0.160 C 
ATOM      2  C   LIG    1        2.156  -0.772   0.790  0.00  0.00    +0.170 C 
ATOM      3  C   LIG    1        2.849  -1.463   1.968  0.00  0.00    +0.140 C 
ATOM      4  C   LIG    1        2.144  -2.791   2.257  0.00  0.00    +0.280 C 
ATOM      5  O   LIG    1        0.763  -2.546   2.528  0.00  0.00    -0.370 OA
ATOM      6  C   LIG    1        0.052  -1.944   1.445  0.00  0.00    +0.190 C 
ENDROOT
BRANCH   1   8
ATOM      7  C   LIG    1       -0.017   1.425   0.010  0.00  0.00    +0.220 C 
ATOM      8  O   LIG    1        0.002  -0.004   0.002  0.00  0.00    -0.380 OA
ENDBRANCH   1   8
BRANCH   4   9
ATOM      9  O   LIG    1        2.750  -3.415   3.391  0.00  0.00    -0.370 OA
ATOM     10  C   LIG    1        2.321  -4.761   3.611  0.00  0.00    +0.220 C 
ENDBRANCH   4   9
BRANCH   3  11
ATOM     11  O   LIG    1        2.779  -0.623   3.123  0.00  0.00    -0.540 OA
ATOM     12  H   LIG    1        3.199  -0.999   3.909  0.00  0.00    +0.390 HD
ENDBRANCH   3  11
BRANCH   2  13
ATOM     13  O   LIG    1        2.761   0.502   0.558  0.00  0.00    -0.540 OA
ATOM     14  H   LIG    1        3.702   0.458   0.342  0.00  0.00    +0.380 HD
ENDBRANCH   2  13
BRANCH   6  15
ATOM     15  C   LIG    1       -1.415  -1.757   1.839  0.00  0.00    +0.230 C 
BRANCH  15  16
ATOM     16  O   LIG    1       -2.024  -3.036   2.026  0.00  0.00    -0.570 OA
ATOM     17  H   LIG    1       -2.957  -2.995   2.277  0.00  0.00    +0.380 HD
ENDBRANCH  15  16
ENDBRANCH   6  15
TORSDOF 6
ENDMDL
MODEL     1131
REMARK  Name = ZINC000005732071
REMARK                            x       y       z     vdW  Elec       q    Type
REMARK                         _______ _______ _______ _____ _____    ______ ____
ROOT
ATOM      1  C   LIG    1       -1.289  -0.604   0.125  0.00  0.00    +0.290 C 
ATOM      2  O   LIG    1       -1.829   0.196   1.179  0.00  0.00    -0.340 OA
ATOM      3  C   LIG    1       -1.137   0.067   2.423  0.00  0.00    +0.140 C 
ATOM      4  C   LIG    1       -1.219  -1.385   2.902  0.00  0.00    +0.120 C 
ATOM      5  C   LIG    1       -0.626  -2.303   1.829  0.00  0.00    +0.170 C 
ATOM      6  C   LIG    1       -1.377  -2.082   0.512  0.00  0.00    +0.190 C 
ENDROOT
BRANCH   1   8
ATOM      7  C   LIG    1        0.267   1.106  -0.507  0.00  0.00    +0.240 C 
ATOM      8  O   LIG    1        0.078  -0.248  -0.091  0.00  0.00    -0.400 OA
ENDBRANCH   1   8
BRANCH   5   9
ATOM      9  O   LIG    1       -0.763  -3.666   2.236  0.00  0.00    -0.550 OA
ATOM     10  H   LIG    1       -0.316  -3.874   3.068  0.00  0.00    +0.390 HD
ENDBRANCH   5   9
BRANCH   4  11
ATOM     11  O   LIG    1       -2.585  -1.736   3.131  0.00  0.00    -0.530 OA
ATOM     12  H   LIG    1       -3.025  -1.191   3.797  0.00  0.00    +0.370 HD
ENDBRANCH   4  11
BRANCH   6  13
ATOM     13  O   LIG    1       -2.747  -2.454   0.675  0.00  0.00    -0.530 OA
ATOM     14  H   LIG    1       -2.877  -3.379   0.926  0.00  0.00    +0.390 HD
ENDBRANCH   6  13
BRANCH   3  15
ATOM     15  C   LIG    1       -1.782   0.985   3.463  0.00  0.00    +0.200 C 
BRANCH  15  16
ATOM     16  O   LIG    1       -1.604   2.348   3.071  0.00  0.00    -0.560 OA
ATOM     17  H   LIG    1       -1.989   2.987   3.686  0.00  0.00    +0.380 HD
ENDBRANCH  15  16
ENDBRANCH   3  15
BRANCH   1  18
ATOM     18  C   LIG    1       -2.087  -0.364  -1.158  0.00  0.00    +0.220 C 
BRANCH  18  19
ATOM     19  O   LIG    1       -2.134   1.038  -1.435  0.00  0.00    -0.560 OA
ATOM     20  H   LIG    1       -2.625   1.264  -2.237  0.00  0.00    +0.380 HD
ENDBRANCH  18  19
ENDBRANCH   1  18
TORSDOF 8
ENDMDL
MODEL     1132
REMARK  Name = ZINC000005732062
REMARK                            x       y       z     vdW  Elec       q    Type
REMARK                         _______ _______ _______ _____ _____    ______ ____
ROOT
ATOM      1  C   LIG    1       -1.295  -0.603   0.011  0.00  0.00    +0.310 C 
ATOM      2  O   LIG    1       -1.933  -0.378  -1.248  0.00  0.00    -0.370 OA
ATOM      3  C   LIG    1       -1.214  -0.899  -2.367  0.00  0.00    +0.200 C 
ATOM      4  C   LIG    1       -1.076  -2.417  -2.223  0.00  0.00    +0.160 C 
ATOM      5  C   LIG    1       -0.369  -2.733  -0.901  0.00  0.00    +0.170 C 
ATOM      6  C   LIG    1       -1.161  -2.109   0.252  0.00  0.00    +0.140 C 
ENDROOT
BRANCH   1   8
ATOM      7  C   LIG    1       -0.017   1.425   0.010  0.00  0.00    +0.210 C 
ATOM      8  O   LIG    1        0.002  -0.004   0.002  0.00  0.00    -0.370 OA
ENDBRANCH   1   8
BRANCH   5   9
ATOM      9  O   LIG    1        0.953  -2.191  -0.924  0.00  0.00    -0.530 OA
ATOM     10  H   LIG    1        1.460  -2.354  -0.117  0.00  0.00    +0.380 HD
ENDBRANCH   5   9
BRANCH   4  11
ATOM     11  O   LIG    1       -0.308  -2.932  -3.312  0.00  0.00    -0.360 OA
ATOM     12  C   LIG    1       -0.651  -4.269  -3.682  0.00  0.00    +0.200 C 
ENDBRANCH   4  11
BRANCH   6  13
ATOM     13  O   LIG    1       -0.472  -2.338   1.483  0.00  0.00    -0.550 OA
ATOM     14  H   LIG    1       -0.918  -1.968   2.258  0.00  0.00    +0.390 HD
ENDBRANCH   6  13
BRANCH   3  15
ATOM     15  C   LIG    1       -1.972  -0.576  -3.656  0.00  0.00    +0.210 C 
BRANCH  15  16
ATOM     16  O   LIG    1       -2.001   0.840  -3.850  0.00  0.00    -0.570 OA
ATOM     17  H   LIG    1       -2.467   1.118  -4.651  0.00  0.00    +0.380 HD
ENDBRANCH  15  16
ENDBRANCH   3  15
TORSDOF 6
ENDMDL
MODEL     1133
REMARK  Name = ZINC000005732073
REMARK                            x       y       z     vdW  Elec       q    Type
REMARK                         _______ _______ _______ _____ _____    ______ ____
ROOT
ATOM      1  C   LIG    1       -1.289  -0.604   0.125  0.00  0.00    +0.290 C 
ATOM      2  O   LIG    1       -1.829   0.196   1.179  0.00  0.00    -0.350 OA
ATOM      3  C   LIG    1       -1.137   0.067   2.422  0.00  0.00    +0.140 C 
ATOM      4  C   LIG    1       -1.219  -1.385   2.902  0.00  0.00    +0.120 C 
ATOM      5  C   LIG    1       -0.626  -2.303   1.829  0.00  0.00    +0.180 C 
ATOM      6  C   LIG    1       -1.377  -2.082   0.512  0.00  0.00    +0.210 C 
ENDROOT
BRANCH   1   8
ATOM      7  C   LIG    1        0.268   1.105  -0.508  0.00  0.00    +0.230 C 
ATOM      8  O   LIG    1        0.078  -0.248  -0.091  0.00  0.00    -0.390 OA
ENDBRANCH   1   8
BRANCH   5   9
ATOM      9  O   LIG    1       -0.763  -3.665   2.237  0.00  0.00    -0.550 OA
ATOM     10  H   LIG    1       -0.316  -3.874   3.068  0.00  0.00    +0.390 HD
ENDBRANCH   5   9
BRANCH   4  11
ATOM     11  O   LIG    1       -2.586  -1.736   3.131  0.00  0.00    -0.540 OA
ATOM     12  H   LIG    1       -3.025  -1.190   3.797  0.00  0.00    +0.380 HD
ENDBRANCH   4  11
BRANCH   6  13
ATOM     13  O   LIG    1       -0.786  -2.882  -0.514  0.00  0.00    -0.550 OA
ATOM     14  H   LIG    1       -0.804  -3.831  -0.332  0.00  0.00    +0.390 HD
ENDBRANCH   6  13
BRANCH   3  15
ATOM     15  C   LIG    1       -1.782   0.985   3.463  0.00  0.00    +0.200 C 
BRANCH  15  16
ATOM     16  O   LIG    1       -1.603   2.348   3.071  0.00  0.00    -0.560 OA
ATOM     17  H   LIG    1       -1.988   2.988   3.686  0.00  0.00    +0.380 HD
ENDBRANCH  15  16
ENDBRANCH   3  15
BRANCH   1  18
ATOM     18  C   LIG    1       -2.087  -0.364  -1.158  0.00  0.00    +0.210 C 
BRANCH  18  19
ATOM     19  O   LIG    1       -2.134   1.038  -1.435  0.00  0.00    -0.560 OA
ATOM     20  H   LIG    1       -2.625   1.264  -2.237  0.00  0.00    +0.380 HD
ENDBRANCH  18  19
ENDBRANCH   1  18
TORSDOF 8
ENDMDL
MODEL     1134
REMARK  Name = ZINC000005732069
REMARK                            x       y       z     vdW  Elec       q    Type
REMARK                         _______ _______ _______ _____ _____    ______ ____
ROOT
ATOM      1  C   LIG    1       -1.335  -0.506  -0.034  0.00  0.00    +0.300 C 
ATOM      2  O   LIG    1       -2.017  -0.150  -1.239  0.00  0.00    -0.350 OA
ATOM      3  C   LIG    1       -3.354  -0.647  -1.321  0.00  0.00    +0.150 C 
ATOM      4  C   LIG    1       -3.332  -2.177  -1.279  0.00  0.00    +0.120 C 
ATOM      5  C   LIG    1       -2.639  -2.634   0.008  0.00  0.00    +0.160 C 
ATOM      6  C   LIG    1       -1.232  -2.031   0.060  0.00  0.00    +0.160 C 
ENDROOT
BRANCH   1   8
ATOM      7  C   LIG    1        0.741  -0.262  -1.207  0.00  0.00    +0.230 C 
ATOM      8  O   LIG    1       -0.023   0.060  -0.043  0.00  0.00    -0.350 OA
ENDBRANCH   1   8
BRANCH   5   9
ATOM      9  O   LIG    1       -2.550  -4.061   0.023  0.00  0.00    -0.550 OA
ATOM     10  H   LIG    1       -3.407  -4.508  -0.014  0.00  0.00    +0.390 HD
ENDBRANCH   5   9
BRANCH   4  11
ATOM     11  O   LIG    1       -2.616  -2.676  -2.411  0.00  0.00    -0.520 OA
ATOM     12  H   LIG    1       -2.998  -2.420  -3.262  0.00  0.00    +0.370 HD
ENDBRANCH   4  11
BRANCH   6  13
ATOM     13  O   LIG    1       -0.459  -2.527  -1.035  0.00  0.00    -0.520 OA
ATOM     14  H   LIG    1       -0.357  -3.489  -1.040  0.00  0.00    +0.380 HD
ENDBRANCH   6  13
BRANCH   3  15
ATOM     15  C   LIG    1       -3.991  -0.182  -2.633  0.00  0.00    +0.200 C 
BRANCH  15  16
ATOM     16  O   LIG    1       -4.116   1.242  -2.622  0.00  0.00    -0.560 OA
ATOM     17  H   LIG    1       -4.513   1.607  -3.425  0.00  0.00    +0.380 HD
ENDBRANCH  15  16
ENDBRANCH   3  15
BRANCH   1  18
ATOM     18  C   LIG    1       -2.114   0.028   1.170  0.00  0.00    +0.190 C 
BRANCH  18  19
ATOM     19  O   LIG    1       -2.240   1.447   1.064  0.00  0.00    -0.540 OA
ATOM     20  H   LIG    1       -2.724   1.855   1.795  0.00  0.00    +0.380 HD
ENDBRANCH  18  19
ENDBRANCH   1  18
TORSDOF 8
ENDMDL
MODEL     1135
REMARK  Name = ZINC000005732063
REMARK                            x       y       z     vdW  Elec       q    Type
REMARK                         _______ _______ _______ _____ _____    ______ ____
ROOT
ATOM      1  C   LIG    1       -1.295  -0.603   0.011  0.00  0.00    +0.160 C 
ATOM      2  C   LIG    1       -1.242  -1.950  -0.715  0.00  0.00    +0.200 C 
ATOM      3  O   LIG    1       -0.356  -2.829  -0.021  0.00  0.00    -0.370 OA
ATOM      4  C   LIG    1       -0.751  -3.115   1.322  0.00  0.00    +0.320 C 
ATOM      5  C   LIG    1       -0.784  -1.816   2.131  0.00  0.00    +0.150 C 
ATOM      6  C   LIG    1       -1.745  -0.828   1.458  0.00  0.00    +0.170 C 
ENDROOT
BRANCH   1   8
ATOM      7  C   LIG    1       -0.017   1.425   0.010  0.00  0.00    +0.200 C 
ATOM      8  O   LIG    1        0.002  -0.004   0.002  0.00  0.00    -0.370 OA
ENDBRANCH   1   8
BRANCH   5   9
ATOM      9  O   LIG    1       -1.233  -2.091   3.459  0.00  0.00    -0.550 OA
ATOM     10  H   LIG    1       -0.673  -2.713   3.943  0.00  0.00    +0.390 HD
ENDBRANCH   5   9
BRANCH   4  11
ATOM     11  O   LIG    1       -2.051  -3.709   1.320  0.00  0.00    -0.370 OA
ATOM     12  C   LIG    1       -2.083  -5.034   0.787  0.00  0.00    +0.210 C 
ENDBRANCH   4  11
BRANCH   6  13
ATOM     13  O   LIG    1       -3.069  -1.366   1.471  0.00  0.00    -0.540 OA
ATOM     14  H   LIG    1       -3.414  -1.540   2.357  0.00  0.00    +0.390 HD
ENDBRANCH   6  13
BRANCH   2  15
ATOM     15  C   LIG    1       -0.737  -1.739  -2.144  0.00  0.00    +0.210 C 
BRANCH  15  16
ATOM     16  O   LIG    1       -0.798  -2.975  -2.858  0.00  0.00    -0.570 OA
ATOM     17  H   LIG    1       -0.492  -2.916  -3.773  0.00  0.00    +0.380 HD
ENDBRANCH  15  16
ENDBRANCH   2  15
TORSDOF 6
ENDMDL
MODEL     1136
REMARK  Name = ZINC000005732060
REMARK                            x       y       z     vdW  Elec       q    Type
REMARK                         _______ _______ _______ _____ _____    ______ ____
ROOT
ATOM      1  C   LIG    1       -1.295  -0.603   0.011  0.00  0.00    +0.280 C 
ATOM      2  O   LIG    1       -1.933  -0.378  -1.248  0.00  0.00    -0.370 OA
ATOM      3  C   LIG    1       -3.254  -0.917  -1.337  0.00  0.00    +0.190 C 
ATOM      4  C   LIG    1       -3.198  -2.435  -1.151  0.00  0.00    +0.150 C 
ATOM      5  C   LIG    1       -2.550  -2.752   0.200  0.00  0.00    +0.170 C 
ATOM      6  C   LIG    1       -1.161  -2.109   0.252  0.00  0.00    +0.140 C 
ENDROOT
BRANCH   1   8
ATOM      7  C   LIG    1       -0.017   1.425   0.010  0.00  0.00    +0.220 C 
ATOM      8  O   LIG    1        0.002  -0.004   0.002  0.00  0.00    -0.370 OA
ENDBRANCH   1   8
BRANCH   5   9
ATOM      9  O   LIG    1       -2.429  -4.168   0.351  0.00  0.00    -0.540 OA
ATOM     10  H   LIG    1       -2.025  -4.441   1.187  0.00  0.00    +0.380 HD
ENDBRANCH   5   9
BRANCH   4  11
ATOM     11  O   LIG    1       -2.423  -3.017  -2.202  0.00  0.00    -0.340 OA
ATOM     12  C   LIG    1       -2.821  -4.344  -2.550  0.00  0.00    +0.200 C 
ENDBRANCH   4  11
BRANCH   6  13
ATOM     13  O   LIG    1       -0.331  -2.683  -0.760  0.00  0.00    -0.520 OA
ATOM     14  H   LIG    1        0.566  -2.321  -0.785  0.00  0.00    +0.380 HD
ENDBRANCH   6  13
BRANCH   3  15
ATOM     15  C   LIG    1       -3.845  -0.592  -2.711  0.00  0.00    +0.220 C 
BRANCH  15  16
ATOM     16  O   LIG    1       -4.004   0.822  -2.839  0.00  0.00    -0.570 OA
ATOM     17  H   LIG    1       -4.375   1.101  -3.687  0.00  0.00    +0.380 HD
ENDBRANCH  15  16
ENDBRANCH   3  15
TORSDOF 6
ENDMDL
MODEL     1137
REMARK  Name = ZINC000005759100
REMARK                            x       y       z     vdW  Elec       q    Type
REMARK                         _______ _______ _______ _____ _____    ______ ____
ROOT
ATOM      1  O   LIG    1        0.002  -0.004   0.002  0.00  0.00    -0.490 OA
ATOM      2  C   LIG    1       -0.014   1.214   0.009  0.00  0.00    +0.540 A 
ATOM      3  N   LIG    1       -1.188   1.878   0.029  0.00  0.00    -0.650 N 
ATOM      4  H   LIG    1       -2.022   1.384   0.038  0.00  0.00    +0.440 HD
ATOM      5  C   LIG    1       -1.206   3.224   0.037  0.00  0.00    +0.690 A 
ATOM      6  N   LIG    1       -0.062   3.932   0.024  0.00  0.00    -0.520 N 
ATOM      7  C   LIG    1        1.153   3.295   0.004  0.00  0.00    +0.340 A 
ATOM      8  O   LIG    1       -2.272   3.808   0.055  0.00  0.00    -0.500 OA
ATOM      9  C   LIG    1        1.199   1.946   0.001  0.00  0.00    -0.070 A 
ATOM     10  F   LIG    1        2.387   1.302  -0.018  0.00  0.00    -0.100 F 
ENDROOT
BRANCH   6  11
ATOM     11  C   LIG    1       -0.114   5.396   0.033  0.00  0.00    +0.410 C 
ATOM     12  O   LIG    1       -1.480   5.846   0.119  0.00  0.00    -0.310 OA
ATOM     13  C   LIG    1       -1.618   6.547   1.388  0.00  0.00    +0.170 C 
ATOM     14  C   LIG    1       -1.398   5.430   2.456  0.00  0.00    +0.200 C 
ATOM     15  O   LIG    1        0.009   5.121   2.401  0.00  0.00    -0.360 OA
ATOM     16  C   LIG    1       -0.233   7.285   1.481  0.00  0.00    +0.160 C 
ATOM     17  C   LIG    1        0.588   5.954   1.311  0.00  0.00    +0.210 C 
BRANCH  16  18
ATOM     18  O   LIG    1       -0.037   7.890   2.761  0.00  0.00    -0.530 OA
ATOM     19  H   LIG    1       -0.533   8.710   2.888  0.00  0.00    +0.390 HD
ENDBRANCH  16  18
ENDBRANCH   6  11
TORSDOF 2
ENDMDL
MODEL     1138
REMARK  Name = ZINC000005759102
REMARK                            x       y       z     vdW  Elec       q    Type
REMARK                         _______ _______ _______ _____ _____    ______ ____
ROOT
ATOM      1  O   LIG    1        0.011  -0.004   0.035  0.00  0.00    -0.480 OA
ATOM      2  C   LIG    1       -0.009   1.214   0.030  0.00  0.00    +0.540 A 
ATOM      3  N   LIG    1       -1.057   1.879   0.556  0.00  0.00    -0.650 N 
ATOM      4  H   LIG    1       -1.799   1.386   0.939  0.00  0.00    +0.440 HD
ATOM      5  C   LIG    1       -1.079   3.225   0.550  0.00  0.00    +0.700 A 
ATOM      6  N   LIG    1       -0.062   3.932   0.024  0.00  0.00    -0.530 N 
ATOM      7  C   LIG    1        1.023   3.294  -0.520  0.00  0.00    +0.330 A 
ATOM      8  O   LIG    1       -2.031   3.811   1.028  0.00  0.00    -0.520 OA
ATOM      9  C   LIG    1        1.073   1.944  -0.522  0.00  0.00    -0.060 A 
ATOM     10  F   LIG    1        2.134   1.299  -1.054  0.00  0.00    -0.100 F 
ENDROOT
BRANCH   6  11
ATOM     11  C   LIG    1       -0.114   5.396   0.033  0.00  0.00    +0.430 C 
ATOM     12  O   LIG    1        0.771   5.933  -0.970  0.00  0.00    -0.350 OA
ATOM     13  C   LIG    1        1.711   6.808  -0.283  0.00  0.00    +0.180 C 
ATOM     14  C   LIG    1        0.816   7.966   0.258  0.00  0.00    +0.210 C 
ATOM     15  O   LIG    1        0.055   7.388   1.337  0.00  0.00    -0.350 OA
ATOM     16  C   LIG    1        1.953   6.009   1.049  0.00  0.00    +0.130 C 
ATOM     17  C   LIG    1        0.418   5.947   1.393  0.00  0.00    +0.220 C 
BRANCH  16  18
ATOM     18  O   LIG    1        2.697   6.773   2.000  0.00  0.00    -0.530 OA
ATOM     19  H   LIG    1        3.644   6.825   1.808  0.00  0.00    +0.390 HD
ENDBRANCH  16  18
ENDBRANCH   6  11
TORSDOF 2
ENDMDL
MODEL     1139
REMARK  Name = ZINC000005759105
REMARK                            x       y       z     vdW  Elec       q    Type
REMARK                         _______ _______ _______ _____ _____    ______ ____
ROOT
ATOM      1  C   LIG    1        2.434  -2.540   1.074  0.00  0.00    +0.130 C 
ATOM      2  C   LIG    1        1.174  -1.935   0.510  0.00  0.00    -0.250 A 
ATOM      3  C   LIG    1        0.019  -2.636   0.512  0.00  0.00    +0.340 A 
ATOM      4  N   LIG    1       -1.116  -2.072  -0.004  0.00  0.00    -0.540 N 
ATOM      5  C   LIG    1       -1.092  -0.826  -0.512  0.00  0.00    +0.700 A 
ATOM      6  N   LIG    1        0.045  -0.106  -0.526  0.00  0.00    -0.660 N 
ATOM      7  H   LIG    1        0.044   0.790  -0.896  0.00  0.00    +0.430 HD
ATOM      8  O   LIG    1       -2.113  -0.344  -0.965  0.00  0.00    -0.530 OA
ATOM      9  C   LIG    1        1.183  -0.624  -0.023  0.00  0.00    +0.550 A 
ATOM     10  O   LIG    1        2.212   0.027  -0.035  0.00  0.00    -0.500 OA
ENDROOT
BRANCH   4  11
ATOM     11  C   LIG    1       -2.369  -2.831  -0.002  0.00  0.00    +0.430 C 
ATOM     12  O   LIG    1       -2.316  -3.880   0.986  0.00  0.00    -0.350 OA
ATOM     13  C   LIG    1       -2.543  -5.136   0.285  0.00  0.00    +0.170 C 
ATOM     14  C   LIG    1       -4.012  -5.015  -0.229  0.00  0.00    +0.200 C 
ATOM     15  O   LIG    1       -3.965  -4.046  -1.296  0.00  0.00    -0.350 OA
ATOM     16  C   LIG    1       -1.766  -4.881  -1.057  0.00  0.00    +0.140 C 
ATOM     17  C   LIG    1       -2.562  -3.559  -1.369  0.00  0.00    +0.220 C 
BRANCH  16  18
ATOM     18  O   LIG    1       -2.013  -5.909  -2.019  0.00  0.00    -0.530 OA
ATOM     19  H   LIG    1       -1.534  -6.731  -1.847  0.00  0.00    +0.390 HD
ENDBRANCH  16  18
ENDBRANCH   4  11
TORSDOF 2
ENDMDL
MODEL     1140
REMARK  Name = ZINC000005759103
REMARK                            x       y       z     vdW  Elec       q    Type
REMARK                         _______ _______ _______ _____ _____    ______ ____
ROOT
ATOM      1  C   LIG    1       -0.018   1.503   0.010  0.00  0.00    +0.140 C 
ATOM      2  C   LIG    1        0.002  -0.004   0.002  0.00  0.00    -0.260 A 
ATOM      3  C   LIG    1       -1.153  -0.704   0.004  0.00  0.00    +0.350 A 
ATOM      4  N   LIG    1       -1.116  -2.072  -0.004  0.00  0.00    -0.530 N 
ATOM      5  C   LIG    1        0.060  -2.726  -0.013  0.00  0.00    +0.710 A 
ATOM      6  N   LIG    1        1.226  -2.053  -0.016  0.00  0.00    -0.660 N 
ATOM      7  H   LIG    1        2.064  -2.540  -0.023  0.00  0.00    +0.430 HD
ATOM      8  O   LIG    1        0.069  -3.942  -0.020  0.00  0.00    -0.540 OA
ATOM      9  C   LIG    1        1.232  -0.705  -0.013  0.00  0.00    +0.550 A 
ATOM     10  O   LIG    1        2.287  -0.095  -0.016  0.00  0.00    -0.510 OA
ENDROOT
BRANCH   4  11
ATOM     11  C   LIG    1       -2.369  -2.831  -0.002  0.00  0.00    +0.420 C 
ATOM     12  O   LIG    1       -3.497  -1.935  -0.056  0.00  0.00    -0.350 OA
ATOM     13  C   LIG    1       -4.179  -2.186  -1.317  0.00  0.00    +0.170 C 
ATOM     14  C   LIG    1       -3.144  -1.742  -2.397  0.00  0.00    +0.190 C 
ATOM     15  O   LIG    1       -2.113  -2.749  -2.374  0.00  0.00    -0.360 OA
ATOM     16  C   LIG    1       -4.039  -3.747  -1.434  0.00  0.00    +0.150 C 
ATOM     17  C   LIG    1       -2.473  -3.706  -1.291  0.00  0.00    +0.220 C 
BRANCH  16  18
ATOM     18  O   LIG    1       -4.459  -4.225  -2.714  0.00  0.00    -0.530 OA
ATOM     19  H   LIG    1       -5.419  -4.259  -2.825  0.00  0.00    +0.390 HD
ENDBRANCH  16  18
ENDBRANCH   4  11
TORSDOF 2
ENDMDL
MODEL     1141
REMARK  Name = ZINC000005760417
REMARK                            x       y       z     vdW  Elec       q    Type
REMARK                         _______ _______ _______ _____ _____    ______ ____
ROOT
ATOM      1  C   LIG    1        0.001  -4.173  -0.023  0.00  0.00    +0.270 C 
ATOM      2  C   LIG    1       -0.885  -4.677  -1.138  0.00  0.00    +0.030 C 
ATOM      3  C   LIG    1       -2.042  -5.068  -0.678  0.00  0.00    -0.170 C 
ATOM      4  C   LIG    1       -2.121  -4.890   0.820  0.00  0.00    +0.180 C 
ATOM      5  C   LIG    1       -0.651  -4.708   1.274  0.00  0.00    +0.200 C 
ENDROOT
BRANCH   1   9
ATOM      6  C   LIG    1        0.144  -0.006   0.007  0.00  0.00    +0.510 A 
ATOM      7  N   LIG    1        1.255  -0.728   0.067  0.00  0.00    -0.620 NA
ATOM      8  C   LIG    1        1.203  -2.059   0.057  0.00  0.00    +0.660 A 
ATOM      9  N   LIG    1        0.026  -2.708  -0.014  0.00  0.00    -0.510 N 
ATOM     10  C   LIG    1       -1.142  -2.009  -0.077  0.00  0.00    +0.400 A 
ATOM     11  O   LIG    1        2.239  -2.700   0.114  0.00  0.00    -0.550 OA
ATOM     12  C   LIG    1       -1.106  -0.656  -0.062  0.00  0.00    -0.180 A 
BRANCH   6  13
ATOM     13  N   LIG    1        0.210   1.367   0.019  0.00  0.00    -0.820 N 
ATOM     14  H   LIG    1        1.071   1.811   0.071  0.00  0.00    +0.410 HD
ATOM     15  H   LIG    1       -0.605   1.893  -0.021  0.00  0.00    +0.410 HD
ENDBRANCH   6  13
ENDBRANCH   1   9
BRANCH   4  16
ATOM     16  O   LIG    1       -2.891  -3.731   1.144  0.00  0.00    -0.540 OA
ATOM     17  H   LIG    1       -3.808  -3.770   0.839  0.00  0.00    +0.380 HD
ENDBRANCH   4  16
BRANCH   5  18
ATOM     18  O   LIG    1       -0.555  -3.752   2.331  0.00  0.00    -0.530 OA
ATOM     19  H   LIG    1       -1.037  -4.001   3.131  0.00  0.00    +0.390 HD
ENDBRANCH   5  18
BRANCH   3  20
ATOM     20  C   LIG    1       -3.154  -5.625  -1.530  0.00  0.00    +0.250 C 
BRANCH  20  21
ATOM     21  O   LIG    1       -2.738  -5.652  -2.897  0.00  0.00    -0.570 OA
ATOM     22  H   LIG    1       -3.406  -6.000  -3.504  0.00  0.00    +0.390 HD
ENDBRANCH  20  21
ENDBRANCH   3  20
TORSDOF 6
ENDMDL
MODEL     1142
REMARK  Name = ZINC000001576026
REMARK                            x       y       z     vdW  Elec       q    Type
REMARK                         _______ _______ _______ _____ _____    ______ ____
ROOT
ATOM      1  CA  SER A  2        2.783  -1.099   2.395  0.00  0.00    +0.250 C 
ENDROOT
BRANCH   1   4
ATOM      2  N   ALA A  3        0.711  -0.489   1.189  0.00  0.00    -0.680 N 
ATOM      3  H   ALA A  3        0.213  -0.731   1.986  0.00  0.00    +0.410 HD
ATOM      4  C   SER A  2        2.054  -0.600   1.174  0.00  0.00    +0.510 C 
ATOM      5  O   SER A  2        2.676  -0.297   0.177  0.00  0.00    -0.550 OA
BRANCH   2   7
ATOM      6  CB  ALA A  3       -0.019   1.526   0.010  0.00  0.00    +0.030 C 
ATOM      7  CA  ALA A  3        0.002  -0.004   0.002  0.00  0.00    +0.150 C 
BRANCH   7   8
ATOM      8  C   ALA A  3       -1.412  -0.526   0.013  0.00  0.00    +0.490 C 
ATOM      9  OXT ALA A  3       -1.849  -1.081   1.006  0.00  0.00    -0.690 OA
ATOM     10  O   ALA A  3       -2.118  -0.393  -0.972  0.00  0.00    -0.680 OA
ENDBRANCH   7   8
ENDBRANCH   2   7
ENDBRANCH   1   4
BRANCH   1  11
ATOM     11  N   SER A  2        4.223  -1.127   2.126  0.00  0.00    -0.670 N 
ATOM     12  H   SER A  2        4.602  -0.541   1.453  0.00  0.00    +0.420 HD
ATOM     13  C   GLY A  1        5.020  -1.968   2.815  0.00  0.00    +0.490 C 
ATOM     14  O   GLY A  1        4.546  -2.701   3.657  0.00  0.00    -0.540 OA
BRANCH  13  15
ATOM     15  CA  GLY A  1        6.501  -1.997   2.539  0.00  0.00    +0.310 C 
BRANCH  15  16
ATOM     16  N   GLY A  1        7.143  -2.988   3.413  0.00  0.00    -0.620 N 
ATOM     17  H1  GLY A  1        8.135  -3.008   3.228  0.00  0.00    +0.440 HD
ATOM     18  H2  GLY A  1        6.749  -3.900   3.233  0.00  0.00    +0.440 HD
ATOM     19  H3  GLY A  1        6.985  -2.738   4.377  0.00  0.00    +0.440 HD
ENDBRANCH  15  16
ENDBRANCH  13  15
ENDBRANCH   1  11
BRANCH   1  20
ATOM     20  CB  SER A  2        2.502  -0.165   3.574  0.00  0.00    +0.200 C 
BRANCH  20  21
ATOM     21  OG  SER A  2        2.845   1.174   3.213  0.00  0.00    -0.560 OA
ATOM     22  H   SER A  2        2.693   1.822   3.914  0.00  0.00    +0.390 HD
ENDBRANCH  20  21
ENDBRANCH   1  20
TORSDOF 8
ENDMDL
MODEL     1143
REMARK  Name = ZINC000001576023
REMARK                            x       y       z     vdW  Elec       q    Type
REMARK                         _______ _______ _______ _____ _____    ______ ____
ROOT
ATOM      1  CA  SER A  2       -3.465  -1.164  -1.134  0.00  0.00    +0.250 C 
ENDROOT
BRANCH   1   4
ATOM      2  N   ALA A  3       -1.372  -0.511   0.012  0.00  0.00    -0.680 N 
ATOM      3  H   ALA A  3       -1.794  -0.752   0.852  0.00  0.00    +0.410 HD
ATOM      4  C   SER A  2       -2.051  -0.643  -1.145  0.00  0.00    +0.510 C 
ATOM      5  O   SER A  2       -1.524  -0.341  -2.194  0.00  0.00    -0.550 OA
BRANCH   2   7
ATOM      6  CB  ALA A  3       -0.019   1.526   0.010  0.00  0.00    +0.030 C 
ATOM      7  CA  ALA A  3        0.002  -0.004   0.002  0.00  0.00    +0.150 C 
BRANCH   7   8
ATOM      8  C   ALA A  3        0.731  -0.503   1.223  0.00  0.00    +0.490 C 
ATOM      9  OXT ALA A  3        1.935  -0.690   1.180  0.00  0.00    -0.680 OA
ATOM     10  O   ALA A  3        0.117  -0.721   2.253  0.00  0.00    -0.690 OA
ENDBRANCH   7   8
ENDBRANCH   2   7
ENDBRANCH   1   4
BRANCH   1  11
ATOM     11  N   SER A  2       -3.978  -1.213  -2.505  0.00  0.00    -0.670 N 
ATOM     12  H   SER A  2       -3.606  -0.627  -3.183  0.00  0.00    +0.420 HD
ATOM     13  C   GLY A  1       -4.965  -2.072  -2.825  0.00  0.00    +0.490 C 
ATOM     14  O   GLY A  1       -5.430  -2.805  -1.978  0.00  0.00    -0.540 OA
BRANCH  13  15
ATOM     15  CA  GLY A  1       -5.493  -2.122  -4.236  0.00  0.00    +0.310 C 
BRANCH  15  16
ATOM     16  N   GLY A  1       -6.557  -3.131  -4.325  0.00  0.00    -0.620 N 
ATOM     17  H1  GLY A  1       -6.910  -3.165  -5.270  0.00  0.00    +0.440 HD
ATOM     18  H2  GLY A  1       -7.306  -2.887  -3.695  0.00  0.00    +0.440 HD
ATOM     19  H3  GLY A  1       -6.186  -4.035  -4.073  0.00  0.00    +0.440 HD
ENDBRANCH  15  16
ENDBRANCH  13  15
ENDBRANCH   1  11
BRANCH   1  20
ATOM     20  CB  SER A  2       -4.344  -0.237  -0.293  0.00  0.00    +0.200 C 
BRANCH  20  21
ATOM     21  OG  SER A  2       -4.234   1.100  -0.786  0.00  0.00    -0.560 OA
ATOM     22  H   SER A  2       -4.766   1.744  -0.299  0.00  0.00    +0.390 HD
ENDBRANCH  20  21
ENDBRANCH   1  20
TORSDOF 8
ENDMDL
MODEL     1144
REMARK  Name = ZINC000005784287
REMARK                            x       y       z     vdW  Elec       q    Type
REMARK                         _______ _______ _______ _____ _____    ______ ____
ROOT
ATOM      1  C1* LIG    1        2.366   0.221  -0.181  0.00  0.00    +0.410 C 
ATOM      2  O4* LIG    1        3.117  -0.104  -1.370  0.00  0.00    -0.340 OA
ATOM      3  C4* LIG    1        4.468   0.330  -1.145  0.00  0.00    +0.150 C 
ATOM      4  C3* LIG    1        4.707   0.311   0.378  0.00  0.00    +0.140 C 
ATOM      5  C2* LIG    1        3.343  -0.120   0.973  0.00  0.00    +0.170 C 
ENDROOT
BRANCH   1  12
ATOM      6  C   LIG    1        0.125  -0.205   0.697  0.00  0.00    +0.670 A 
ATOM      7  N   LIG    1       -0.974  -0.924   0.795  0.00  0.00    -0.630 NA
ATOM      8  C   LIG    1       -1.102  -2.075   0.120  0.00  0.00    +0.520 A 
ATOM      9  C   LIG    1       -0.040  -2.520  -0.709  0.00  0.00    -0.130 A 
ATOM     10  C   LIG    1        1.079  -1.769  -0.797  0.00  0.00    +0.320 A 
ATOM     11  O   LIG    1       -2.125  -2.735   0.217  0.00  0.00    -0.520 OA
ATOM     12  N   LIG    1        1.157  -0.603  -0.093  0.00  0.00    -0.530 N 
BRANCH   6  13
ATOM     13  N   LIG    1        0.228   0.966   1.399  0.00  0.00    -0.810 N 
ATOM     14  H   LIG    1       -0.464   1.215   2.031  0.00  0.00    +0.430 HD
ATOM     15  H   LIG    1        0.991   1.549   1.261  0.00  0.00    +0.410 HD
ENDBRANCH   6  13
ENDBRANCH   1  12
BRANCH   4  16
ATOM     16  O3* LIG    1        5.066   1.614   0.843  0.00  0.00    -0.540 OA
ATOM     17  H3* LIG    1        5.884   1.958   0.458  0.00  0.00    +0.390 HD
ENDBRANCH   4  16
BRANCH   5  18
ATOM     18  O2* LIG    1        3.038   0.635   2.147  0.00  0.00    -0.530 OA
ATOM     19  H2* LIG    1        3.675   0.521   2.865  0.00  0.00    +0.400 HD
ENDBRANCH   5  18
BRANCH   3  20
ATOM     20  C5* LIG    1        5.444  -0.623  -1.839  0.00  0.00    +0.210 C 
BRANCH  20  21
ATOM     21  O5* LIG    1        5.282  -0.522  -3.255  0.00  0.00    -0.560 OA
ATOM     22  H5* LIG    1        5.870  -1.099  -3.761  0.00  0.00    +0.390 HD
ENDBRANCH  20  21
ENDBRANCH   3  20
TORSDOF 6
ENDMDL
MODEL     1145
REMARK  Name = ZINC000001576024
REMARK                            x       y       z     vdW  Elec       q    Type
REMARK                         _______ _______ _______ _____ _____    ______ ____
ROOT
ATOM      1  CA  SER A  2        2.783  -1.099   2.395  0.00  0.00    +0.260 C 
ENDROOT
BRANCH   1   4
ATOM      2  N   ALA A  3        0.711  -0.489   1.189  0.00  0.00    -0.680 N 
ATOM      3  H   ALA A  3        0.213  -0.731   1.986  0.00  0.00    +0.410 HD
ATOM      4  C   SER A  2        2.054  -0.600   1.174  0.00  0.00    +0.510 C 
ATOM      5  O   SER A  2        2.676  -0.297   0.177  0.00  0.00    -0.550 OA
BRANCH   2   7
ATOM      6  CB  ALA A  3       -0.019   1.526   0.010  0.00  0.00    +0.020 C 
ATOM      7  CA  ALA A  3        0.002  -0.004   0.002  0.00  0.00    +0.160 C 
BRANCH   7   8
ATOM      8  C   ALA A  3       -1.412  -0.526   0.013  0.00  0.00    +0.500 C 
ATOM      9  OXT ALA A  3       -1.849  -1.081   1.006  0.00  0.00    -0.690 OA
ATOM     10  O   ALA A  3       -2.118  -0.393  -0.972  0.00  0.00    -0.680 OA
ENDBRANCH   7   8
ENDBRANCH   2   7
ENDBRANCH   1   4
BRANCH   1  11
ATOM     11  N   SER A  2        4.223  -1.127   2.126  0.00  0.00    -0.670 N 
ATOM     12  H   SER A  2        4.545  -1.208   1.215  0.00  0.00    +0.420 HD
ATOM     13  C   GLY A  1        5.100  -1.042   3.146  0.00  0.00    +0.490 C 
ATOM     14  O   GLY A  1        4.697  -0.941   4.285  0.00  0.00    -0.540 OA
BRANCH  13  15
ATOM     15  CA  GLY A  1        6.581  -1.071   2.869  0.00  0.00    +0.320 C 
BRANCH  15  16
ATOM     16  N   GLY A  1        7.317  -0.963   4.136  0.00  0.00    -0.620 N 
ATOM     17  H1  GLY A  1        8.309  -0.983   3.951  0.00  0.00    +0.440 HD
ATOM     18  H2  GLY A  1        7.072  -1.738   4.735  0.00  0.00    +0.440 HD
ATOM     19  H3  GLY A  1        7.077  -0.096   4.592  0.00  0.00    +0.440 HD
ENDBRANCH  15  16
ENDBRANCH  13  15
ENDBRANCH   1  11
BRANCH   1  20
ATOM     20  CB  SER A  2        2.300  -2.510   2.736  0.00  0.00    +0.210 C 
BRANCH  20  21
ATOM     21  OG  SER A  2        2.455  -3.356   1.594  0.00  0.00    -0.560 OA
ATOM     22  H   SER A  2        2.168  -4.268   1.738  0.00  0.00    +0.390 HD
ENDBRANCH  20  21
ENDBRANCH   1  20
TORSDOF 8
ENDMDL
MODEL     1146
REMARK  Name = ZINC000227028270
REMARK                            x       y       z     vdW  Elec       q    Type
REMARK                         _______ _______ _______ _____ _____    ______ ____
ROOT
ATOM      1  C   LIG    1        1.304  -2.596  -2.255  0.00  0.00    +0.400 C 
ATOM      2  O   LIG    1        0.322  -2.926  -3.240  0.00  0.00    -0.380 OA
ATOM      3  C   LIG    1        0.856  -3.545  -4.412  0.00  0.00    +0.220 C 
ATOM      4  C   LIG    1        1.536  -4.862  -4.027  0.00  0.00    +0.120 C 
ATOM      5  C   LIG    1        2.628  -4.580  -2.991  0.00  0.00    +0.210 C 
ATOM      6  C   LIG    1        2.001  -3.875  -1.784  0.00  0.00    +0.170 C 
ENDROOT
BRANCH   1   8
ATOM      7  C   LIG    1        0.600  -0.602  -1.046  0.00  0.00    +0.660 C 
ATOM      8  N   LIG    1        0.653  -1.946  -1.115  0.00  0.00    -0.690 N 
ATOM      9  H   LIG    1        0.260  -2.484  -0.409  0.00  0.00    +0.410 HD
ATOM     10  O   LIG    1        1.092   0.072  -1.930  0.00  0.00    -0.560 OA
BRANCH   7  12
ATOM     11  C   LIG    1       -0.018   1.448   0.010  0.00  0.00    +0.310 C 
ATOM     12  O   LIG    1        0.002  -0.004   0.002  0.00  0.00    -0.370 OA
ENDBRANCH   7  12
ENDBRANCH   1   8
BRANCH   5  13
ATOM     13  O   LIG    1        3.219  -5.812  -2.573  0.00  0.00    -0.540 OA
ATOM     14  H   LIG    1        3.630  -6.314  -3.290  0.00  0.00    +0.380 HD
ENDBRANCH   5  13
BRANCH   4  15
ATOM     15  O   LIG    1        0.567  -5.754  -3.473  0.00  0.00    -0.540 OA
ATOM     16  H   LIG    1       -0.157  -5.973  -4.075  0.00  0.00    +0.380 HD
ENDBRANCH   4  15
BRANCH   6  17
ATOM     17  O   LIG    1        3.023  -3.544  -0.841  0.00  0.00    -0.540 OA
ATOM     18  H   LIG    1        2.697  -3.094  -0.050  0.00  0.00    +0.380 HD
ENDBRANCH   6  17
TORSDOF 5
ENDMDL
MODEL     1147
REMARK  Name = ZINC000004195022
REMARK                            x       y       z     vdW  Elec       q    Type
REMARK                         _______ _______ _______ _____ _____    ______ ____
ROOT
ATOM      1  C1* LIG    1        0.139  -4.130  -0.024  0.00  0.00    +0.450 C 
ATOM      2  O4* LIG    1        0.560  -4.617  -1.317  0.00  0.00    -0.350 OA
ATOM      3  C4* LIG    1        1.026  -5.964  -1.084  0.00  0.00    +0.190 C 
ATOM      4  C3* LIG    1        1.805  -5.887   0.248  0.00  0.00    +0.140 C 
ATOM      5  C2* LIG    1        1.206  -4.654   0.964  0.00  0.00    +0.140 C 
ENDROOT
BRANCH   1   9
ATOM      6  C   LIG    1        0.002  -0.004   0.002  0.00  0.00    +0.470 A 
ATOM      7  N   LIG    1       -1.131  -0.697   0.004  0.00  0.00    -0.580 NA
ATOM      8  C   LIG    1       -1.076  -2.031  -0.004  0.00  0.00    +0.630 A 
ATOM      9  N   LIG    1        0.110  -2.666  -0.014  0.00  0.00    -0.380 N 
ATOM     10  N   LIG    1        1.219  -2.014  -0.016  0.00  0.00    -0.150 NA
ATOM     11  O   LIG    1       -2.110  -2.680  -0.003  0.00  0.00    -0.510 OA
ATOM     12  C   LIG    1        1.229  -0.709  -0.013  0.00  0.00    +0.170 A 
BRANCH   6  13
ATOM     13  N   LIG    1       -0.017   1.371   0.010  0.00  0.00    -0.790 N 
ATOM     14  H   LIG    1       -0.863   1.845   0.016  0.00  0.00    +0.420 HD
ATOM     15  H   LIG    1        0.817   1.867   0.004  0.00  0.00    +0.420 HD
ENDBRANCH   6  13
ENDBRANCH   1   9
BRANCH   4  16
ATOM     16  O3* LIG    1        3.200  -5.700   0.002  0.00  0.00    -0.540 OA
ATOM     17  H3* LIG    1        3.737  -5.646   0.804  0.00  0.00    +0.380 HD
ENDBRANCH   4  16
BRANCH   5  18
ATOM     18  O2* LIG    1        0.606  -5.036   2.203  0.00  0.00    -0.550 OA
ATOM     19  H2* LIG    1        1.224  -5.426   2.836  0.00  0.00    +0.390 HD
ENDBRANCH   5  18
BRANCH   3  20
ATOM     20  C5* LIG    1        1.950  -6.412  -2.219  0.00  0.00    +0.230 C 
BRANCH  20  21
ATOM     21  O5* LIG    1        1.199  -6.517  -3.430  0.00  0.00    -0.570 OA
ATOM     22  H5* LIG    1        1.722  -6.798  -4.194  0.00  0.00    +0.380 HD
ENDBRANCH  20  21
ENDBRANCH   3  20
TORSDOF 6
ENDMDL
MODEL     1148
REMARK  Name = ZINC000001042131
REMARK                            x       y       z     vdW  Elec       q    Type
REMARK                         _______ _______ _______ _____ _____    ______ ____
ROOT
ATOM      1  C1* LIG    1        0.139  -4.130  -0.024  0.00  0.00    +0.470 C 
ATOM      2  O4* LIG    1        0.573  -4.633   1.259  0.00  0.00    -0.330 OA
ATOM      3  C4* LIG    1        2.008  -4.472   1.265  0.00  0.00    +0.180 C 
ATOM      4  C3* LIG    1        2.456  -4.871  -0.159  0.00  0.00    +0.140 C 
ATOM      5  C2* LIG    1        1.196  -4.641  -1.028  0.00  0.00    +0.140 C 
ENDROOT
BRANCH   1   9
ATOM      6  C   LIG    1        0.002  -0.004   0.002  0.00  0.00    +0.470 A 
ATOM      7  N   LIG    1       -1.131  -0.697   0.004  0.00  0.00    -0.580 NA
ATOM      8  C   LIG    1       -1.076  -2.031  -0.004  0.00  0.00    +0.630 A 
ATOM      9  N   LIG    1        0.110  -2.666  -0.014  0.00  0.00    -0.390 N 
ATOM     10  N   LIG    1        1.219  -2.014  -0.016  0.00  0.00    -0.170 NA
ATOM     11  O   LIG    1       -2.110  -2.680  -0.003  0.00  0.00    -0.510 OA
ATOM     12  C   LIG    1        1.229  -0.709  -0.013  0.00  0.00    +0.180 A 
BRANCH   6  13
ATOM     13  N   LIG    1       -0.017   1.371   0.010  0.00  0.00    -0.790 N 
ATOM     14  H   LIG    1       -0.863   1.845   0.016  0.00  0.00    +0.420 HD
ATOM     15  H   LIG    1        0.817   1.867   0.004  0.00  0.00    +0.420 HD
ENDBRANCH   6  13
ENDBRANCH   1   9
BRANCH   4  16
ATOM     16  O3* LIG    1        2.848  -6.245  -0.194  0.00  0.00    -0.540 OA
ATOM     17  H3* LIG    1        3.139  -6.548  -1.065  0.00  0.00    +0.380 HD
ENDBRANCH   4  16
BRANCH   5  18
ATOM     18  O2* LIG    1        0.772  -5.866  -1.629  0.00  0.00    -0.530 OA
ATOM     19  H2* LIG    1        1.426  -6.260  -2.223  0.00  0.00    +0.390 HD
ENDBRANCH   5  18
BRANCH   3  20
ATOM     20  C5* LIG    1        2.643  -5.398   2.304  0.00  0.00    +0.220 C 
BRANCH  20  21
ATOM     21  O5* LIG    1        2.250  -4.984   3.614  0.00  0.00    -0.570 OA
ATOM     22  H5* LIG    1        2.617  -5.528   4.325  0.00  0.00    +0.380 HD
ENDBRANCH  20  21
ENDBRANCH   3  20
TORSDOF 6
ENDMDL
MODEL     1149
REMARK  Name = ZINC000006175861
REMARK                            x       y       z     vdW  Elec       q    Type
REMARK                         _______ _______ _______ _____ _____    ______ ____
ROOT
ATOM      1  C   LIG    1        0.543  -1.866  -1.152  0.00  0.00    +0.140 C 
ATOM      2  C   LIG    1        0.195  -0.382  -1.288  0.00  0.00    +0.120 C 
ENDROOT
BRANCH   1   3
ATOM      3  C   LIG    1       -0.518  -2.558  -0.335  0.00  0.00    +0.440 C 
ATOM      4  O   LIG    1       -1.438  -3.114  -0.886  0.00  0.00    -0.510 OA
BRANCH   3   6
ATOM      5  C   LIG    1       -1.497  -3.242   1.728  0.00  0.00    +0.270 C 
ATOM      6  O   LIG    1       -0.440  -2.556   1.005  0.00  0.00    -0.330 OA
ENDBRANCH   3   6
ENDBRANCH   1   3
BRANCH   1   7
ATOM      7  C   LIG    1        0.612  -2.503  -2.541  0.00  0.00    +0.140 C 
ATOM      8  C   LIG    1        1.783  -1.901  -3.320  0.00  0.00    +0.120 C 
BRANCH   7   9
ATOM      9  C   LIG    1        0.813  -3.990  -2.403  0.00  0.00    +0.440 C 
ATOM     10  O   LIG    1        1.359  -4.437  -1.422  0.00  0.00    -0.510 OA
BRANCH   9  11
ATOM     11  O   LIG    1        0.385  -4.818  -3.369  0.00  0.00    -0.330 OA
ATOM     12  C   LIG    1        0.612  -6.238  -3.169  0.00  0.00    +0.280 C 
ENDBRANCH   9  11
ENDBRANCH   7   9
BRANCH   7  13
ATOM     13  O   LIG    1       -0.607  -2.250  -3.243  0.00  0.00    -0.530 OA
ATOM     14  H   LIG    1       -1.390  -2.626  -2.818  0.00  0.00    +0.390 HD
ENDBRANCH   7  13
ENDBRANCH   1   7
BRANCH   1  15
ATOM     15  O   LIG    1        1.808  -2.001  -0.502  0.00  0.00    -0.530 OA
ATOM     16  H   LIG    1        2.091  -2.918  -0.379  0.00  0.00    +0.390 HD
ENDBRANCH   1  15
TORSDOF 7
ENDMDL
MODEL     1150
REMARK  Name = ZINC000006437257
REMARK                            x       y       z     vdW  Elec       q    Type
REMARK                         _______ _______ _______ _____ _____    ______ ____
ROOT
ATOM      1  N   LIG    1       -1.490  -0.493   0.202  0.00  0.00    -0.500 N 
ATOM      2  H   LIG    1       -2.003  -0.011   0.925  0.00  0.00    +0.420 HD
ATOM      3  H   LIG    1       -1.499  -1.485   0.388  0.00  0.00    +0.440 HD
ENDROOT
BRANCH   1   5
ATOM      4  C   LIG    1       -0.074   1.477   0.536  0.00  0.00    +0.090 C 
ATOM      5  C   LIG    1       -0.102  -0.012   0.183  0.00  0.00    +0.190 C 
BRANCH   5   6
ATOM      6  C   LIG    1        0.723  -0.794   1.207  0.00  0.00    -0.440 C 
BRANCH   6   7
ATOM      7  S   LIG    1        0.813  -2.535   0.708  0.00  0.00    +2.620 S 
ATOM      8  O   LIG    1        1.445  -2.616  -0.600  0.00  0.00    -1.030 OA
ATOM      9  O   LIG    1       -0.536  -3.076   0.646  0.00  0.00    -1.040 OA
ATOM     10  O   LIG    1        1.600  -3.265   1.690  0.00  0.00    -1.030 OA
ENDBRANCH   6   7
ENDBRANCH   5   6
ENDBRANCH   1   5
BRANCH   1  11
ATOM     11  C   LIG    1       -2.116  -0.233  -1.101  0.00  0.00    +0.070 C 
BRANCH  11  12
ATOM     12  C   LIG    1       -1.374  -1.012  -2.188  0.00  0.00    +0.230 C 
BRANCH  12  13
ATOM     13  O   LIG    1       -1.437  -2.410  -1.900  0.00  0.00    -0.550 OA
ATOM     14  H   LIG    1       -0.987  -2.967  -2.550  0.00  0.00    +0.410 HD
ENDBRANCH  12  13
ENDBRANCH  11  12
BRANCH  11  15
ATOM     15  C   LIG    1       -2.048   1.264  -1.409  0.00  0.00    +0.230 C 
BRANCH  15  16
ATOM     16  O   LIG    1       -2.622   2.000  -0.328  0.00  0.00    -0.570 OA
ATOM     17  H   LIG    1       -2.613   2.958  -0.456  0.00  0.00    +0.400 HD
ENDBRANCH  15  16
ENDBRANCH  11  15
BRANCH  11  18
ATOM     18  C   LIG    1       -3.579  -0.679  -1.062  0.00  0.00    +0.220 C 
BRANCH  18  19
ATOM     19  O   LIG    1       -4.188  -0.426  -2.329  0.00  0.00    -0.560 OA
ATOM     20  H   LIG    1       -5.119  -0.685  -2.377  0.00  0.00    +0.400 HD
ENDBRANCH  18  19
ENDBRANCH  11  18
ENDBRANCH   1  11
TORSDOF 10
ENDMDL
MODEL     1151
REMARK  Name = ZINC000006494947
REMARK                            x       y       z     vdW  Elec       q    Type
REMARK                         _______ _______ _______ _____ _____    ______ ____
ROOT
ATOM      1  C1* LIG    1        2.408   1.181  -0.021  0.00  0.00    +0.470 C 
ATOM      2  O4* LIG    1        3.074   1.290   1.256  0.00  0.00    -0.330 OA
ATOM      3  C4* LIG    1        3.677   2.602   1.259  0.00  0.00    +0.180 C 
ATOM      4  C3* LIG    1        4.237   2.783  -0.169  0.00  0.00    +0.140 C 
ATOM      5  C2* LIG    1        3.381   1.825  -1.033  0.00  0.00    +0.150 C 
ENDROOT
BRANCH   1  12
ATOM      6  O   LIG    1        0.002  -0.004   0.002  0.00  0.00    -0.530 OA
ATOM      7  C   LIG    1       -0.015   1.217   0.009  0.00  0.00    +0.510 A 
ATOM      8  C   LIG    1       -1.238   1.909   0.030  0.00  0.00    -0.090 A 
ATOM      9  C   LIG    1       -1.192   3.293   0.037  0.00  0.00    +0.180 A 
ATOM     10  C   LIG    1        0.075   3.915   0.023  0.00  0.00    +0.170 A 
ATOM     11  N   LIG    1        1.160   3.195   0.003  0.00  0.00    -0.170 NA
ATOM     12  N   LIG    1        1.138   1.912   0.002  0.00  0.00    -0.350 N 
BRANCH   9  13
ATOM     13  O   LIG    1       -2.330   4.028   0.058  0.00  0.00    -0.450 OA
ATOM     14  H   LIG    1       -2.181   4.983   0.061  0.00  0.00    +0.410 HD
ENDBRANCH   9  13
ENDBRANCH   1  12
BRANCH   4  15
ATOM     15  O3* LIG    1        5.615   2.409  -0.218  0.00  0.00    -0.550 OA
ATOM     16  H3* LIG    1        6.017   2.503  -1.092  0.00  0.00    +0.380 HD
ENDBRANCH   4  15
BRANCH   5  17
ATOM     17  O2* LIG    1        2.663   2.555  -2.029  0.00  0.00    -0.540 OA
ATOM     18  H2* LIG    1        3.229   3.029  -2.654  0.00  0.00    +0.390 HD
ENDBRANCH   5  17
BRANCH   3  19
ATOM     19  C5* LIG    1        4.807   2.665   2.289  0.00  0.00    +0.220 C 
BRANCH  19  20
ATOM     20  O5* LIG    1        4.262   2.539   3.603  0.00  0.00    -0.570 OA
ATOM     21  H5* LIG    1        4.923   2.571   4.308  0.00  0.00    +0.380 HD
ENDBRANCH  19  20
ENDBRANCH   3  19
TORSDOF 6
ENDMDL
MODEL     1152
REMARK  Name = ZINC000006494946
REMARK                            x       y       z     vdW  Elec       q    Type
REMARK                         _______ _______ _______ _____ _____    ______ ____
ROOT
ATOM      1  C1* LIG    1        2.408   1.181  -0.021  0.00  0.00    +0.470 C 
ATOM      2  O4* LIG    1        3.074   1.290   1.256  0.00  0.00    -0.330 OA
ATOM      3  C4* LIG    1        3.677   2.602   1.259  0.00  0.00    +0.180 C 
ATOM      4  C3* LIG    1        4.237   2.783  -0.169  0.00  0.00    +0.140 C 
ATOM      5  C2* LIG    1        3.381   1.825  -1.033  0.00  0.00    +0.140 C 
ENDROOT
BRANCH   1  12
ATOM      6  O   LIG    1        0.002  -0.004   0.002  0.00  0.00    -0.520 OA
ATOM      7  C   LIG    1       -0.015   1.217   0.009  0.00  0.00    +0.510 A 
ATOM      8  C   LIG    1       -1.238   1.909   0.030  0.00  0.00    -0.080 A 
ATOM      9  C   LIG    1       -1.192   3.293   0.037  0.00  0.00    +0.180 A 
ATOM     10  C   LIG    1        0.075   3.915   0.023  0.00  0.00    +0.190 A 
ATOM     11  N   LIG    1        1.160   3.195   0.003  0.00  0.00    -0.200 NA
ATOM     12  N   LIG    1        1.138   1.912   0.002  0.00  0.00    -0.360 N 
BRANCH   9  13
ATOM     13  O   LIG    1       -2.330   4.028   0.058  0.00  0.00    -0.450 OA
ATOM     14  H   LIG    1       -2.181   4.983   0.061  0.00  0.00    +0.410 HD
ENDBRANCH   9  13
ENDBRANCH   1  12
BRANCH   4  15
ATOM     15  O3* LIG    1        5.615   2.409  -0.218  0.00  0.00    -0.540 OA
ATOM     16  H3* LIG    1        6.017   2.503  -1.092  0.00  0.00    +0.380 HD
ENDBRANCH   4  15
BRANCH   5  17
ATOM     17  O2* LIG    1        4.206   0.830  -1.644  0.00  0.00    -0.530 OA
ATOM     18  H2* LIG    1        4.876   1.188  -2.242  0.00  0.00    +0.390 HD
ENDBRANCH   5  17
BRANCH   3  19
ATOM     19  C5* LIG    1        4.807   2.665   2.289  0.00  0.00    +0.220 C 
BRANCH  19  20
ATOM     20  O5* LIG    1        4.262   2.539   3.603  0.00  0.00    -0.570 OA
ATOM     21  H5* LIG    1        4.923   2.571   4.308  0.00  0.00    +0.380 HD
ENDBRANCH  19  20
ENDBRANCH   3  19
TORSDOF 6
ENDMDL
MODEL     1153
REMARK  Name = ZINC000006499797
REMARK                            x       y       z     vdW  Elec       q    Type
REMARK                         _______ _______ _______ _____ _____    ______ ____
ROOT
ATOM      1  C   LIG    1        0.002  -0.004   0.002  0.00  0.00    +0.570 A 
ATOM      2  C   LIG    1       -1.190  -0.738   0.004  0.00  0.00    -0.400 A 
ATOM      3  C   LIG    1       -2.606  -0.395   0.013  0.00  0.00    +0.330 A 
ATOM      4  N   LIG    1       -3.280  -1.510   0.010  0.00  0.00    -0.240 NA
ATOM      5  N   LIG    1       -2.405  -2.600  -0.000  0.00  0.00    -0.410 N 
ATOM      6  C   LIG    1       -1.122  -2.150  -0.004  0.00  0.00    +0.450 A 
ATOM      7  N   LIG    1        0.071  -2.744  -0.013  0.00  0.00    -0.610 NA
ATOM      8  C   LIG    1        1.190  -2.032  -0.015  0.00  0.00    +0.670 A 
ATOM      9  O   LIG    1        2.261  -2.616  -0.024  0.00  0.00    -0.540 OA
ATOM     10  N   LIG    1        1.182  -0.687  -0.013  0.00  0.00    -0.640 N 
ATOM     11  H   LIG    1        2.021  -0.201  -0.015  0.00  0.00    +0.420 HD
ENDROOT
BRANCH   1  12
ATOM     12  N   LIG    1       -0.016   1.360   0.009  0.00  0.00    -0.810 N 
ATOM     13  H   LIG    1       -0.863   1.834   0.016  0.00  0.00    +0.430 HD
ATOM     14  H   LIG    1        0.817   1.856   0.004  0.00  0.00    +0.420 HD
ENDBRANCH   1  12
BRANCH   5  15
ATOM     15  C   LIG    1       -2.808  -4.009  -0.006  0.00  0.00    +0.530 C 
BRANCH  15  16
ATOM     16  O   LIG    1       -2.946  -4.460  -1.355  0.00  0.00    -0.370 OA
BRANCH  16  17
ATOM     17  C   LIG    1       -1.708  -4.790  -1.987  0.00  0.00    +0.180 C 
BRANCH  17  18
ATOM     18  C   LIG    1       -1.975  -5.258  -3.419  0.00  0.00    +0.200 C 
BRANCH  18  19
ATOM     19  O   LIG    1       -2.511  -4.174  -4.181  0.00  0.00    -0.570 OA
ATOM     20  H   LIG    1       -2.705  -4.399  -5.102  0.00  0.00    +0.380 HD
ENDBRANCH  18  19
ENDBRANCH  17  18
ENDBRANCH  16  17
ENDBRANCH  15  16
ENDBRANCH   5  15
TORSDOF 6
ENDMDL
MODEL     1154
REMARK  Name = ZINC000006494945
REMARK                            x       y       z     vdW  Elec       q    Type
REMARK                         _______ _______ _______ _____ _____    ______ ____
ROOT
ATOM      1  C1* LIG    1        2.408   1.181  -0.021  0.00  0.00    +0.450 C 
ATOM      2  O4* LIG    1        3.030   1.293  -1.320  0.00  0.00    -0.350 OA
ATOM      3  C4* LIG    1        4.426   0.996  -1.100  0.00  0.00    +0.190 C 
ATOM      4  C3* LIG    1        4.774   1.699   0.230  0.00  0.00    +0.140 C 
ATOM      5  C2* LIG    1        3.415   1.822   0.959  0.00  0.00    +0.140 C 
ENDROOT
BRANCH   1  12
ATOM      6  O   LIG    1        0.002  -0.004   0.002  0.00  0.00    -0.520 OA
ATOM      7  C   LIG    1       -0.015   1.217   0.009  0.00  0.00    +0.510 A 
ATOM      8  C   LIG    1       -1.238   1.909   0.030  0.00  0.00    -0.090 A 
ATOM      9  C   LIG    1       -1.192   3.293   0.037  0.00  0.00    +0.180 A 
ATOM     10  C   LIG    1        0.075   3.915   0.023  0.00  0.00    +0.190 A 
ATOM     11  N   LIG    1        1.160   3.195   0.003  0.00  0.00    -0.180 NA
ATOM     12  N   LIG    1        1.138   1.912   0.002  0.00  0.00    -0.340 N 
BRANCH   9  13
ATOM     13  O   LIG    1       -2.330   4.028   0.058  0.00  0.00    -0.450 OA
ATOM     14  H   LIG    1       -2.181   4.983   0.061  0.00  0.00    +0.410 HD
ENDBRANCH   9  13
ENDBRANCH   1  12
BRANCH   4  15
ATOM     15  O3* LIG    1        5.333   2.991  -0.018  0.00  0.00    -0.540 OA
ATOM     16  H3* LIG    1        5.570   3.478   0.783  0.00  0.00    +0.380 HD
ENDBRANCH   4  15
BRANCH   5  17
ATOM     17  O2* LIG    1        3.444   1.108   2.196  0.00  0.00    -0.550 OA
ATOM     18  H2* LIG    1        4.103   1.435   2.824  0.00  0.00    +0.390 HD
ENDBRANCH   5  17
BRANCH   3  19
ATOM     19  C5* LIG    1        5.276   1.558  -2.241  0.00  0.00    +0.230 C 
BRANCH  19  20
ATOM     20  O5* LIG    1        4.968   0.863  -3.451  0.00  0.00    -0.570 OA
ATOM     21  H5* LIG    1        5.471   1.168  -4.219  0.00  0.00    +0.380 HD
ENDBRANCH  19  20
ENDBRANCH   3  19
TORSDOF 6
ENDMDL
MODEL     1155
REMARK  Name = ZINC000006523959
REMARK                            x       y       z     vdW  Elec       q    Type
REMARK                         _______ _______ _______ _____ _____    ______ ____
ROOT
ATOM      1  C   LIG    1       -1.147   5.269   1.357  0.00  0.00    +0.060 C 
ENDROOT
BRANCH   1   2
ATOM      2  C   LIG    1       -1.415   4.522   0.049  0.00  0.00    +0.350 C 
BRANCH   2   6
ATOM      3  O   LIG    1        0.002  -0.004   0.002  0.00  0.00    -0.480 OA
ATOM      4  C   LIG    1       -0.015   1.216   0.009  0.00  0.00    +0.410 A 
ATOM      5  C   LIG    1       -1.145   2.065   0.030  0.00  0.00    +0.000 A 
ATOM      6  N   LIG    1       -0.641   3.278   0.030  0.00  0.00    -0.140 N 
ATOM      7  N   LIG    1        0.640   3.196   0.010  0.00  0.00    -0.200 NA
ATOM      8  O   LIG    1        1.038   2.052   0.003  0.00  0.00    +0.010 OA
ENDBRANCH   2   6
ENDBRANCH   1   2
BRANCH   1   9
ATOM      9  C   LIG    1       -1.955   6.569   1.377  0.00  0.00    +0.060 C 
BRANCH   9  10
ATOM     10  C   LIG    1       -1.686   7.316   2.684  0.00  0.00    +0.350 C 
BRANCH  10  11
ATOM     11  N   LIG    1       -2.460   8.560   2.704  0.00  0.00    -0.140 N 
ATOM     12  C   LIG    1       -3.430   8.843   3.542  0.00  0.00    +0.000 A 
ATOM     13  C   LIG    1       -3.855  10.137   3.164  0.00  0.00    +0.410 A 
ATOM     14  O   LIG    1       -3.065  10.464   2.126  0.00  0.00    +0.010 OA
ATOM     15  O   LIG    1       -4.741  10.809   3.667  0.00  0.00    -0.480 OA
ATOM     16  N   LIG    1       -2.297   9.553   1.907  0.00  0.00    -0.200 NA
ENDBRANCH  10  11
ENDBRANCH   9  10
ENDBRANCH   1   9
TORSDOF 5
ENDMDL
MODEL     1156
REMARK  Name = ZINC000035187498
REMARK                            x       y       z     vdW  Elec       q    Type
REMARK                         _______ _______ _______ _____ _____    ______ ____
ROOT
ATOM      1  O   LIG    1        0.002  -0.004   0.002  0.00  0.00    -0.500 OA
ATOM      2  C   LIG    1       -0.014   1.209   0.009  0.00  0.00    +0.510 C 
ATOM      3  N   LIG    1       -1.191   1.867   0.018  0.00  0.00    -0.610 N 
ATOM      4  C   LIG    1       -1.227   3.335   0.020  0.00  0.00    +0.270 C 
ATOM      5  C   LIG    1       -2.107   3.808  -1.141  0.00  0.00    +0.040 C 
ATOM      6  C   LIG    1       -3.483   3.146  -1.035  0.00  0.00    +0.160 C 
ATOM      7  C   LIG    1       -3.328   1.627  -1.135  0.00  0.00    -0.010 C 
ATOM      8  C   LIG    1       -2.461   1.129   0.020  0.00  0.00    +0.290 C 
ENDROOT
BRANCH   6   9
ATOM      9  O   LIG    1       -4.318   3.610  -2.098  0.00  0.00    -0.570 OA
ATOM     10  H   LIG    1       -5.207   3.231  -2.094  0.00  0.00    +0.380 HD
ENDBRANCH   6   9
BRANCH   2  11
ATOM     11  C   LIG    1        1.280   1.980   0.001  0.00  0.00    +0.380 C 
BRANCH  11  12
ATOM     12  N   LIG    1        2.407   1.043  -0.015  0.00  0.00    -0.310 N 
ATOM     13  C   LIG    1        3.413   1.018  -0.909  0.00  0.00    +0.400 A 
ATOM     14  N   LIG    1        4.201   0.030  -0.560  0.00  0.00    -0.300 NA
ATOM     15  N   LIG    1        3.705  -0.522   0.493  0.00  0.00    -0.070 NA
ATOM     16  N   LIG    1        2.623   0.091   0.828  0.00  0.00    -0.060 NA
ENDBRANCH  11  12
ENDBRANCH   2  11
TORSDOF 3
ENDMDL
MODEL     1157
REMARK  Name = ZINC000106604057
REMARK                            x       y       z     vdW  Elec       q    Type
REMARK                         _______ _______ _______ _____ _____    ______ ____
ROOT
ATOM      1  C   LIG    1        0.857  -1.841   1.398  0.00  0.00    +0.420 C 
ATOM      2  N   LIG    1        1.464  -2.384   2.422  0.00  0.00    -0.580 NA
ATOM      3  C   LIG    1        1.651  -3.786   2.364  0.00  0.00    +0.140 C 
ATOM      4  C   LIG    1        0.561  -4.460   1.504  0.00  0.00    +0.210 C 
ATOM      5  O   LIG    1        1.171  -5.612   0.932  0.00  0.00    -0.320 OA
ATOM      6  C   LIG    1        1.541  -6.562   1.944  0.00  0.00    +0.180 C 
ATOM      7  C   LIG    1        2.538  -5.981   2.944  0.00  0.00    +0.130 C 
ATOM      8  C   LIG    1        2.001  -4.662   3.526  0.00  0.00    +0.240 C 
ATOM      9  S   LIG    1        0.243  -3.115   0.323  0.00  0.00    -0.130 S 
ENDROOT
BRANCH   1  10
ATOM     10  N   LIG    1        0.711  -0.489   1.189  0.00  0.00    -0.690 N 
ATOM     11  H   LIG    1        1.077   0.142   1.827  0.00  0.00    +0.420 HD
BRANCH  10  13
ATOM     12  C   LIG    1       -0.019   1.526   0.010  0.00  0.00    +0.060 C 
ATOM     13  C   LIG    1        0.002  -0.004   0.002  0.00  0.00    +0.250 C 
ENDBRANCH  10  13
ENDBRANCH   1  10
BRANCH   7  14
ATOM     14  O   LIG    1        2.740  -6.917   4.005  0.00  0.00    -0.550 OA
ATOM     15  H   LIG    1        3.088  -7.771   3.716  0.00  0.00    +0.390 HD
ENDBRANCH   7  14
BRANCH   8  16
ATOM     16  O   LIG    1        0.846  -4.915   4.328  0.00  0.00    -0.550 OA
ATOM     17  H   LIG    1        1.008  -5.506   5.076  0.00  0.00    +0.390 HD
ENDBRANCH   8  16
BRANCH   6  18
ATOM     18  C   LIG    1        0.283  -6.999   2.698  0.00  0.00    +0.190 C 
BRANCH  18  19
ATOM     19  O   LIG    1       -0.584  -7.705   1.808  0.00  0.00    -0.570 OA
ATOM     20  H   LIG    1       -1.403  -8.013   2.219  0.00  0.00    +0.380 HD
ENDBRANCH  18  19
ENDBRANCH   6  18
TORSDOF 6
ENDMDL
MODEL     1158
REMARK  Name = ZINC000035218692
REMARK                            x       y       z     vdW  Elec       q    Type
REMARK                         _______ _______ _______ _____ _____    ______ ____
ROOT
ATOM      1  O   LIG    1        0.002  -0.004   0.002  0.00  0.00    -0.500 OA
ATOM      2  C   LIG    1       -0.014   1.209   0.009  0.00  0.00    +0.500 C 
ATOM      3  N   LIG    1       -1.191   1.867   0.018  0.00  0.00    -0.610 N 
ATOM      4  C   LIG    1       -1.227   3.335   0.020  0.00  0.00    +0.260 C 
ATOM      5  C   LIG    1       -2.091   3.806   1.194  0.00  0.00    +0.010 C 
ATOM      6  C   LIG    1       -3.468   3.143   1.106  0.00  0.00    +0.020 C 
ATOM      7  C   LIG    1       -3.312   1.624   1.199  0.00  0.00    -0.020 C 
ATOM      8  C   LIG    1       -2.461   1.129   0.020  0.00  0.00    +0.290 C 
ENDROOT
BRANCH   7   9
ATOM      9  C   LIG    1       -4.691   0.964   1.145  0.00  0.00    +0.180 C 
BRANCH   9  10
ATOM     10  O   LIG    1       -4.554  -0.444   1.349  0.00  0.00    -0.570 OA
ATOM     11  H   LIG    1       -5.392  -0.927   1.328  0.00  0.00    +0.380 HD
ENDBRANCH   9  10
ENDBRANCH   7   9
BRANCH   2  12
ATOM     12  C   LIG    1        1.280   1.980   0.001  0.00  0.00    +0.380 C 
BRANCH  12  13
ATOM     13  N   LIG    1        2.407   1.043  -0.015  0.00  0.00    -0.300 N 
ATOM     14  C   LIG    1        3.413   1.018  -0.909  0.00  0.00    +0.400 A 
ATOM     15  N   LIG    1        4.201   0.030  -0.560  0.00  0.00    -0.300 NA
ATOM     16  N   LIG    1        3.705  -0.522   0.493  0.00  0.00    -0.070 NA
ATOM     17  N   LIG    1        2.623   0.091   0.828  0.00  0.00    -0.060 NA
ENDBRANCH  12  13
ENDBRANCH   2  12
TORSDOF 4
ENDMDL
MODEL     1159
REMARK  Name = ZINC000004353163
REMARK                            x       y       z     vdW  Elec       q    Type
REMARK                         _______ _______ _______ _____ _____    ______ ____
ROOT
ATOM      1  C   LIG    1        0.652  -0.570  -1.138  0.00  0.00    +0.320 C 
ATOM      2  O   LIG    1       -0.088  -0.248  -2.317  0.00  0.00    -0.370 OA
ATOM      3  C   LIG    1       -1.440  -0.712  -2.303  0.00  0.00    +0.150 C 
ATOM      4  C   LIG    1       -1.452  -2.239  -2.194  0.00  0.00    +0.170 C 
ATOM      5  C   LIG    1       -0.699  -2.659  -0.928  0.00  0.00    +0.160 C 
ATOM      6  C   LIG    1        0.723  -2.091  -0.982  0.00  0.00    +0.140 C 
ENDROOT
BRANCH   1   8
ATOM      7  C   LIG    1       -0.017   1.425   0.010  0.00  0.00    +0.220 C 
ATOM      8  O   LIG    1        0.002  -0.004   0.002  0.00  0.00    -0.400 OA
ENDBRANCH   1   8
BRANCH   5   9
ATOM      9  O   LIG    1       -0.644  -4.085  -0.855  0.00  0.00    -0.550 OA
ATOM     10  H   LIG    1       -0.180  -4.421  -0.076  0.00  0.00    +0.380 HD
ENDBRANCH   5   9
BRANCH   4  11
ATOM     11  O   LIG    1       -0.815  -2.805  -3.340  0.00  0.00    -0.510 OA
ATOM     12  H   LIG    1       -0.787  -3.772  -3.338  0.00  0.00    +0.380 HD
ENDBRANCH   4  11
BRANCH   6  13
ATOM     13  O   LIG    1        1.420  -2.655  -2.095  0.00  0.00    -0.520 OA
ATOM     14  H   LIG    1        2.329  -2.340  -2.190  0.00  0.00    +0.370 HD
ENDBRANCH   6  13
BRANCH   3  15
ATOM     15  C   LIG    1       -2.139  -0.287  -3.596  0.00  0.00    +0.240 C 
BRANCH  15  16
ATOM     16  O   LIG    1       -1.525  -0.944  -4.707  0.00  0.00    -0.520 OA
ATOM     17  H   LIG    1       -0.585  -0.744  -4.812  0.00  0.00    +0.380 HD
ENDBRANCH  15  16
BRANCH  15  18
ATOM     18  C   LIG    1       -2.016   1.229  -3.768  0.00  0.00    +0.160 C 
BRANCH  18  19
ATOM     19  O   LIG    1       -2.766   1.641  -4.912  0.00  0.00    -0.560 OA
ATOM     20  H   LIG    1       -2.733   2.592  -5.082  0.00  0.00    +0.380 HD
ENDBRANCH  18  19
ENDBRANCH  15  18
ENDBRANCH   3  15
TORSDOF 8
ENDMDL
MODEL     1160
REMARK  Name = ZINC000004353165
REMARK                            x       y       z     vdW  Elec       q    Type
REMARK                         _______ _______ _______ _____ _____    ______ ____
ROOT
ATOM      1  C   LIG    1        0.652  -0.570  -1.138  0.00  0.00    +0.330 C 
ATOM      2  O   LIG    1       -0.088  -0.248  -2.317  0.00  0.00    -0.380 OA
ATOM      3  C   LIG    1       -1.440  -0.712  -2.303  0.00  0.00    +0.160 C 
ATOM      4  C   LIG    1       -1.452  -2.239  -2.194  0.00  0.00    +0.180 C 
ATOM      5  C   LIG    1       -0.699  -2.659  -0.928  0.00  0.00    +0.160 C 
ATOM      6  C   LIG    1        0.723  -2.091  -0.982  0.00  0.00    +0.150 C 
ENDROOT
BRANCH   1   8
ATOM      7  C   LIG    1       -0.017   1.425   0.010  0.00  0.00    +0.220 C 
ATOM      8  O   LIG    1        0.002  -0.004   0.002  0.00  0.00    -0.390 OA
ENDBRANCH   1   8
BRANCH   5   9
ATOM      9  O   LIG    1       -0.644  -4.085  -0.855  0.00  0.00    -0.560 OA
ATOM     10  H   LIG    1       -0.180  -4.421  -0.076  0.00  0.00    +0.390 HD
ENDBRANCH   5   9
BRANCH   4  11
ATOM     11  O   LIG    1       -0.815  -2.805  -3.340  0.00  0.00    -0.530 OA
ATOM     12  H   LIG    1       -0.787  -3.772  -3.338  0.00  0.00    +0.380 HD
ENDBRANCH   4  11
BRANCH   6  13
ATOM     13  O   LIG    1        1.413  -2.417   0.227  0.00  0.00    -0.550 OA
ATOM     14  H   LIG    1        2.322  -2.088   0.262  0.00  0.00    +0.390 HD
ENDBRANCH   6  13
BRANCH   3  15
ATOM     15  C   LIG    1       -2.139  -0.287  -3.596  0.00  0.00    +0.250 C 
BRANCH  15  16
ATOM     16  O   LIG    1       -1.525  -0.944  -4.707  0.00  0.00    -0.530 OA
ATOM     17  H   LIG    1       -0.585  -0.744  -4.812  0.00  0.00    +0.380 HD
ENDBRANCH  15  16
BRANCH  15  18
ATOM     18  C   LIG    1       -2.016   1.229  -3.768  0.00  0.00    +0.160 C 
BRANCH  18  19
ATOM     19  O   LIG    1       -2.766   1.641  -4.912  0.00  0.00    -0.560 OA
ATOM     20  H   LIG    1       -2.733   2.592  -5.082  0.00  0.00    +0.380 HD
ENDBRANCH  18  19
ENDBRANCH  15  18
ENDBRANCH   3  15
TORSDOF 8
ENDMDL
MODEL     1161
REMARK  Name = ZINC000005124770
REMARK                            x       y       z     vdW  Elec       q    Type
REMARK                         _______ _______ _______ _____ _____    ______ ____
ROOT
ATOM      1  C   LIG    1       -1.289  -0.450   0.058  0.00  0.00    +0.300 C 
ATOM      2  O   LIG    1       -1.980  -0.191   1.275  0.00  0.00    -0.380 OA
ATOM      3  C   LIG    1       -3.227  -0.887   1.481  0.00  0.00    +0.270 C 
ATOM      4  C   LIG    1       -2.897  -2.361   1.403  0.00  0.00    +0.150 C 
ATOM      5  O   LIG    1       -3.938  -3.348   1.501  0.00  0.00    -0.310 OA
ATOM      6  C   LIG    1       -3.462  -4.421   0.805  0.00  0.00    +0.650 C 
ATOM      7  N   LIG    1       -2.559  -4.054  -0.146  0.00  0.00    -0.710 N 
ATOM      8  H   LIG    1       -2.099  -4.643  -0.766  0.00  0.00    +0.440 HD
ATOM      9  O   LIG    1       -3.804  -5.569   1.009  0.00  0.00    -0.490 OA
ATOM     10  C   LIG    1       -2.413  -2.617  -0.054  0.00  0.00    +0.180 C 
ATOM     11  C   LIG    1       -1.062  -1.956  -0.175  0.00  0.00    +0.180 C 
ENDROOT
BRANCH   1  13
ATOM     12  C   LIG    1       -0.108   1.634   0.165  0.00  0.00    +0.230 C 
ATOM     13  O   LIG    1       -0.021   0.209   0.097  0.00  0.00    -0.370 OA
ENDBRANCH   1  13
BRANCH  11  14
ATOM     14  O   LIG    1       -0.525  -2.175  -1.481  0.00  0.00    -0.550 OA
ATOM     15  H   LIG    1        0.343  -1.774  -1.622  0.00  0.00    +0.400 HD
ENDBRANCH  11  14
BRANCH   3  16
ATOM     16  C   LIG    1       -4.229  -0.510   0.387  0.00  0.00    +0.170 C 
BRANCH  16  17
ATOM     17  O   LIG    1       -4.577   0.870   0.516  0.00  0.00    -0.560 OA
ATOM     18  H   LIG    1       -5.210   1.179  -0.147  0.00  0.00    +0.390 HD
ENDBRANCH  16  17
ENDBRANCH   3  16
TORSDOF 4
ENDMDL
MODEL     1162
REMARK  Name = ZINC000005047969
REMARK                            x       y       z     vdW  Elec       q    Type
REMARK                         _______ _______ _______ _____ _____    ______ ____
ROOT
ATOM      1  C   LIG    1        0.673  -0.582   1.123  0.00  0.00    +0.280 C 
ATOM      2  O   LIG    1        2.089  -0.303   1.060  0.00  0.00    -0.380 OA
ATOM      3  C   LIG    1        2.711  -1.300   1.900  0.00  0.00    +0.160 C 
ATOM      4  C   LIG    1        1.944  -2.606   1.597  0.00  0.00    +0.160 C 
ATOM      5  C   LIG    1        0.570  -2.123   1.076  0.00  0.00    +0.130 C 
ENDROOT
BRANCH   1   7
ATOM      6  C   LIG    1       -0.017   1.425   0.010  0.00  0.00    +0.210 C 
ATOM      7  O   LIG    1        0.002  -0.004   0.002  0.00  0.00    -0.370 OA
ENDBRANCH   1   7
BRANCH   4   8
ATOM      8  O   LIG    1        2.625  -3.366   0.597  0.00  0.00    -0.510 OA
ATOM      9  H   LIG    1        2.187  -4.197   0.368  0.00  0.00    +0.370 HD
ENDBRANCH   4   8
BRANCH   5  10
ATOM     10  O   LIG    1        0.358  -2.571  -0.265  0.00  0.00    -0.530 OA
ATOM     11  H   LIG    1       -0.489  -2.296  -0.642  0.00  0.00    +0.390 HD
ENDBRANCH   5  10
BRANCH   3  12
ATOM     12  C   LIG    1        4.190  -1.452   1.540  0.00  0.00    +0.250 C 
BRANCH  12  13
ATOM     13  C   LIG    1        4.886  -0.094   1.656  0.00  0.00    +0.130 C 
ATOM     14  C   LIG    1        6.365  -0.247   1.296  0.00  0.00    +0.010 C 
BRANCH  13  15
ATOM     15  O   LIG    1        4.769   0.387   2.997  0.00  0.00    -0.570 OA
ATOM     16  H   LIG    1        5.189   1.246   3.144  0.00  0.00    +0.380 HD
ENDBRANCH  13  15
ENDBRANCH  12  13
BRANCH  12  17
ATOM     17  O   LIG    1        4.307  -1.934   0.200  0.00  0.00    -0.520 OA
ATOM     18  H   LIG    1        3.910  -1.352  -0.463  0.00  0.00    +0.380 HD
ENDBRANCH  12  17
ENDBRANCH   3  12
TORSDOF 7
ENDMDL
MODEL     1163
REMARK  Name = ZINC000005047990
REMARK                            x       y       z     vdW  Elec       q    Type
REMARK                         _______ _______ _______ _____ _____    ______ ____
ROOT
ATOM      1  C   LIG    1        0.652  -0.570  -1.138  0.00  0.00    +0.290 C 
ATOM      2  O   LIG    1       -0.088  -0.248  -2.317  0.00  0.00    -0.370 OA
ATOM      3  C   LIG    1        0.492  -0.747  -3.524  0.00  0.00    +0.150 C 
ATOM      4  C   LIG    1        0.556  -2.275  -3.464  0.00  0.00    +0.170 C 
ATOM      5  C   LIG    1        1.366  -2.696  -2.234  0.00  0.00    +0.160 C 
ATOM      6  C   LIG    1        0.723  -2.091  -0.982  0.00  0.00    +0.130 C 
ENDROOT
BRANCH   1   8
ATOM      7  C   LIG    1       -0.017   1.425   0.010  0.00  0.00    +0.220 C 
ATOM      8  O   LIG    1        0.002  -0.004   0.002  0.00  0.00    -0.370 OA
ENDBRANCH   1   8
BRANCH   5   9
ATOM      9  O   LIG    1        1.372  -4.121  -2.130  0.00  0.00    -0.550 OA
ATOM     10  H   LIG    1        1.867  -4.458  -1.371  0.00  0.00    +0.380 HD
ENDBRANCH   5   9
BRANCH   4  11
ATOM     11  O   LIG    1       -0.767  -2.806  -3.371  0.00  0.00    -0.530 OA
ATOM     12  H   LIG    1       -0.802  -3.771  -3.328  0.00  0.00    +0.380 HD
ENDBRANCH   4  11
BRANCH   3  13
ATOM     13  C   LIG    1       -0.366  -0.319  -4.717  0.00  0.00    +0.240 C 
ATOM     14  C   LIG    1       -0.431   1.209  -4.776  0.00  0.00    +0.020 C 
BRANCH  13  15
ATOM     15  O   LIG    1        0.214  -0.818  -5.924  0.00  0.00    -0.550 OA
ATOM     16  H   LIG    1        1.112  -0.500  -6.090  0.00  0.00    +0.370 HD
ENDBRANCH  13  15
ENDBRANCH   3  13
BRANCH   6  17
ATOM     17  O   LIG    1       -0.595  -2.618  -0.820  0.00  0.00    -0.520 OA
ATOM     18  H   LIG    1       -1.062  -2.278  -0.045  0.00  0.00    +0.380 HD
ENDBRANCH   6  17
TORSDOF 6
ENDMDL
MODEL     1164
REMARK  Name = ZINC000037896210
REMARK                            x       y       z     vdW  Elec       q    Type
REMARK                         _______ _______ _______ _____ _____    ______ ____
ROOT
ATOM      1  O   LIG    1        0.002  -0.004   0.002  0.00  0.00    -0.510 OA
ATOM      2  C   LIG    1       -0.014   1.209   0.009  0.00  0.00    +0.500 C 
ATOM      3  N   LIG    1       -1.191   1.867   0.018  0.00  0.00    -0.610 N 
ATOM      4  C   LIG    1       -1.227   3.335   0.020  0.00  0.00    +0.270 C 
ATOM      5  C   LIG    1       -2.107   3.808  -1.141  0.00  0.00    +0.020 C 
ATOM      6  C   LIG    1       -3.483   3.146  -1.035  0.00  0.00    -0.010 C 
ATOM      7  C   LIG    1       -3.328   1.627  -1.135  0.00  0.00    +0.030 C 
ATOM      8  C   LIG    1       -2.461   1.129   0.020  0.00  0.00    +0.280 C 
ENDROOT
BRANCH   6   9
ATOM      9  C   LIG    1       -4.377   3.643  -2.174  0.00  0.00    +0.180 C 
BRANCH   9  10
ATOM     10  O   LIG    1       -5.694   3.115  -2.009  0.00  0.00    -0.570 OA
ATOM     11  H   LIG    1       -6.316   3.389  -2.697  0.00  0.00    +0.380 HD
ENDBRANCH   9  10
ENDBRANCH   6   9
BRANCH   2  12
ATOM     12  C   LIG    1        1.280   1.980   0.001  0.00  0.00    +0.380 C 
BRANCH  12  13
ATOM     13  N   LIG    1        2.407   1.043  -0.015  0.00  0.00    -0.300 N 
ATOM     14  C   LIG    1        3.413   1.018  -0.909  0.00  0.00    +0.400 A 
ATOM     15  N   LIG    1        4.201   0.030  -0.560  0.00  0.00    -0.300 NA
ATOM     16  N   LIG    1        3.705  -0.522   0.493  0.00  0.00    -0.070 NA
ATOM     17  N   LIG    1        2.623   0.091   0.828  0.00  0.00    -0.060 NA
ENDBRANCH  12  13
ENDBRANCH   2  12
TORSDOF 4
ENDMDL
MODEL     1165
REMARK  Name = ZINC000006599603
REMARK                            x       y       z     vdW  Elec       q    Type
REMARK                         _______ _______ _______ _____ _____    ______ ____
ROOT
ATOM      1  C   LIG    1        0.002  -0.004   0.002  0.00  0.00    +0.540 A 
ATOM      2  C   LIG    1       -1.196  -0.739   0.004  0.00  0.00    -0.120 A 
ATOM      3  N   LIG    1       -2.512  -0.415   0.012  0.00  0.00    -0.450 NA
ATOM      4  C   LIG    1       -3.225  -1.503   0.009  0.00  0.00    +0.480 A 
ATOM      5  N   LIG    1       -2.409  -2.595  -0.001  0.00  0.00    -0.460 N 
ATOM      6  C   LIG    1       -1.115  -2.141  -0.004  0.00  0.00    +0.340 A 
ATOM      7  N   LIG    1        0.082  -2.720  -0.013  0.00  0.00    -0.570 NA
ATOM      8  C   LIG    1        1.181  -1.990  -0.013  0.00  0.00    +0.570 A 
ATOM      9  F   LIG    1        2.378  -2.616  -0.022  0.00  0.00    -0.070 F 
ATOM     10  N   LIG    1        1.153  -0.668  -0.013  0.00  0.00    -0.610 NA
ENDROOT
BRANCH   1  11
ATOM     11  N   LIG    1       -0.017   1.379   0.010  0.00  0.00    -0.810 N 
ATOM     12  H   LIG    1       -0.863   1.853   0.016  0.00  0.00    +0.420 HD
ATOM     13  H   LIG    1        0.817   1.876   0.004  0.00  0.00    +0.410 HD
ENDBRANCH   1  11
BRANCH   5  14
ATOM     14  C   LIG    1       -2.837  -3.997  -0.006  0.00  0.00    +0.290 C 
BRANCH  14  15
ATOM     15  C   LIG    1       -2.858  -4.529   1.428  0.00  0.00    +0.200 C 
BRANCH  15  16
ATOM     16  O   LIG    1       -1.528  -4.541   1.951  0.00  0.00    -0.540 OA
ATOM     17  H   LIG    1       -0.913  -5.095   1.450  0.00  0.00    +0.380 HD
ENDBRANCH  15  16
BRANCH  15  18
ATOM     18  C   LIG    1       -3.422  -5.951   1.436  0.00  0.00    +0.160 C 
BRANCH  18  19
ATOM     19  O   LIG    1       -3.551  -6.405   2.785  0.00  0.00    -0.560 OA
ATOM     20  H   LIG    1       -3.904  -7.302   2.866  0.00  0.00    +0.380 HD
ENDBRANCH  18  19
ENDBRANCH  15  18
ENDBRANCH  14  15
ENDBRANCH   5  14
TORSDOF 6
ENDMDL
MODEL     1166
REMARK  Name = ZINC000006816975
REMARK                            x       y       z     vdW  Elec       q    Type
REMARK                         _______ _______ _______ _____ _____    ______ ____
ROOT
ATOM      1  C   LIG    1        0.046  -1.973   3.574  0.00  0.00    +0.010 C 
ENDROOT
BRANCH   1   2
ATOM      2  C   LIG    1       -0.073  -1.803   5.067  0.00  0.00    +0.550 C 
ATOM      3  O   LIG    1        0.199  -0.738   5.580  0.00  0.00    -0.520 OA
ATOM      4  N   LIG    1       -0.480  -2.835   5.832  0.00  0.00    -0.830 N 
ATOM      5  H   LIG    1       -0.557  -2.726   6.793  0.00  0.00    +0.410 HD
ATOM      6  H   LIG    1       -0.698  -3.687   5.422  0.00  0.00    +0.410 HD
ENDBRANCH   1   2
BRANCH   1   7
ATOM      7  C   LIG    1        1.339  -2.675   3.249  0.00  0.00    +0.530 C 
ATOM      8  O   LIG    1        1.337  -3.638   2.512  0.00  0.00    -0.490 OA
ATOM      9  N   LIG    1        2.497  -2.234   3.779  0.00  0.00    -0.850 N 
ATOM     10  H   LIG    1        3.329  -2.686   3.570  0.00  0.00    +0.410 HD
ATOM     11  H   LIG    1        2.498  -1.464   4.369  0.00  0.00    +0.410 HD
ENDBRANCH   1   7
BRANCH   1  12
ATOM     12  S   LIG    1        0.027  -0.347   2.779  0.00  0.00    +0.110 S 
BRANCH  12  18
ATOM     13  C   LIG    1       -0.018   1.461   0.010  0.00  0.00    +0.350 C 
ATOM     14  N   LIG    1        0.002  -0.004   0.002  0.00  0.00    -0.470 N 
ATOM     15  C   LIG    1        0.009  -0.824  -1.093  0.00  0.00    +0.390 A 
ATOM     16  N   LIG    1        0.028  -2.052  -0.657  0.00  0.00    -0.280 NA
ATOM     17  N   LIG    1        0.034  -2.064   0.628  0.00  0.00    -0.260 NA
ATOM     18  C   LIG    1        0.024  -0.834   1.086  0.00  0.00    +0.120 A 
ENDBRANCH  12  18
ENDBRANCH   1  12
TORSDOF 4
ENDMDL
MODEL     1167
REMARK  Name = ZINC000001674441
REMARK                            x       y       z     vdW  Elec       q    Type
REMARK                         _______ _______ _______ _____ _____    ______ ____
ROOT
ATOM      1  C   LIG    1       -2.421  -2.776  -0.001  0.00  0.00    +0.160 C 
ENDROOT
BRANCH   1   4
ATOM      2  C   LIG    1        0.002  -0.004   0.002  0.00  0.00    +0.630 A 
ATOM      3  N   LIG    1       -1.141  -0.686   0.004  0.00  0.00    -0.630 NA
ATOM      4  C   LIG    1       -1.124  -2.007  -0.003  0.00  0.00    +0.440 A 
ATOM      5  N   LIG    1        0.027  -2.657  -0.013  0.00  0.00    -0.630 NA
ATOM      6  C   LIG    1        1.174  -1.982  -0.015  0.00  0.00    +0.630 A 
ATOM      7  N   LIG    1        1.161  -0.653  -0.013  0.00  0.00    -0.660 NA
BRANCH   2   8
ATOM      8  N   LIG    1       -0.017   1.376   0.010  0.00  0.00    -0.810 N 
ATOM      9  H   LIG    1       -0.863   1.849   0.016  0.00  0.00    +0.420 HD
ATOM     10  H   LIG    1        0.817   1.872   0.004  0.00  0.00    +0.420 HD
ENDBRANCH   2   8
BRANCH   6  11
ATOM     11  N   LIG    1        2.375  -2.661  -0.025  0.00  0.00    -0.810 N 
ATOM     12  H   LIG    1        3.211  -2.169  -0.026  0.00  0.00    +0.420 HD
ATOM     13  H   LIG    1        2.384  -3.631  -0.031  0.00  0.00    +0.420 HD
ENDBRANCH   6  11
ENDBRANCH   1   4
BRANCH   1  14
ATOM     14  C   LIG    1       -2.866  -3.028  -1.443  0.00  0.00    +0.160 C 
BRANCH  14  15
ATOM     15  C   LIG    1       -4.163  -3.796  -1.441  0.00  0.00    +0.440 A 
ATOM     16  N   LIG    1       -4.146  -5.117  -1.443  0.00  0.00    -0.630 NA
ATOM     17  C   LIG    1       -5.289  -5.799  -1.441  0.00  0.00    +0.630 A 
ATOM     18  N   LIG    1       -6.448  -5.150  -1.438  0.00  0.00    -0.660 NA
ATOM     19  C   LIG    1       -6.461  -3.821  -1.436  0.00  0.00    +0.630 A 
ATOM     20  N   LIG    1       -5.314  -3.146  -1.432  0.00  0.00    -0.630 NA
BRANCH  19  21
ATOM     21  N   LIG    1       -7.662  -3.142  -1.432  0.00  0.00    -0.810 N 
ATOM     22  H   LIG    1       -7.671  -2.172  -1.431  0.00  0.00    +0.420 HD
ATOM     23  H   LIG    1       -8.498  -3.635  -1.431  0.00  0.00    +0.420 HD
ENDBRANCH  19  21
BRANCH  17  24
ATOM     24  N   LIG    1       -5.270  -7.179  -1.443  0.00  0.00    -0.810 N 
ATOM     25  H   LIG    1       -6.104  -7.676  -1.441  0.00  0.00    +0.420 HD
ATOM     26  H   LIG    1       -4.424  -7.653  -1.445  0.00  0.00    +0.420 HD
ENDBRANCH  17  24
ENDBRANCH  14  15
ENDBRANCH   1  14
TORSDOF 7
ENDMDL
MODEL     1168
REMARK  Name = ZINC000001674440
REMARK                            x       y       z     vdW  Elec       q    Type
REMARK                         _______ _______ _______ _____ _____    ______ ____
ROOT
ATOM      1  C   LIG    1       -2.421  -2.776  -0.001  0.00  0.00    +0.280 C 
ENDROOT
BRANCH   1   4
ATOM      2  C   LIG    1        0.002  -0.004   0.002  0.00  0.00    +0.630 A 
ATOM      3  N   LIG    1       -1.141  -0.686   0.004  0.00  0.00    -0.620 NA
ATOM      4  C   LIG    1       -1.124  -2.007  -0.003  0.00  0.00    +0.440 A 
ATOM      5  N   LIG    1        0.027  -2.657  -0.013  0.00  0.00    -0.620 NA
ATOM      6  C   LIG    1        1.174  -1.982  -0.015  0.00  0.00    +0.630 A 
ATOM      7  N   LIG    1        1.161  -0.653  -0.013  0.00  0.00    -0.660 NA
BRANCH   2   8
ATOM      8  N   LIG    1       -0.017   1.376   0.010  0.00  0.00    -0.810 N 
ATOM      9  H   LIG    1       -0.863   1.849   0.016  0.00  0.00    +0.420 HD
ATOM     10  H   LIG    1        0.817   1.872   0.004  0.00  0.00    +0.420 HD
ENDBRANCH   2   8
BRANCH   6  11
ATOM     11  N   LIG    1        2.375  -2.661  -0.025  0.00  0.00    -0.810 N 
ATOM     12  H   LIG    1        3.211  -2.169  -0.026  0.00  0.00    +0.420 HD
ATOM     13  H   LIG    1        2.384  -3.631  -0.031  0.00  0.00    +0.420 HD
ENDBRANCH   6  11
ENDBRANCH   1   4
BRANCH   1  14
ATOM     14  C   LIG    1       -2.860  -3.024  -1.421  0.00  0.00    +0.440 A 
ATOM     15  N   LIG    1       -3.631  -2.144  -2.036  0.00  0.00    -0.620 NA
ATOM     16  C   LIG    1       -4.021  -2.360  -3.291  0.00  0.00    +0.630 A 
ATOM     17  N   LIG    1       -3.633  -3.462  -3.925  0.00  0.00    -0.660 NA
ATOM     18  C   LIG    1       -2.858  -4.344  -3.303  0.00  0.00    +0.630 A 
ATOM     19  N   LIG    1       -2.468  -4.118  -2.051  0.00  0.00    -0.620 NA
BRANCH  18  20
ATOM     20  N   LIG    1       -2.453  -5.489  -3.957  0.00  0.00    -0.810 N 
ATOM     21  H   LIG    1       -1.886  -6.133  -3.503  0.00  0.00    +0.420 HD
ATOM     22  H   LIG    1       -2.734  -5.651  -4.871  0.00  0.00    +0.420 HD
ENDBRANCH  18  20
BRANCH  16  23
ATOM     23  N   LIG    1       -4.826  -1.441  -3.932  0.00  0.00    -0.810 N 
ATOM     24  H   LIG    1       -5.109  -1.599  -4.846  0.00  0.00    +0.420 HD
ATOM     25  H   LIG    1       -5.108  -0.637  -3.468  0.00  0.00    +0.420 HD
ENDBRANCH  16  23
ENDBRANCH   1  14
TORSDOF 6
ENDMDL
MODEL     1169
REMARK  Name = ZINC000328578063
REMARK                            x       y       z     vdW  Elec       q    Type
REMARK                         _______ _______ _______ _____ _____    ______ ____
ROOT
ATOM      1  C   LIG    1       -1.295  -0.603   0.011  0.00  0.00    +0.170 C 
ATOM      2  C   LIG    1       -1.739  -0.914   1.463  0.00  0.00    +0.150 C 
ATOM      3  C   LIG    1       -2.483  -2.269   1.279  0.00  0.00    +0.160 C 
ATOM      4  C   LIG    1       -3.878  -1.943   0.758  0.00  0.00    +0.270 C 
ATOM      5  O   LIG    1       -3.804  -1.020  -0.355  0.00  0.00    -0.310 OA
ATOM      6  C   LIG    1       -3.519  -1.553  -1.568  0.00  0.00    +0.580 A 
ATOM      7  N   LIG    1       -4.437  -1.634  -2.500  0.00  0.00    -0.560 NA
ATOM      8  C   LIG    1       -4.145  -2.139  -3.709  0.00  0.00    +0.520 A 
ATOM      9  C   LIG    1       -2.824  -2.571  -3.987  0.00  0.00    -0.110 A 
ATOM     10  C   LIG    1       -1.892  -2.491  -3.011  0.00  0.00    +0.330 A 
ATOM     11  O   LIG    1       -5.013  -2.225  -4.564  0.00  0.00    -0.500 OA
ATOM     12  N   LIG    1       -2.247  -2.002  -1.792  0.00  0.00    -0.530 N 
ATOM     13  O   LIG    1       -1.692  -2.951   0.302  0.00  0.00    -0.340 OA
ATOM     14  C   LIG    1       -1.259  -1.978  -0.674  0.00  0.00    +0.450 C 
ENDROOT
BRANCH   1  16
ATOM     15  C   LIG    1       -0.017   1.425   0.010  0.00  0.00    +0.230 C 
ATOM     16  O   LIG    1        0.002  -0.004   0.002  0.00  0.00    -0.350 OA
ENDBRANCH   1  16
BRANCH   2  17
ATOM     17  O   LIG    1       -0.608  -1.063   2.324  0.00  0.00    -0.530 OA
ATOM     18  H   LIG    1       -0.837  -1.259   3.243  0.00  0.00    +0.380 HD
ENDBRANCH   2  17
TORSDOF 2
ENDMDL
MODEL     1170
REMARK  Name = ZINC000216644727
REMARK                            x       y       z     vdW  Elec       q    Type
REMARK                         _______ _______ _______ _____ _____    ______ ____
ROOT
ATOM      1  C   LIG    1       -1.470  -0.712   0.068  0.00  0.00    +0.140 C 
ATOM      2  O   LIG    1       -2.026  -0.406  -1.230  0.00  0.00    -0.350 OA
ATOM      3  C   LIG    1       -3.255  -1.161  -1.305  0.00  0.00    +0.280 C 
ATOM      4  C   LIG    1       -2.919  -2.527  -0.667  0.00  0.00    +0.200 C 
ATOM      5  C   LIG    1       -1.717  -2.225   0.259  0.00  0.00    +0.140 C 
ENDROOT
BRANCH   4   6
ATOM      6  O   LIG    1       -2.554  -3.474  -1.674  0.00  0.00    -0.540 OA
ATOM      7  H   LIG    1       -2.332  -4.349  -1.329  0.00  0.00    +0.390 HD
ENDBRANCH   4   6
BRANCH   3   8
ATOM      8  O   LIG    1       -4.287  -0.507  -0.563  0.00  0.00    -0.550 OA
ATOM      9  H   LIG    1       -4.429   0.415  -0.817  0.00  0.00    +0.400 HD
ENDBRANCH   3   8
BRANCH   5  10
ATOM     10  O   LIG    1       -0.571  -2.976  -0.146  0.00  0.00    -0.540 OA
ATOM     11  H   LIG    1        0.212  -2.824   0.401  0.00  0.00    +0.380 HD
ENDBRANCH   5  10
BRANCH   1  12
ATOM     12  C   LIG    1        0.030  -0.411   0.089  0.00  0.00    +0.210 C 
BRANCH  12  13
ATOM     13  O   LIG    1        0.233   1.000  -0.009  0.00  0.00    -0.560 OA
ATOM     14  H   LIG    1        1.163   1.265  -0.002  0.00  0.00    +0.380 HD
ENDBRANCH  12  13
ENDBRANCH   1  12
BRANCH   3  15
ATOM     15  C   LIG    1       -3.682  -1.342  -2.763  0.00  0.00    +0.220 C 
BRANCH  15  16
ATOM     16  N   LIG    1       -4.043  -0.036  -3.333  0.00  0.00    -0.540 NA
ATOM     17  C   LIG    1       -4.705  -0.195  -4.635  0.00  0.00    +0.150 C 
ATOM     18  C   LIG    1       -5.116   1.181  -5.164  0.00  0.00    +0.220 C 
ATOM     19  O   LIG    1       -3.961   2.021  -5.242  0.00  0.00    -0.390 OA
ATOM     20  C   LIG    1       -3.292   2.198  -3.991  0.00  0.00    +0.220 C 
ATOM     21  C   LIG    1       -2.862   0.831  -3.451  0.00  0.00    +0.160 C 
ENDBRANCH  15  16
ENDBRANCH   3  15
TORSDOF 7
ENDMDL
MODEL     1171
REMARK  Name = ZINC000216644770
REMARK                            x       y       z     vdW  Elec       q    Type
REMARK                         _______ _______ _______ _____ _____    ______ ____
ROOT
ATOM      1  C   LIG    1       -1.468  -0.714   0.067  0.00  0.00    +0.140 C 
ATOM      2  O   LIG    1       -2.024  -0.407  -1.230  0.00  0.00    -0.360 OA
ATOM      3  C   LIG    1       -3.254  -1.161  -1.305  0.00  0.00    +0.290 C 
ATOM      4  C   LIG    1       -2.918  -2.528  -0.669  0.00  0.00    +0.190 C 
ATOM      5  C   LIG    1       -1.716  -2.227   0.258  0.00  0.00    +0.140 C 
ENDROOT
BRANCH   4   6
ATOM      6  O   LIG    1       -4.027  -3.013   0.090  0.00  0.00    -0.530 OA
ATOM      7  H   LIG    1       -3.871  -3.869   0.512  0.00  0.00    +0.380 HD
ENDBRANCH   4   6
BRANCH   3   8
ATOM      8  O   LIG    1       -4.285  -0.507  -0.562  0.00  0.00    -0.530 OA
ATOM      9  H   LIG    1       -4.428   0.415  -0.817  0.00  0.00    +0.390 HD
ENDBRANCH   3   8
BRANCH   5  10
ATOM     10  O   LIG    1       -0.571  -2.978  -0.148  0.00  0.00    -0.550 OA
ATOM     11  H   LIG    1        0.212  -2.828   0.399  0.00  0.00    +0.380 HD
ENDBRANCH   5  10
BRANCH   1  12
ATOM     12  C   LIG    1        0.032  -0.414   0.088  0.00  0.00    +0.200 C 
BRANCH  12  13
ATOM     13  O   LIG    1        0.236   0.997  -0.009  0.00  0.00    -0.560 OA
ATOM     14  H   LIG    1        1.167   1.261  -0.001  0.00  0.00    +0.380 HD
ENDBRANCH  12  13
ENDBRANCH   1  12
BRANCH   3  15
ATOM     15  C   LIG    1       -3.681  -1.340  -2.763  0.00  0.00    +0.200 C 
BRANCH  15  16
ATOM     16  N   LIG    1       -4.040  -0.034  -3.332  0.00  0.00    -0.530 NA
ATOM     17  C   LIG    1       -4.702  -0.191  -4.635  0.00  0.00    +0.150 C 
ATOM     18  C   LIG    1       -5.112   1.187  -5.163  0.00  0.00    +0.220 C 
ATOM     19  O   LIG    1       -3.956   2.025  -5.240  0.00  0.00    -0.390 OA
ATOM     20  C   LIG    1       -3.288   2.200  -3.988  0.00  0.00    +0.220 C 
ATOM     21  C   LIG    1       -2.859   0.833  -3.449  0.00  0.00    +0.170 C 
ENDBRANCH  15  16
ENDBRANCH   3  15
TORSDOF 7
ENDMDL
MODEL     1172
REMARK  Name = ZINC000033413799
REMARK                            x       y       z     vdW  Elec       q    Type
REMARK                         _______ _______ _______ _____ _____    ______ ____
ROOT
ATOM      1  C   LIG    1        3.449  -2.534  -0.026  0.00  0.00    +0.170 C 
ATOM      2  O   LIG    1        3.639  -1.840  -1.278  0.00  0.00    -0.320 OA
ATOM      3  C   LIG    1        5.062  -1.616  -1.377  0.00  0.00    +0.170 C 
ATOM      4  C   LIG    1        5.704  -2.922  -0.862  0.00  0.00    +0.180 C 
ATOM      5  C   LIG    1        4.619  -3.541   0.051  0.00  0.00    +0.160 C 
ENDROOT
BRANCH   4   6
ATOM      6  O   LIG    1        6.005  -3.796  -1.952  0.00  0.00    -0.540 OA
ATOM      7  H   LIG    1        6.411  -4.633  -1.685  0.00  0.00    +0.390 HD
ENDBRANCH   4   6
BRANCH   5   8
ATOM      8  O   LIG    1        4.215  -4.818  -0.447  0.00  0.00    -0.530 OA
ATOM      9  H   LIG    1        3.535  -5.251   0.088  0.00  0.00    +0.380 HD
ENDBRANCH   5   8
BRANCH   1  10
ATOM     10  S   LIG    1        1.864  -3.409  -0.024  0.00  0.00    +0.050 S 
BRANCH  10  15
ATOM     11  C   LIG    1        0.002  -0.004   0.002  0.00  0.00    +0.490 A 
ATOM     12  N   LIG    1       -1.055  -0.780   0.002  0.00  0.00    -0.360 NA
ATOM     13  N   LIG    1       -0.590  -2.105  -0.007  0.00  0.00    -0.460 N 
ATOM     14  H   LIG    1       -1.131  -2.910  -0.009  0.00  0.00    +0.440 HD
ATOM     15  C   LIG    1        0.758  -2.038  -0.012  0.00  0.00    +0.280 A 
ATOM     16  N   LIG    1        1.101  -0.766  -0.013  0.00  0.00    -0.550 NA
BRANCH  11  17
ATOM     17  N   LIG    1       -0.017   1.391   0.010  0.00  0.00    -0.820 N 
ATOM     18  H   LIG    1       -0.863   1.865   0.016  0.00  0.00    +0.410 HD
ATOM     19  H   LIG    1        0.817   1.888   0.004  0.00  0.00    +0.420 HD
ENDBRANCH  11  17
ENDBRANCH  10  15
ENDBRANCH   1  10
BRANCH   3  20
ATOM     20  C   LIG    1        5.461  -1.361  -2.833  0.00  0.00    +0.220 C 
BRANCH  20  21
ATOM     21  O   LIG    1        4.892  -0.127  -3.273  0.00  0.00    -0.570 OA
ATOM     22  H   LIG    1        5.104   0.099  -4.190  0.00  0.00    +0.380 HD
ENDBRANCH  20  21
ENDBRANCH   3  20
TORSDOF 7
ENDMDL
MODEL     1173
REMARK  Name = ZINC000052222068
REMARK                            x       y       z     vdW  Elec       q    Type
REMARK                         _______ _______ _______ _____ _____    ______ ____
ROOT
ATOM      1  N   LIG    1       -2.408  -4.226   0.002  0.00  0.00    -0.720 N 
ATOM      2  H   LIG    1       -1.526  -4.632  -0.008  0.00  0.00    +0.410 HD
ATOM      3  C   LIG    1       -3.507  -5.005   0.009  0.00  0.00    +0.500 C 
ATOM      4  O   LIG    1       -4.609  -4.499   0.022  0.00  0.00    -0.500 OA
ENDROOT
BRANCH   1   5
ATOM      5  C   LIG    1       -2.543  -2.768   0.011  0.00  0.00    +0.260 C 
BRANCH   5   6
ATOM      6  C   LIG    1       -1.154  -2.126   0.002  0.00  0.00    +0.030 C 
BRANCH   6   7
ATOM      7  C   LIG    1       -1.295  -0.603   0.011  0.00  0.00    +0.160 C 
BRANCH   7   9
ATOM      8  C   LIG    1       -0.017   1.425   0.010  0.00  0.00    +0.200 C 
ATOM      9  O   LIG    1        0.002  -0.004   0.002  0.00  0.00    -0.390 OA
ENDBRANCH   7   9
ENDBRANCH   6   7
ENDBRANCH   5   6
ENDBRANCH   1   5
BRANCH   3  10
ATOM     10  C   LIG    1       -3.368  -6.506  -0.001  0.00  0.00    +0.370 C 
BRANCH  10  11
ATOM     11  N   LIG    1       -4.698  -7.120   0.009  0.00  0.00    -0.290 N 
ATOM     12  C   LIG    1       -5.161  -8.022  -0.887  0.00  0.00    +0.180 A 
ATOM     13  C   LIG    1       -6.425  -8.319  -0.504  0.00  0.00    -0.030 A 
ATOM     14  N   LIG    1       -6.670  -7.593   0.593  0.00  0.00    -0.260 NA
ATOM     15  N   LIG    1       -5.625  -6.898   0.874  0.00  0.00    -0.050 NA
BRANCH  13  16
ATOM     16  C   LIG    1       -7.370  -9.279  -1.180  0.00  0.00    +0.310 C 
BRANCH  16  17
ATOM     17  O   LIG    1       -6.729  -9.855  -2.321  0.00  0.00    -0.570 OA
ATOM     18  H   LIG    1       -7.280 -10.484  -2.805  0.00  0.00    +0.390 HD
ENDBRANCH  16  17
ENDBRANCH  13  16
ENDBRANCH  10  11
ENDBRANCH   3  10
TORSDOF 8
ENDMDL
MODEL     1174
REMARK  Name = ZINC000004404234
REMARK                            x       y       z     vdW  Elec       q    Type
REMARK                         _______ _______ _______ _____ _____    ______ ____
ROOT
ATOM      1  C   LIG    1       -1.322   1.920  -0.188  0.00  0.00    +0.170 C 
ENDROOT
BRANCH   1   3
ATOM      2  O   LIG    1       -0.005   0.017   0.253  0.00  0.00    -0.420 OA
ATOM      3  C   LIG    1       -0.015   1.206   0.041  0.00  0.00    +0.330 C 
BRANCH   3   4
ATOM      4  C   LIG    1        1.280   1.975   0.000  0.00  0.00    +0.200 C 
BRANCH   4   5
ATOM      5  N   LIG    1        2.408   1.039   0.105  0.00  0.00    -0.530 NA
ATOM      6  C   LIG    1        3.674   1.760   0.306  0.00  0.00    +0.160 C 
ATOM      7  C   LIG    1        4.811   0.748   0.470  0.00  0.00    +0.220 C 
ATOM      8  O   LIG    1        4.850  -0.106  -0.676  0.00  0.00    -0.390 OA
ATOM      9  C   LIG    1        3.634  -0.824  -0.902  0.00  0.00    +0.220 C 
ATOM     10  C   LIG    1        2.485   0.172  -1.079  0.00  0.00    +0.150 C 
ENDBRANCH   4   5
ENDBRANCH   3   4
ENDBRANCH   1   3
BRANCH   1  11
ATOM     11  O   LIG    1       -2.393   1.133   0.337  0.00  0.00    -0.520 OA
ATOM     12  H   LIG    1       -2.472   0.257  -0.066  0.00  0.00    +0.380 HD
ENDBRANCH   1  11
BRANCH   1  13
ATOM     13  C   LIG    1       -1.532   2.131  -1.689  0.00  0.00    +0.170 C 
BRANCH  13  14
ATOM     14  O   LIG    1       -0.461   2.917  -2.214  0.00  0.00    -0.550 OA
ATOM     15  H   LIG    1       -0.383   3.793  -1.811  0.00  0.00    +0.380 HD
ENDBRANCH  13  14
BRANCH  13  16
ATOM     16  C   LIG    1       -2.859   2.855  -1.921  0.00  0.00    +0.200 C 
BRANCH  16  17
ATOM     17  O   LIG    1       -3.930   2.068  -1.397  0.00  0.00    -0.530 OA
ATOM     18  H   LIG    1       -4.009   1.193  -1.799  0.00  0.00    +0.370 HD
ENDBRANCH  16  17
BRANCH  16  19
ATOM     19  C   LIG    1       -3.069   3.066  -3.422  0.00  0.00    +0.150 C 
BRANCH  19  20
ATOM     20  O   LIG    1       -4.249   3.844  -3.634  0.00  0.00    -0.560 OA
ATOM     21  H   LIG    1       -4.444   4.017  -4.565  0.00  0.00    +0.380 HD
ENDBRANCH  19  20
ENDBRANCH  16  19
ENDBRANCH  13  16
ENDBRANCH   1  13
TORSDOF 10
ENDMDL
MODEL     1175
REMARK  Name = ZINC000004404236
REMARK                            x       y       z     vdW  Elec       q    Type
REMARK                         _______ _______ _______ _____ _____    ______ ____
ROOT
ATOM      1  C   LIG    1       -1.322   1.919  -0.188  0.00  0.00    +0.170 C 
ENDROOT
BRANCH   1   3
ATOM      2  O   LIG    1       -0.006   0.018   0.258  0.00  0.00    -0.420 OA
ATOM      3  C   LIG    1       -0.015   1.206   0.043  0.00  0.00    +0.330 C 
BRANCH   3   4
ATOM      4  C   LIG    1        1.280   1.975   0.000  0.00  0.00    +0.200 C 
BRANCH   4   5
ATOM      5  N   LIG    1        2.408   1.039   0.105  0.00  0.00    -0.530 NA
ATOM      6  C   LIG    1        3.674   1.760   0.306  0.00  0.00    +0.160 C 
ATOM      7  C   LIG    1        4.811   0.748   0.470  0.00  0.00    +0.220 C 
ATOM      8  O   LIG    1        4.850  -0.106  -0.676  0.00  0.00    -0.390 OA
ATOM      9  C   LIG    1        3.634  -0.824  -0.902  0.00  0.00    +0.230 C 
ATOM     10  C   LIG    1        2.485   0.172  -1.079  0.00  0.00    +0.140 C 
ENDBRANCH   4   5
ENDBRANCH   3   4
ENDBRANCH   1   3
BRANCH   1  11
ATOM     11  O   LIG    1       -2.348   0.960  -0.451  0.00  0.00    -0.530 OA
ATOM     12  H   LIG    1       -2.491   0.330   0.268  0.00  0.00    +0.380 HD
ENDBRANCH   1  11
BRANCH   1  13
ATOM     13  C   LIG    1       -1.689   2.729   1.058  0.00  0.00    +0.180 C 
BRANCH  13  14
ATOM     14  O   LIG    1       -0.663   3.688   1.321  0.00  0.00    -0.550 OA
ATOM     15  H   LIG    1       -0.520   4.319   0.602  0.00  0.00    +0.380 HD
ENDBRANCH  13  14
BRANCH  13  16
ATOM     16  C   LIG    1       -3.016   3.454   0.823  0.00  0.00    +0.200 C 
BRANCH  16  17
ATOM     17  O   LIG    1       -2.924   4.244  -0.364  0.00  0.00    -0.540 OA
ATOM     18  H   LIG    1       -2.232   4.919  -0.334  0.00  0.00    +0.370 HD
ENDBRANCH  16  17
BRANCH  16  19
ATOM     19  C   LIG    1       -3.320   4.360   2.017  0.00  0.00    +0.170 C 
BRANCH  19  20
ATOM     20  O   LIG    1       -4.613   4.947   1.852  0.00  0.00    -0.560 OA
ATOM     21  H   LIG    1       -4.872   5.535   2.575  0.00  0.00    +0.380 HD
ENDBRANCH  19  20
ENDBRANCH  16  19
ENDBRANCH  13  16
ENDBRANCH   1  13
TORSDOF 10
ENDMDL
MODEL     1176
REMARK  Name = ZINC000104040734
REMARK                            x       y       z     vdW  Elec       q    Type
REMARK                         _______ _______ _______ _____ _____    ______ ____
ROOT
ATOM      1  C   LIG    1       -1.322   1.920  -0.188  0.00  0.00    +0.180 C 
ENDROOT
BRANCH   1   3
ATOM      2  O   LIG    1       -0.006   0.017   0.255  0.00  0.00    -0.420 OA
ATOM      3  C   LIG    1       -0.015   1.206   0.042  0.00  0.00    +0.340 C 
BRANCH   3   4
ATOM      4  C   LIG    1        1.280   1.975   0.000  0.00  0.00    +0.180 C 
BRANCH   4   5
ATOM      5  N   LIG    1        2.408   1.039   0.105  0.00  0.00    -0.520 NA
ATOM      6  C   LIG    1        3.674   1.760   0.306  0.00  0.00    +0.160 C 
ATOM      7  C   LIG    1        4.811   0.748   0.470  0.00  0.00    +0.220 C 
ATOM      8  O   LIG    1        4.850  -0.106  -0.676  0.00  0.00    -0.390 OA
ATOM      9  C   LIG    1        3.634  -0.824  -0.902  0.00  0.00    +0.220 C 
ATOM     10  C   LIG    1        2.485   0.172  -1.079  0.00  0.00    +0.160 C 
ENDBRANCH   4   5
ENDBRANCH   3   4
ENDBRANCH   1   3
BRANCH   1  11
ATOM     11  O   LIG    1       -2.393   1.133   0.337  0.00  0.00    -0.520 OA
ATOM     12  H   LIG    1       -2.472   0.257  -0.065  0.00  0.00    +0.370 HD
ENDBRANCH   1  11
BRANCH   1  13
ATOM     13  C   LIG    1       -1.532   2.129  -1.689  0.00  0.00    +0.170 C 
BRANCH  13  14
ATOM     14  O   LIG    1       -1.443   0.872  -2.362  0.00  0.00    -0.550 OA
ATOM     15  H   LIG    1       -2.098   0.222  -2.071  0.00  0.00    +0.380 HD
ENDBRANCH  13  14
BRANCH  13  16
ATOM     16  C   LIG    1       -2.913   2.740  -1.931  0.00  0.00    +0.200 C 
BRANCH  16  17
ATOM     17  O   LIG    1       -3.912   1.916  -1.326  0.00  0.00    -0.530 OA
ATOM     18  H   LIG    1       -3.936   1.012  -1.668  0.00  0.00    +0.360 HD
ENDBRANCH  16  17
BRANCH  16  19
ATOM     19  C   LIG    1       -3.173   2.834  -3.436  0.00  0.00    +0.160 C 
BRANCH  19  20
ATOM     20  O   LIG    1       -4.411   3.511  -3.664  0.00  0.00    -0.560 OA
ATOM     21  H   LIG    1       -4.641   3.607  -4.598  0.00  0.00    +0.380 HD
ENDBRANCH  19  20
ENDBRANCH  16  19
ENDBRANCH  13  16
ENDBRANCH   1  13
TORSDOF 10
ENDMDL
MODEL     1177
REMARK  Name = ZINC000001698417
REMARK                            x       y       z     vdW  Elec       q    Type
REMARK                         _______ _______ _______ _____ _____    ______ ____
ROOT
ATOM      1  O   LIG    1        0.002  -0.004   0.002  0.00  0.00    -0.530 OA
ATOM      2  C   LIG    1       -0.014   1.212   0.009  0.00  0.00    +0.730 C 
ATOM      3  N   LIG    1       -1.160   1.951   0.029  0.00  0.00    -0.730 N 
ATOM      4  H   LIG    1       -2.059   1.637   0.216  0.00  0.00    +0.440 HD
ATOM      5  C   LIG    1       -0.756   3.302  -0.286  0.00  0.00    +0.540 C 
ATOM      6  N   LIG    1       -1.436   4.473   0.199  0.00  0.00    -0.710 N 
ATOM      7  H   LIG    1       -2.345   4.441   0.536  0.00  0.00    +0.430 HD
ATOM      8  C   LIG    1       -0.716   5.631   0.151  0.00  0.00    +0.740 C 
ATOM      9  N   LIG    1        0.571   5.652  -0.250  0.00  0.00    -0.670 N 
ATOM     10  H   LIG    1        0.958   6.484  -0.563  0.00  0.00    +0.440 HD
ATOM     11  C   LIG    1        1.343   4.525  -0.224  0.00  0.00    +0.540 C 
ATOM     12  O   LIG    1        2.486   4.507  -0.627  0.00  0.00    -0.450 OA
ATOM     13  O   LIG    1       -1.250   6.673   0.479  0.00  0.00    -0.520 OA
ATOM     14  C   LIG    1        0.671   3.321   0.335  0.00  0.00    +0.300 C 
ATOM     15  N   LIG    1        1.111   1.982   0.002  0.00  0.00    -0.710 N 
ATOM     16  H   LIG    1        2.017   1.693  -0.189  0.00  0.00    +0.440 HD
ENDROOT
BRANCH   5  17
ATOM     17  O   LIG    1       -0.625   3.418  -1.704  0.00  0.00    -0.560 OA
ATOM     18  H   LIG    1       -1.446   3.256  -2.189  0.00  0.00    +0.400 HD
ENDBRANCH   5  17
BRANCH  14  19
ATOM     19  O   LIG    1        0.575   3.441   1.756  0.00  0.00    -0.530 OA
ATOM     20  H   LIG    1        1.428   3.534   2.202  0.00  0.00    +0.400 HD
ENDBRANCH  14  19
TORSDOF 2
ENDMDL
MODEL     1178
REMARK  Name = ZINC000231563598
REMARK                            x       y       z     vdW  Elec       q    Type
REMARK                         _______ _______ _______ _____ _____    ______ ____
ROOT
ATOM      1  O   PRO A  1        0.002  -0.004   0.002  0.00  0.00    -0.510 OA
ATOM      2  C   PRO A  1       -0.014   1.209   0.009  0.00  0.00    +0.550 C 
ATOM      3  CA  PRO A  1       -1.318   1.955   0.031  0.00  0.00    +0.200 C 
ATOM      4  CB  PRO A  1       -2.256   1.293   1.061  0.00  0.00    +0.060 C 
ATOM      5  CG  PRO A  1       -3.369   2.357   1.232  0.00  0.00    +0.040 C 
ATOM      6  CD  PRO A  1       -2.730   3.684   0.768  0.00  0.00    +0.280 C 
ATOM      7  N   PRO A  1       -1.335   3.387   0.395  0.00  0.00    -0.610 N 
ATOM      8  C   HYP A  2       -0.190   4.090   0.374  0.00  0.00    +0.550 C 
ATOM      9  CA  HYP A  2        1.116   3.348   0.328  0.00  0.00    +0.210 C 
ATOM     10  CB  HYP A  2        2.038   4.020  -0.709  0.00  0.00    +0.090 C 
ATOM     11  CG  HYP A  2        3.152   2.961  -0.902  0.00  0.00    +0.180 C 
ATOM     12  CD  HYP A  2        2.523   1.629  -0.439  0.00  0.00    +0.270 C 
ATOM     13  O   HYP A  2       -0.210   5.302   0.391  0.00  0.00    -0.510 OA
ATOM     14  N   HYP A  2        1.133   1.907   0.002  0.00  0.00    -0.610 N 
ENDROOT
BRANCH  11  15
ATOM     15  OD  HYP A  2        4.288   3.282  -0.098  0.00  0.00    -0.550 OA
ATOM     16  HD  HYP A  2        5.018   2.653  -0.178  0.00  0.00    +0.390 HD
ENDBRANCH  11  15
TORSDOF 1
ENDMDL
MODEL     1179
REMARK  Name = ZINC000008653311
REMARK                            x       y       z     vdW  Elec       q    Type
REMARK                         _______ _______ _______ _____ _____    ______ ____
ROOT
ATOM      1  C   LIG    1        0.002  -0.004   0.002  0.00  0.00    +0.640 A 
ATOM      2  N   LIG    1       -1.137  -0.656   0.004  0.00  0.00    -0.550 NA
ATOM      3  C   LIG    1       -1.165  -2.003  -0.004  0.00  0.00    +0.330 A 
ATOM      4  C   LIG    1        0.040  -2.712  -0.014  0.00  0.00    -0.170 A 
ATOM      5  N   LIG    1       -0.301  -4.051  -0.020  0.00  0.00    -0.420 N 
ATOM      6  C   LIG    1       -1.649  -4.116  -0.013  0.00  0.00    +0.490 A 
ATOM      7  C   LIG    1        1.251  -2.000  -0.016  0.00  0.00    +0.600 A 
ATOM      8  O   LIG    1        2.320  -2.587  -0.025  0.00  0.00    -0.540 OA
ATOM      9  N   LIG    1       -2.155  -2.912  -0.004  0.00  0.00    -0.490 NA
ATOM     10  N   LIG    1        1.203  -0.649  -0.013  0.00  0.00    -0.650 N 
ATOM     11  H   LIG    1        2.027  -0.137  -0.015  0.00  0.00    +0.420 HD
ENDROOT
BRANCH   1  12
ATOM     12  N   LIG    1       -0.017   1.369   0.010  0.00  0.00    -0.820 N 
ATOM     13  H   LIG    1       -0.863   1.842   0.016  0.00  0.00    +0.430 HD
ATOM     14  H   LIG    1        0.817   1.865   0.004  0.00  0.00    +0.420 HD
ENDBRANCH   1  12
BRANCH   5  15
ATOM     15  C   LIG    1        0.625  -5.185  -0.031  0.00  0.00    +0.290 C 
BRANCH  15  16
ATOM     16  C   LIG    1        1.052  -5.509   1.403  0.00  0.00    +0.200 C 
BRANCH  16  17
ATOM     17  O   LIG    1        1.801  -4.414   1.935  0.00  0.00    -0.540 OA
ATOM     18  H   LIG    1        2.604  -4.208   1.438  0.00  0.00    +0.380 HD
ENDBRANCH  16  17
BRANCH  16  19
ATOM     19  C   LIG    1        1.920  -6.769   1.404  0.00  0.00    +0.160 C 
BRANCH  19  20
ATOM     20  O   LIG    1        2.222  -7.137   2.751  0.00  0.00    -0.560 OA
ATOM     21  H   LIG    1        2.771  -7.930   2.829  0.00  0.00    +0.380 HD
ENDBRANCH  19  20
ENDBRANCH  16  19
ENDBRANCH  15  16
ENDBRANCH   5  15
TORSDOF 6
ENDMDL
MODEL     1180
REMARK  Name = ZINC000104058177
REMARK                            x       y       z     vdW  Elec       q    Type
REMARK                         _______ _______ _______ _____ _____    ______ ____
ROOT
ATOM      1  O   LIG    1        0.002  -0.004   0.002  0.00  0.00    -0.460 OA
ATOM      2  C   LIG    1       -0.014   1.208   0.009  0.00  0.00    +0.570 C 
ATOM      3  N   LIG    1       -1.114   2.028   0.030  0.00  0.00    -0.710 N 
ATOM      4  H   LIG    1       -2.019   1.716  -0.128  0.00  0.00    +0.420 HD
ATOM      5  C   LIG    1       -0.801   3.331   0.295  0.00  0.00    +0.550 C 
ATOM      6  C   LIG    1        0.597   3.325   0.831  0.00  0.00    +0.020 C 
ATOM      7  C   LIG    1        1.600   4.385   0.386  0.00  0.00    +0.050 C 
ATOM      8  C   LIG    1        1.867   5.356   1.528  0.00  0.00    +0.530 C 
ATOM      9  O   LIG    1        1.257   6.387   1.715  0.00  0.00    -0.460 OA
ATOM     10  N   LIG    1        2.879   4.898   2.281  0.00  0.00    -0.680 N 
ATOM     11  H   LIG    1        3.140   5.310   3.120  0.00  0.00    +0.420 HD
ATOM     12  C   LIG    1        3.499   3.821   1.775  0.00  0.00    +0.540 C 
ATOM     13  O   LIG    1        4.349   3.164   2.337  0.00  0.00    -0.460 OA
ATOM     14  C   LIG    1        2.961   3.565   0.388  0.00  0.00    +0.020 C 
ATOM     15  C   LIG    1        2.569   2.068   0.243  0.00  0.00    +0.130 C 
ATOM     16  O   LIG    1       -1.514   4.298   0.131  0.00  0.00    -0.450 OA
ATOM     17  C   LIG    1        1.119   2.102   0.003  0.00  0.00    -0.050 C 
ENDROOT
TORSDOF 0
ENDMDL
MODEL     1181
REMARK  Name = ZINC000034120442
REMARK                            x       y       z     vdW  Elec       q    Type
REMARK                         _______ _______ _______ _____ _____    ______ ____
ROOT
ATOM      1  O   LIG    1        3.495  -3.886  -1.599  0.00  0.00    -0.370 OA
ENDROOT
BRANCH   1   2
ATOM      2  C   LIG    1        2.122  -4.263  -1.723  0.00  0.00    +0.190 C 
BRANCH   2   3
ATOM      3  C   LIG    1        1.384  -3.936  -0.423  0.00  0.00    +0.190 C 
BRANCH   3   4
ATOM      4  O   LIG    1        1.371  -2.521  -0.226  0.00  0.00    -0.380 OA
BRANCH   4   5
ATOM      5  C   LIG    1        0.702  -2.107   0.967  0.00  0.00    +0.190 C 
BRANCH   5   6
ATOM      6  C   LIG    1        0.749  -0.581   1.075  0.00  0.00    +0.190 C 
BRANCH   6   7
ATOM      7  O   LIG    1        0.002  -0.004   0.002  0.00  0.00    -0.240 OA
BRANCH   7   8
ATOM      8  N   LIG    1       -0.018   1.459   0.010  0.00  0.00    -0.680 NA
ATOM      9  H   LIG    1       -0.556   1.817  -0.764  0.00  0.00    +0.370 HD
ATOM     10  H   LIG    1        0.919   1.833   0.003  0.00  0.00    +0.340 HD
ENDBRANCH   7   8
ENDBRANCH   6   7
ENDBRANCH   5   6
ENDBRANCH   4   5
ENDBRANCH   3   4
ENDBRANCH   2   3
ENDBRANCH   1   2
BRANCH   1  11
ATOM     11  C   LIG    1        4.278  -4.150  -2.764  0.00  0.00    +0.190 C 
BRANCH  11  12
ATOM     12  C   LIG    1        5.722  -3.709  -2.519  0.00  0.00    +0.190 C 
BRANCH  12  13
ATOM     13  O   LIG    1        6.297  -4.514  -1.487  0.00  0.00    -0.380 OA
BRANCH  13  14
ATOM     14  C   LIG    1        7.652  -4.182  -1.179  0.00  0.00    +0.190 C 
BRANCH  14  15
ATOM     15  C   LIG    1        8.162  -5.102  -0.067  0.00  0.00    +0.190 C 
BRANCH  15  16
ATOM     16  O   LIG    1        8.201  -6.448  -0.544  0.00  0.00    -0.240 OA
BRANCH  16  17
ATOM     17  N   LIG    1        8.677  -7.416   0.446  0.00  0.00    -0.680 NA
ATOM     18  H   LIG    1        8.687  -8.349   0.063  0.00  0.00    +0.370 HD
ATOM     19  H   LIG    1        8.121  -7.375   1.287  0.00  0.00    +0.340 HD
ENDBRANCH  16  17
ENDBRANCH  15  16
ENDBRANCH  14  15
ENDBRANCH  13  14
ENDBRANCH  12  13
ENDBRANCH  11  12
ENDBRANCH   1  11
TORSDOF 14
ENDMDL
MODEL     1182
REMARK  Name = ZINC000005553612
REMARK                            x       y       z     vdW  Elec       q    Type
REMARK                         _______ _______ _______ _____ _____    ______ ____
ROOT
ATOM      1  C   LIG    1       -1.295  -0.603   0.011  0.00  0.00    +0.330 C 
ATOM      2  C   LIG    1       -2.010  -0.208   1.268  0.00  0.00    +0.490 C 
ATOM      3  N   LIG    1       -2.934   0.757   1.301  0.00  0.00    -0.610 N 
ATOM      4  C   LIG    1       -3.330   1.513   0.120  0.00  0.00    +0.320 C 
ATOM      5  C   LIG    1       -2.956   0.790  -1.139  0.00  0.00    +0.510 C 
ATOM      6  O   LIG    1       -3.519   1.090  -2.170  0.00  0.00    -0.520 OA
ATOM      7  C   LIG    1       -3.576   1.069   2.580  0.00  0.00    +0.310 C 
ATOM      8  O   LIG    1       -1.737  -0.787   2.299  0.00  0.00    -0.470 OA
ATOM      9  N   LIG    1       -2.028  -0.172  -1.171  0.00  0.00    -0.610 N 
ATOM     10  C   LIG    1       -1.735  -0.819  -2.452  0.00  0.00    +0.300 C 
ENDROOT
BRANCH   1  12
ATOM     11  C   LIG    1       -0.017   1.425   0.010  0.00  0.00    +0.220 C 
ATOM     12  O   LIG    1        0.002  -0.004   0.002  0.00  0.00    -0.350 OA
ENDBRANCH   1  12
BRANCH   1  13
ATOM     13  C   LIG    1       -1.144  -2.125  -0.020  0.00  0.00    +0.230 C 
BRANCH  13  14
ATOM     14  O   LIG    1       -0.511  -2.566   1.183  0.00  0.00    -0.540 OA
ATOM     15  H   LIG    1       -0.383  -3.523   1.231  0.00  0.00    +0.380 HD
ENDBRANCH  13  14
ENDBRANCH   1  13
TORSDOF 3
ENDMDL
MODEL     1183
REMARK  Name = ZINC000005732072
REMARK                            x       y       z     vdW  Elec       q    Type
REMARK                         _______ _______ _______ _____ _____    ______ ____
ROOT
ATOM      1  C   LIG    1       -1.335  -0.506  -0.034  0.00  0.00    +0.300 C 
ATOM      2  O   LIG    1       -1.988  -0.105  -1.240  0.00  0.00    -0.360 OA
ATOM      3  C   LIG    1       -3.339  -0.559  -1.351  0.00  0.00    +0.140 C 
ATOM      4  C   LIG    1       -3.364  -2.090  -1.339  0.00  0.00    +0.120 C 
ATOM      5  C   LIG    1       -2.704  -2.594  -0.052  0.00  0.00    +0.160 C 
ATOM      6  C   LIG    1       -1.280  -2.035   0.031  0.00  0.00    +0.160 C 
ENDROOT
BRANCH   1   8
ATOM      7  C   LIG    1        0.770  -0.319  -1.165  0.00  0.00    +0.220 C 
ATOM      8  O   LIG    1       -0.007   0.020  -0.014  0.00  0.00    -0.340 OA
ENDBRANCH   1   8
BRANCH   5   9
ATOM      9  O   LIG    1       -2.659  -4.022  -0.065  0.00  0.00    -0.550 OA
ATOM     10  H   LIG    1       -3.528  -4.442  -0.122  0.00  0.00    +0.390 HD
ENDBRANCH   5   9
BRANCH   4  11
ATOM     11  O   LIG    1       -2.649  -2.588  -2.471  0.00  0.00    -0.540 OA
ATOM     12  H   LIG    1       -3.011  -2.304  -3.321  0.00  0.00    +0.380 HD
ENDBRANCH   4  11
BRANCH   6  13
ATOM     13  O   LIG    1       -0.679  -2.441   1.262  0.00  0.00    -0.550 OA
ATOM     14  H   LIG    1       -0.616  -3.399   1.372  0.00  0.00    +0.390 HD
ENDBRANCH   6  13
BRANCH   3  15
ATOM     15  C   LIG    1       -3.943  -0.049  -2.661  0.00  0.00    +0.210 C 
BRANCH  15  16
ATOM     16  O   LIG    1       -4.025   1.377  -2.624  0.00  0.00    -0.560 OA
ATOM     17  H   LIG    1       -4.400   1.771  -3.424  0.00  0.00    +0.380 HD
ENDBRANCH  15  16
ENDBRANCH   3  15
BRANCH   1  18
ATOM     18  C   LIG    1       -2.114   0.028   1.170  0.00  0.00    +0.200 C 
BRANCH  18  19
ATOM     19  O   LIG    1       -2.240   1.447   1.064  0.00  0.00    -0.550 OA
ATOM     20  H   LIG    1       -2.724   1.855   1.795  0.00  0.00    +0.380 HD
ENDBRANCH  18  19
ENDBRANCH   1  18
TORSDOF 8
ENDMDL
MODEL     1184
REMARK  Name = ZINC000306771645
REMARK                            x       y       z     vdW  Elec       q    Type
REMARK                         _______ _______ _______ _____ _____    ______ ____
ROOT
ATOM      1  N   LIG    1        0.690  -0.478  -1.207  0.00  0.00    -0.370 N 
ATOM      2  C   LIG    1        0.794  -1.959  -1.198  0.00  0.00    +0.310 C 
ATOM      3  C   LIG    1        1.961  -2.276  -2.157  0.00  0.00    +0.030 C 
ATOM      4  C   LIG    1        2.860  -3.312  -1.521  0.00  0.00    +0.540 C 
ATOM      5  N   LIG    1        4.033  -2.751  -1.208  0.00  0.00    -0.670 N 
ATOM      6  H   LIG    1        4.755  -3.244  -0.788  0.00  0.00    +0.430 HD
ATOM      7  C   LIG    1        4.128  -1.453  -1.520  0.00  0.00    +0.540 C 
ATOM      8  O   LIG    1        5.100  -0.755  -1.324  0.00  0.00    -0.450 OA
ATOM      9  O   LIG    1        2.563  -4.472  -1.326  0.00  0.00    -0.450 OA
ATOM     10  C   LIG    1        2.826  -0.987  -2.170  0.00  0.00    +0.030 C 
ATOM     11  C   LIG    1        2.099  -0.011  -1.219  0.00  0.00    +0.290 C 
ATOM     12  H   LIG    1        0.206  -0.163  -2.034  0.00  0.00    +0.430 HD
ENDROOT
BRANCH   1  14
ATOM     13  C   LIG    1       -0.019   1.526   0.010  0.00  0.00    +0.090 C 
ATOM     14  C   LIG    1        0.002  -0.004   0.002  0.00  0.00    +0.080 C 
BRANCH  14  15
ATOM     15  C   LIG    1       -1.412  -0.526   0.013  0.00  0.00    +0.490 C 
ATOM     16  O   LIG    1       -1.974  -0.742   1.073  0.00  0.00    -0.640 OA
ATOM     17  O   LIG    1       -1.994  -0.731  -1.039  0.00  0.00    -0.670 OA
ENDBRANCH  14  15
ENDBRANCH   1  14
TORSDOF 2
ENDMDL
MODEL     1185
REMARK  Name = ZINC000307219289
REMARK                            x       y       z     vdW  Elec       q    Type
REMARK                         _______ _______ _______ _____ _____    ______ ____
ROOT
ATOM      1  N   LIG    1       -3.761   1.658   0.029  0.00  0.00    -0.400 N 
ATOM      2  C   LIG    1       -3.938   2.403  -1.265  0.00  0.00    +0.350 C 
ATOM      3  C   LIG    1       -5.386   2.252  -1.510  0.00  0.00    -0.070 C 
ATOM      4  C   LIG    1       -6.342   2.440  -2.577  0.00  0.00    +0.590 C 
ATOM      5  N   LIG    1       -7.404   1.639  -2.238  0.00  0.00    -0.700 N 
ATOM      6  H   LIG    1       -8.276   1.696  -2.659  0.00  0.00    +0.430 HD
ATOM      7  C   LIG    1       -7.099   0.753  -1.243  0.00  0.00    +0.550 C 
ATOM      8  O   LIG    1       -7.876   0.127  -0.554  0.00  0.00    -0.440 OA
ATOM      9  O   LIG    1       -6.230   3.148  -3.555  0.00  0.00    -0.430 OA
ATOM     10  C   LIG    1       -5.592   0.714  -1.204  0.00  0.00    +0.010 C 
ATOM     11  C   LIG    1       -4.886   0.682   0.150  0.00  0.00    +0.310 C 
ATOM     12  H   LIG    1       -3.785   2.305   0.802  0.00  0.00    +0.430 HD
ENDROOT
BRANCH   1  13
ATOM     13  C   LIG    1       -2.479   0.941   0.019  0.00  0.00    +0.280 C 
BRANCH  13  14
ATOM     14  C   LIG    1       -1.330   1.951   0.019  0.00  0.00    -0.060 C 
BRANCH  14  16
ATOM     15  O   LIG    1        0.002  -0.004   0.002  0.00  0.00    -0.690 OA
ATOM     16  C   LIG    1       -0.015   1.215   0.009  0.00  0.00    +0.500 C 
ATOM     17  O   LIG    1        1.033   1.839   0.002  0.00  0.00    -0.670 OA
ENDBRANCH  14  16
ENDBRANCH  13  14
ENDBRANCH   1  13
TORSDOF 3
ENDMDL
MODEL     1186
REMARK  Name = ZINC000307219297
REMARK                            x       y       z     vdW  Elec       q    Type
REMARK                         _______ _______ _______ _____ _____    ______ ____
ROOT
ATOM      1  N   LIG    1       -3.761   1.658   0.029  0.00  0.00    -0.400 N 
ATOM      2  C   LIG    1       -3.940   2.400  -1.263  0.00  0.00    +0.340 C 
ATOM      3  C   LIG    1       -5.085   1.736  -1.907  0.00  0.00    -0.070 C 
ATOM      4  C   LIG    1       -6.087   2.010  -2.913  0.00  0.00    +0.590 C 
ATOM      5  N   LIG    1       -7.077   1.089  -2.675  0.00  0.00    -0.700 N 
ATOM      6  H   LIG    1       -7.795   0.899  -3.298  0.00  0.00    +0.430 HD
ATOM      7  C   LIG    1       -6.940   0.469  -1.465  0.00  0.00    +0.550 C 
ATOM      8  O   LIG    1       -7.476  -0.557  -1.103  0.00  0.00    -0.430 OA
ATOM      9  O   LIG    1       -6.059   2.863  -3.774  0.00  0.00    -0.430 OA
ATOM     10  C   LIG    1       -5.999   1.346  -0.676  0.00  0.00    +0.010 C 
ATOM     11  C   LIG    1       -4.891   0.679   0.148  0.00  0.00    +0.310 C 
ATOM     12  H   LIG    1       -3.786   2.306   0.802  0.00  0.00    +0.430 HD
ENDROOT
BRANCH   1  13
ATOM     13  C   LIG    1       -2.479   0.941   0.019  0.00  0.00    +0.280 C 
BRANCH  13  14
ATOM     14  C   LIG    1       -1.330   1.951   0.019  0.00  0.00    -0.060 C 
BRANCH  14  16
ATOM     15  O   LIG    1        0.002  -0.004   0.002  0.00  0.00    -0.690 OA
ATOM     16  C   LIG    1       -0.015   1.215   0.009  0.00  0.00    +0.500 C 
ATOM     17  O   LIG    1        1.033   1.839   0.002  0.00  0.00    -0.670 OA
ENDBRANCH  14  16
ENDBRANCH  13  14
ENDBRANCH   1  13
TORSDOF 3
ENDMDL
MODEL     1187
REMARK  Name = ZINC000307219280
REMARK                            x       y       z     vdW  Elec       q    Type
REMARK                         _______ _______ _______ _____ _____    ______ ____
ROOT
ATOM      1  N   LIG    1       -3.761   1.658   0.029  0.00  0.00    -0.390 N 
ATOM      2  C   LIG    1       -3.958   2.353   1.327  0.00  0.00    +0.310 C 
ATOM      3  C   LIG    1       -5.482   2.570   1.428  0.00  0.00    +0.030 C 
ATOM      4  C   LIG    1       -5.946   2.195   2.818  0.00  0.00    +0.540 C 
ATOM      5  N   LIG    1       -6.693   1.087   2.752  0.00  0.00    -0.670 N 
ATOM      6  H   LIG    1       -7.091   0.675   3.536  0.00  0.00    +0.430 HD
ATOM      7  C   LIG    1       -6.846   0.592   1.519  0.00  0.00    +0.530 C 
ATOM      8  O   LIG    1       -7.481  -0.401   1.236  0.00  0.00    -0.450 OA
ATOM      9  O   LIG    1       -5.684   2.804   3.832  0.00  0.00    -0.440 OA
ATOM     10  C   LIG    1       -6.101   1.475   0.518  0.00  0.00    +0.030 C 
ATOM     11  C   LIG    1       -4.893   0.700  -0.050  0.00  0.00    +0.310 C 
ATOM     12  H   LIG    1       -3.803   2.317  -0.734  0.00  0.00    +0.430 HD
ENDROOT
BRANCH   1  13
ATOM     13  C   LIG    1       -2.479   0.941   0.019  0.00  0.00    +0.290 C 
BRANCH  13  14
ATOM     14  C   LIG    1       -1.330   1.951   0.019  0.00  0.00    -0.060 C 
BRANCH  14  16
ATOM     15  O   LIG    1        0.002  -0.004   0.002  0.00  0.00    -0.690 OA
ATOM     16  C   LIG    1       -0.015   1.215   0.009  0.00  0.00    +0.500 C 
ATOM     17  O   LIG    1        1.033   1.839   0.002  0.00  0.00    -0.670 OA
ENDBRANCH  14  16
ENDBRANCH  13  14
ENDBRANCH   1  13
TORSDOF 3
ENDMDL
MODEL     1188
REMARK  Name = ZINC000306771646
REMARK                            x       y       z     vdW  Elec       q    Type
REMARK                         _______ _______ _______ _____ _____    ______ ____
ROOT
ATOM      1  N   LIG    1       -1.376  -0.512   0.012  0.00  0.00    -0.380 N 
ATOM      2  C   LIG    1       -1.364  -2.016   0.045  0.00  0.00    +0.370 C 
ATOM      3  C   LIG    1       -2.515  -2.312   0.921  0.00  0.00    -0.060 C 
ATOM      4  C   LIG    1       -3.078  -3.425   1.650  0.00  0.00    +0.590 C 
ATOM      5  N   LIG    1       -3.858  -2.846   2.621  0.00  0.00    -0.700 N 
ATOM      6  H   LIG    1       -4.512  -3.333   3.146  0.00  0.00    +0.430 HD
ATOM      7  C   LIG    1       -3.613  -1.510   2.766  0.00  0.00    +0.550 C 
ATOM      8  O   LIG    1       -4.312  -0.692   3.324  0.00  0.00    -0.440 OA
ATOM      9  O   LIG    1       -2.901  -4.608   1.450  0.00  0.00    -0.430 OA
ATOM     10  C   LIG    1       -2.279  -1.283   2.099  0.00  0.00    +0.000 C 
ATOM     11  C   LIG    1       -2.082  -0.036   1.240  0.00  0.00    +0.290 C 
ATOM     12  H   LIG    1       -1.865  -0.192  -0.810  0.00  0.00    +0.430 HD
ENDROOT
BRANCH   1  14
ATOM     13  C   LIG    1       -0.019   1.526   0.010  0.00  0.00    +0.080 C 
ATOM     14  C   LIG    1        0.002  -0.004   0.002  0.00  0.00    +0.080 C 
BRANCH  14  15
ATOM     15  C   LIG    1        0.707  -0.490  -1.238  0.00  0.00    +0.490 C 
ATOM     16  O   LIG    1        0.074  -1.038  -2.124  0.00  0.00    -0.670 OA
ATOM     17  O   LIG    1        1.911  -0.336  -1.354  0.00  0.00    -0.630 OA
ENDBRANCH  14  15
ENDBRANCH   1  14
TORSDOF 2
ENDMDL
MODEL     1189
REMARK  Name = ZINC000306771647
REMARK                            x       y       z     vdW  Elec       q    Type
REMARK                         _______ _______ _______ _____ _____    ______ ____
ROOT
ATOM      1  N   LIG    1       -1.376  -0.512   0.012  0.00  0.00    -0.370 N 
ATOM      2  C   LIG    1       -2.068  -0.114   1.265  0.00  0.00    +0.290 C 
ATOM      3  C   LIG    1       -3.226  -1.122   1.411  0.00  0.00    +0.020 C 
ATOM      4  C   LIG    1       -3.282  -1.611   2.841  0.00  0.00    +0.540 C 
ATOM      5  N   LIG    1       -2.924  -2.899   2.885  0.00  0.00    -0.670 N 
ATOM      6  H   LIG    1       -2.892  -3.407   3.710  0.00  0.00    +0.430 HD
ATOM      7  C   LIG    1       -2.612  -3.429   1.696  0.00  0.00    +0.530 C 
ATOM      8  O   LIG    1       -2.264  -4.575   1.510  0.00  0.00    -0.450 OA
ATOM      9  O   LIG    1       -3.603  -0.940   3.799  0.00  0.00    -0.450 OA
ATOM     10  C   LIG    1       -2.772  -2.370   0.607  0.00  0.00    +0.030 C 
ATOM     11  C   LIG    1       -1.382  -1.997   0.047  0.00  0.00    +0.320 C 
ATOM     12  H   LIG    1       -1.883  -0.176  -0.793  0.00  0.00    +0.430 HD
ENDROOT
BRANCH   1  14
ATOM     13  C   LIG    1       -0.019   1.526   0.010  0.00  0.00    +0.080 C 
ATOM     14  C   LIG    1        0.002  -0.004   0.002  0.00  0.00    +0.080 C 
BRANCH  14  15
ATOM     15  C   LIG    1        0.707  -0.490  -1.238  0.00  0.00    +0.490 C 
ATOM     16  O   LIG    1        0.074  -1.038  -2.124  0.00  0.00    -0.670 OA
ATOM     17  O   LIG    1        1.911  -0.336  -1.354  0.00  0.00    -0.630 OA
ENDBRANCH  14  15
ENDBRANCH   1  14
TORSDOF 2
ENDMDL
MODEL     1190
REMARK  Name = ZINC000306771648
REMARK                            x       y       z     vdW  Elec       q    Type
REMARK                         _______ _______ _______ _____ _____    ______ ____
ROOT
ATOM      1  N   LIG    1       -1.376  -0.512   0.012  0.00  0.00    -0.380 N 
ATOM      2  C   LIG    1       -1.365  -2.012   0.048  0.00  0.00    +0.360 C 
ATOM      3  C   LIG    1       -1.946  -2.349   1.357  0.00  0.00    -0.060 C 
ATOM      4  C   LIG    1       -2.599  -3.460   2.014  0.00  0.00    +0.590 C 
ATOM      5  N   LIG    1       -3.242  -2.896   3.088  0.00  0.00    -0.700 N 
ATOM      6  H   LIG    1       -3.612  -3.410   3.823  0.00  0.00    +0.430 HD
ATOM      7  C   LIG    1       -3.305  -1.534   3.011  0.00  0.00    +0.560 C 
ATOM      8  O   LIG    1       -3.551  -0.759   3.911  0.00  0.00    -0.440 OA
ATOM      9  O   LIG    1       -2.582  -4.628   1.689  0.00  0.00    -0.430 OA
ATOM     10  C   LIG    1       -3.023  -1.208   1.565  0.00  0.00    +0.010 C 
ATOM     11  C   LIG    1       -2.085  -0.037   1.245  0.00  0.00    +0.300 C 
ATOM     12  H   LIG    1       -1.866  -0.193  -0.809  0.00  0.00    +0.430 HD
ENDROOT
BRANCH   1  14
ATOM     13  C   LIG    1       -0.019   1.526   0.010  0.00  0.00    +0.080 C 
ATOM     14  C   LIG    1        0.002  -0.004   0.002  0.00  0.00    +0.080 C 
BRANCH  14  15
ATOM     15  C   LIG    1        0.707  -0.490  -1.238  0.00  0.00    +0.490 C 
ATOM     16  O   LIG    1        0.074  -1.038  -2.124  0.00  0.00    -0.670 OA
ATOM     17  O   LIG    1        1.911  -0.336  -1.354  0.00  0.00    -0.630 OA
ENDBRANCH  14  15
ENDBRANCH   1  14
TORSDOF 2
ENDMDL
MODEL     1191
REMARK  Name = ZINC000001721558
REMARK                            x       y       z     vdW  Elec       q    Type
REMARK                         _______ _______ _______ _____ _____    ______ ____
ROOT
ATOM      1  C   LIG    1        0.657  -2.104  -1.120  0.00  0.00    +0.320 C 
ENDROOT
BRANCH   1   2
ATOM      2  N   LIG    1        1.354  -2.503  -2.345  0.00  0.00    -0.730 N 
ATOM      3  H   LIG    1        1.990  -1.899  -2.760  0.00  0.00    +0.420 HD
ATOM      4  C   LIG    1        1.111  -3.709  -2.896  0.00  0.00    +0.530 C 
ATOM      5  O   LIG    1        0.316  -4.463  -2.377  0.00  0.00    -0.540 OA
ATOM      6  C   LIG    1        1.827  -4.119  -4.157  0.00  0.00    +0.120 C 
ENDBRANCH   1   2
BRANCH   1   7
ATOM      7  C   LIG    1        0.598  -0.600  -1.043  0.00  0.00    +0.470 C 
ATOM      8  O   LIG    1        1.088   0.070  -1.921  0.00  0.00    -0.490 OA
BRANCH   7  10
ATOM      9  C   LIG    1       -0.018   1.448   0.010  0.00  0.00    +0.280 C 
ATOM     10  O   LIG    1        0.002  -0.004   0.002  0.00  0.00    -0.350 OA
ENDBRANCH   7  10
ENDBRANCH   1   7
BRANCH   1  11
ATOM     11  C   LIG    1        1.412  -2.647   0.096  0.00  0.00    -0.350 C 
BRANCH  11  12
ATOM     12  S   LIG    1        1.483  -4.457   0.003  0.00  0.00    +2.640 S 
ATOM     13  O   LIG    1        2.317  -4.869  -1.071  0.00  0.00    -0.950 OA
ATOM     14  O   LIG    1        0.189  -5.017   0.182  0.00  0.00    -0.930 OA
BRANCH  12  15
ATOM     15  N   LIG    1        2.315  -4.908   1.362  0.00  0.00    -1.260 NA
ATOM     16  H   LIG    1        2.484  -5.847   1.538  0.00  0.00    +0.420 HD
ATOM     17  H   LIG    1        2.634  -4.234   1.982  0.00  0.00    +0.410 HD
ENDBRANCH  12  15
ENDBRANCH  11  12
ENDBRANCH   1  11
TORSDOF 6
ENDMDL
MODEL     1192
REMARK  Name = ZINC000005605907
REMARK                            x       y       z     vdW  Elec       q    Type
REMARK                         _______ _______ _______ _____ _____    ______ ____
ROOT
ATOM      1  C   LIG    1        0.002  -0.004   0.002  0.00  0.00    +0.570 A 
ATOM      2  N   LIG    1       -1.151  -0.661   0.004  0.00  0.00    -0.550 NA
ATOM      3  C   LIG    1       -1.186  -1.984  -0.003  0.00  0.00    +0.400 A 
ATOM      4  C   LIG    1        0.010  -2.683  -0.013  0.00  0.00    -0.130 A 
ATOM      5  C   LIG    1        1.220  -1.960  -0.015  0.00  0.00    +0.340 A 
ATOM      6  N   LIG    1        2.215  -2.866  -0.024  0.00  0.00    -0.500 NA
ATOM      7  C   LIG    1        1.717  -4.071  -0.027  0.00  0.00    +0.540 A 
ATOM      8  N   LIG    1        0.366  -4.018  -0.021  0.00  0.00    -0.470 N 
ATOM      9  N   LIG    1        1.168  -0.627  -0.013  0.00  0.00    -0.540 NA
ENDROOT
BRANCH   1  10
ATOM     10  N   LIG    1       -0.017   1.382   0.010  0.00  0.00    -0.820 N 
ATOM     11  H   LIG    1       -0.863   1.855   0.016  0.00  0.00    +0.420 HD
ATOM     12  H   LIG    1        0.817   1.878   0.004  0.00  0.00    +0.420 HD
ENDBRANCH   1  10
BRANCH   8  13
ATOM     13  C   LIG    1       -0.549  -5.161  -0.022  0.00  0.00    +0.300 C 
BRANCH  13  14
ATOM     14  C   LIG    1       -0.973  -5.473  -1.459  0.00  0.00    +0.200 C 
BRANCH  14  15
ATOM     15  O   LIG    1        0.165  -5.900  -2.210  0.00  0.00    -0.540 OA
ATOM     16  H   LIG    1        0.593  -6.693  -1.859  0.00  0.00    +0.370 HD
ENDBRANCH  14  15
BRANCH  14  17
ATOM     17  C   LIG    1       -2.024  -6.586  -1.450  0.00  0.00    +0.170 C 
BRANCH  17  18
ATOM     18  O   LIG    1       -2.505  -6.797  -2.779  0.00  0.00    -0.560 OA
ATOM     19  H   LIG    1       -3.175  -7.490  -2.849  0.00  0.00    +0.390 HD
ENDBRANCH  17  18
ENDBRANCH  14  17
ENDBRANCH  13  14
ENDBRANCH   8  13
TORSDOF 6
ENDMDL
MODEL     1193
REMARK  Name = ZINC000004523272
REMARK                            x       y       z     vdW  Elec       q    Type
REMARK                         _______ _______ _______ _____ _____    ______ ____
ROOT
ATOM      1  CA  GLN A  2       -3.499  -1.070  -1.120  0.00  0.00    +0.160 C 
ENDROOT
BRANCH   1   3
ATOM      2  C   ALA A  1       -1.412  -0.526   0.013  0.00  0.00    +0.490 C 
ATOM      3  N   GLN A  2       -2.125  -0.563  -1.130  0.00  0.00    -0.660 N 
ATOM      4  H   GLN A  2       -1.728  -0.253  -1.960  0.00  0.00    +0.400 HD
ATOM      5  O   ALA A  1       -1.908  -0.912   1.050  0.00  0.00    -0.530 OA
BRANCH   2   7
ATOM      6  CB  ALA A  1       -0.019   1.526   0.010  0.00  0.00    +0.120 C 
ATOM      7  CA  ALA A  1        0.002  -0.004   0.002  0.00  0.00    +0.170 C 
BRANCH   7   8
ATOM      8  N   ALA A  1        0.713  -0.491   1.192  0.00  0.00    -0.620 N 
ATOM      9  H1  ALA A  1        1.659  -0.141   1.185  0.00  0.00    +0.440 HD
ATOM     10  H2  ALA A  1        0.726  -1.500   1.187  0.00  0.00    +0.440 HD
ATOM     11  H3  ALA A  1        0.240  -0.165   2.022  0.00  0.00    +0.440 HD
ENDBRANCH   7   8
ENDBRANCH   2   7
ENDBRANCH   1   3
BRANCH   1  12
ATOM     12  C   GLN A  2       -4.442   0.042  -0.737  0.00  0.00    +0.490 C 
ATOM     13  OXT GLN A  2       -5.479  -0.213  -0.149  0.00  0.00    -0.680 OA
ATOM     14  O   GLN A  2       -4.168   1.197  -1.016  0.00  0.00    -0.690 OA
ENDBRANCH   1  12
BRANCH   1  15
ATOM     15  CB  GLN A  2       -3.862  -1.589  -2.513  0.00  0.00    +0.070 C 
BRANCH  15  16
ATOM     16  CG  GLN A  2       -2.987  -2.798  -2.850  0.00  0.00    +0.030 C 
BRANCH  16  17
ATOM     17  CD  GLN A  2       -3.344  -3.309  -4.222  0.00  0.00    +0.510 C 
ATOM     18  OE1 GLN A  2       -4.213  -2.761  -4.866  0.00  0.00    -0.530 OA
ATOM     19  NE2 GLN A  2       -2.698  -4.376  -4.732  0.00  0.00    -0.860 N 
ATOM     20 HE21 GLN A  2       -2.928  -4.706  -5.615  0.00  0.00    +0.400 HD
ATOM     21 HE22 GLN A  2       -2.003  -4.815  -4.217  0.00  0.00    +0.400 HD
ENDBRANCH  16  17
ENDBRANCH  15  16
ENDBRANCH   1  15
TORSDOF 7
ENDMDL
MODEL     1194
REMARK  Name = ZINC000005121080
REMARK                            x       y       z     vdW  Elec       q    Type
REMARK                         _______ _______ _______ _____ _____    ______ ____
ROOT
ATOM      1  C1* LIG    1        2.406   1.113  -0.006  0.00  0.00    +0.460 C 
ATOM      2  O4* LIG    1        2.349   0.057  -0.990  0.00  0.00    -0.330 OA
ATOM      3  C4* LIG    1        1.565  -0.990  -0.379  0.00  0.00    +0.130 C 
ATOM      4  C3* LIG    1        2.036  -1.030   1.092  0.00  0.00    +0.120 C 
ATOM      5  C2* LIG    1        2.604   0.388   1.343  0.00  0.00    +0.170 C 
ENDROOT
BRANCH   1  13
ATOM      6  O   LIG    1        2.090   3.432   1.239  0.00  0.00    -0.580 OA
ATOM      7  C   LIG    1        1.096   3.039   0.659  0.00  0.00    +0.730 C 
ATOM      8  N   LIG    1       -0.013   3.793   0.698  0.00  0.00    -0.740 N 
ATOM      9  H   LIG    1        0.002   4.636   1.179  0.00  0.00    +0.410 HD
ATOM     10  C   LIG    1       -1.245   3.370   0.030  0.00  0.00    +0.250 C 
ATOM     11  C   LIG    1       -0.888   2.500  -1.179  0.00  0.00    +0.030 C 
ATOM     12  C   LIG    1       -0.013   1.336  -0.702  0.00  0.00    +0.250 C 
ATOM     13  N   LIG    1        1.153   1.872   0.001  0.00  0.00    -0.620 N 
ENDBRANCH   1  13
BRANCH   4  14
ATOM     14  O3* LIG    1        3.054  -2.017   1.264  0.00  0.00    -0.550 OA
ATOM     15  H3* LIG    1        2.767  -2.918   1.062  0.00  0.00    +0.380 HD
ENDBRANCH   4  14
BRANCH   5  16
ATOM     16  O2* LIG    1        1.872   1.044   2.381  0.00  0.00    -0.530 OA
ATOM     17  H2* LIG    1        1.914   0.595   3.236  0.00  0.00    +0.380 HD
ENDBRANCH   5  16
BRANCH   3  18
ATOM     18  C5* LIG    1        1.838  -2.330  -1.065  0.00  0.00    +0.210 C 
BRANCH  18  19
ATOM     19  O5* LIG    1        1.354  -2.285  -2.408  0.00  0.00    -0.560 OA
ATOM     20  H5* LIG    1        1.495  -3.103  -2.905  0.00  0.00    +0.390 HD
ENDBRANCH  18  19
ENDBRANCH   3  18
TORSDOF 5
ENDMDL
MODEL     1195
REMARK  Name = ZINC000169726822
REMARK                            x       y       z     vdW  Elec       q    Type
REMARK                         _______ _______ _______ _____ _____    ______ ____
ROOT
ATOM      1  C   LIG    1       -0.682  -2.641  -1.627  0.00  0.00    +0.230 C 
ATOM      2  C   LIG    1       -0.622  -4.168  -1.705  0.00  0.00    +0.070 C 
ENDROOT
BRANCH   1   3
ATOM      3  N   LIG    1       -1.749  -2.241  -0.706  0.00  0.00    -0.570 N 
ATOM      4  C   LIG    1       -2.811  -1.490  -1.058  0.00  0.00    +0.520 C 
ATOM      5  C   LIG    1       -3.638  -1.333   0.202  0.00  0.00    +0.320 C 
ATOM      6  N   LIG    1       -2.874  -2.084   1.214  0.00  0.00    -0.730 N 
ATOM      7  H   LIG    1       -3.108  -2.201   2.148  0.00  0.00    +0.440 HD
ATOM      8  O   LIG    1       -3.054  -1.035  -2.155  0.00  0.00    -0.470 OA
ATOM      9  C   LIG    1       -1.792  -2.581   0.588  0.00  0.00    +0.710 C 
ATOM     10  O   LIG    1       -0.945  -3.257   1.137  0.00  0.00    -0.540 OA
ENDBRANCH   1   3
BRANCH   1  11
ATOM     11  C   LIG    1        0.657  -2.104  -1.120  0.00  0.00    +0.230 C 
BRANCH  11  12
ATOM     12  N   LIG    1        1.727  -2.505  -2.043  0.00  0.00    -0.820 NA
ATOM     13  H   LIG    1        1.562  -2.140  -2.969  0.00  0.00    +0.360 HD
ATOM     14  H   LIG    1        1.830  -3.509  -2.063  0.00  0.00    +0.360 HD
ENDBRANCH  11  12
BRANCH  11  15
ATOM     15  C   LIG    1        0.598  -0.600  -1.043  0.00  0.00    +0.470 C 
ATOM     16  O   LIG    1        1.088   0.070  -1.921  0.00  0.00    -0.490 OA
BRANCH  15  18
ATOM     17  C   LIG    1       -0.018   1.448   0.010  0.00  0.00    +0.260 C 
ATOM     18  O   LIG    1        0.002  -0.004   0.002  0.00  0.00    -0.360 OA
ENDBRANCH  15  18
ENDBRANCH  11  15
ENDBRANCH   1  11
TORSDOF 5
ENDMDL
MODEL     1196
REMARK  Name = ZINC000409427024
REMARK                            x       y       z     vdW  Elec       q    Type
REMARK                         _______ _______ _______ _____ _____    ______ ____
ROOT
ATOM      1  N   LIG    1       -2.433   0.981   0.019  0.00  0.00    -0.360 N 
ATOM      2  C   LIG    1       -2.381   0.210  -1.221  0.00  0.00    +0.270 C 
ATOM      3  C   LIG    1       -2.657   1.079  -2.466  0.00  0.00    +0.110 C 
ATOM      4  C   LIG    1       -4.017   1.704  -2.240  0.00  0.00    -0.010 C 
ATOM      5  C   LIG    1       -4.566   2.678  -3.232  0.00  0.00    +0.550 C 
ATOM      6  N   LIG    1       -5.282   3.582  -2.509  0.00  0.00    -0.700 N 
ATOM      7  H   LIG    1       -5.895   4.219  -2.909  0.00  0.00    +0.420 HD
ATOM      8  C   LIG    1       -5.054   3.505  -1.169  0.00  0.00    +0.560 C 
ATOM      9  O   LIG    1       -5.701   4.027  -0.286  0.00  0.00    -0.450 OA
ATOM     10  O   LIG    1       -4.406   2.665  -4.433  0.00  0.00    -0.450 OA
ATOM     11  C   LIG    1       -3.850   2.626  -0.994  0.00  0.00    -0.030 C 
ATOM     12  C   LIG    1       -3.707   1.711   0.193  0.00  0.00    +0.300 C 
ATOM     13  H   LIG    1       -2.311   0.351   0.798  0.00  0.00    +0.430 HD
ENDROOT
BRANCH   1  14
ATOM     14  C   LIG    1       -1.330   1.951   0.019  0.00  0.00    +0.150 C 
BRANCH  14  16
ATOM     15  O   LIG    1        0.002  -0.004   0.002  0.00  0.00    -0.670 OA
ATOM     16  C   LIG    1       -0.015   1.215   0.009  0.00  0.00    +0.490 C 
ATOM     17  O   LIG    1        1.033   1.839   0.002  0.00  0.00    -0.630 OA
ENDBRANCH  14  16
ENDBRANCH   1  14
TORSDOF 2
ENDMDL
MODEL     1197
REMARK  Name = ZINC000409427021
REMARK                            x       y       z     vdW  Elec       q    Type
REMARK                         _______ _______ _______ _____ _____    ______ ____
ROOT
ATOM      1  N   LIG    1       -2.433   0.981   0.019  0.00  0.00    -0.340 N 
ATOM      2  C   LIG    1       -2.387   0.217  -1.216  0.00  0.00    +0.270 C 
ATOM      3  C   LIG    1       -2.539   1.108  -2.430  0.00  0.00    +0.090 C 
ATOM      4  C   LIG    1       -3.636   2.115  -2.338  0.00  0.00    +0.010 C 
ATOM      5  C   LIG    1       -4.911   1.693  -3.021  0.00  0.00    +0.530 C 
ATOM      6  N   LIG    1       -5.943   2.046  -2.238  0.00  0.00    -0.680 N 
ATOM      7  H   LIG    1       -6.869   1.910  -2.495  0.00  0.00    +0.430 HD
ATOM      8  C   LIG    1       -5.587   2.603  -1.073  0.00  0.00    +0.540 C 
ATOM      9  O   LIG    1       -6.349   3.044  -0.239  0.00  0.00    -0.460 OA
ATOM     10  O   LIG    1       -4.991   1.131  -4.092  0.00  0.00    -0.450 OA
ATOM     11  C   LIG    1       -4.080   2.577  -0.965  0.00  0.00    +0.020 C 
ATOM     12  C   LIG    1       -3.680   1.692   0.183  0.00  0.00    +0.260 C 
ATOM     13  H   LIG    1       -2.313   0.350   0.797  0.00  0.00    +0.440 HD
ENDROOT
BRANCH   1  14
ATOM     14  C   LIG    1       -1.330   1.951   0.019  0.00  0.00    +0.160 C 
BRANCH  14  16
ATOM     15  O   LIG    1        0.002  -0.004   0.002  0.00  0.00    -0.670 OA
ATOM     16  C   LIG    1       -0.015   1.215   0.009  0.00  0.00    +0.490 C 
ATOM     17  O   LIG    1        1.033   1.839   0.002  0.00  0.00    -0.640 OA
ENDBRANCH  14  16
ENDBRANCH   1  14
TORSDOF 2
ENDMDL
MODEL     1198
REMARK  Name = ZINC000409427018
REMARK                            x       y       z     vdW  Elec       q    Type
REMARK                         _______ _______ _______ _____ _____    ______ ____
ROOT
ATOM      1  N   LIG    1       -2.433   0.981   0.019  0.00  0.00    -0.360 N 
ATOM      2  C   LIG    1       -2.384   0.211  -1.222  0.00  0.00    +0.270 C 
ATOM      3  C   LIG    1       -3.563  -0.770  -1.359  0.00  0.00    +0.110 C 
ATOM      4  C   LIG    1       -4.822   0.056  -1.236  0.00  0.00    -0.010 C 
ATOM      5  C   LIG    1       -6.161  -0.606  -1.222  0.00  0.00    +0.550 C 
ATOM      6  N   LIG    1       -6.941   0.149  -0.402  0.00  0.00    -0.700 N 
ATOM      7  H   LIG    1       -7.906   0.057  -0.350  0.00  0.00    +0.420 HD
ATOM      8  C   LIG    1       -6.236   1.047   0.340  0.00  0.00    +0.560 C 
ATOM      9  O   LIG    1       -6.679   1.977   0.978  0.00  0.00    -0.450 OA
ATOM     10  O   LIG    1       -6.486  -1.610  -1.819  0.00  0.00    -0.450 OA
ATOM     11  C   LIG    1       -4.796   0.660   0.201  0.00  0.00    -0.030 C 
ATOM     12  C   LIG    1       -3.710   1.711   0.190  0.00  0.00    +0.300 C 
ATOM     13  H   LIG    1       -2.312   0.351   0.797  0.00  0.00    +0.420 HD
ENDROOT
BRANCH   1  14
ATOM     14  C   LIG    1       -1.330   1.951   0.019  0.00  0.00    +0.180 C 
BRANCH  14  16
ATOM     15  O   LIG    1        0.002  -0.004   0.002  0.00  0.00    -0.670 OA
ATOM     16  C   LIG    1       -0.015   1.215   0.009  0.00  0.00    +0.490 C 
ATOM     17  O   LIG    1        1.033   1.839   0.002  0.00  0.00    -0.630 OA
ENDBRANCH  14  16
ENDBRANCH   1  14
TORSDOF 2
ENDMDL
MODEL     1199
REMARK  Name = ZINC000409427016
REMARK                            x       y       z     vdW  Elec       q    Type
REMARK                         _______ _______ _______ _____ _____    ______ ____
ROOT
ATOM      1  N   LIG    1       -2.433   0.981   0.019  0.00  0.00    -0.350 N 
ATOM      2  C   LIG    1       -2.392   0.219  -1.218  0.00  0.00    +0.270 C 
ATOM      3  C   LIG    1       -2.544   1.099  -2.435  0.00  0.00    +0.080 C 
ATOM      4  C   LIG    1       -3.719   2.049  -2.380  0.00  0.00    +0.020 C 
ATOM      5  C   LIG    1       -3.311   3.352  -3.057  0.00  0.00    +0.530 C 
ATOM      6  N   LIG    1       -3.309   4.333  -2.143  0.00  0.00    -0.680 N 
ATOM      7  H   LIG    1       -3.037   5.241  -2.347  0.00  0.00    +0.430 HD
ATOM      8  C   LIG    1       -3.717   3.952  -0.922  0.00  0.00    +0.530 C 
ATOM      9  O   LIG    1       -3.752   4.653   0.067  0.00  0.00    -0.460 OA
ATOM     10  O   LIG    1       -3.032   3.480  -4.229  0.00  0.00    -0.450 OA
ATOM     11  C   LIG    1       -4.132   2.493  -0.991  0.00  0.00    +0.010 C 
ATOM     12  C   LIG    1       -3.684   1.692   0.178  0.00  0.00    +0.290 C 
ATOM     13  H   LIG    1       -2.314   0.349   0.797  0.00  0.00    +0.440 HD
ENDROOT
BRANCH   1  14
ATOM     14  C   LIG    1       -1.330   1.951   0.019  0.00  0.00    +0.140 C 
BRANCH  14  16
ATOM     15  O   LIG    1        0.002  -0.004   0.002  0.00  0.00    -0.670 OA
ATOM     16  C   LIG    1       -0.015   1.215   0.009  0.00  0.00    +0.490 C 
ATOM     17  O   LIG    1        1.033   1.839   0.002  0.00  0.00    -0.630 OA
ENDBRANCH  14  16
ENDBRANCH   1  14
TORSDOF 2
ENDMDL
MODEL     1200
REMARK  Name = ZINC000409427160
REMARK                            x       y       z     vdW  Elec       q    Type
REMARK                         _______ _______ _______ _____ _____    ______ ____
ROOT
ATOM      1  N   LIG    1        0.796  -0.399  -1.397  0.00  0.00    -1.010 NA
ATOM      2  C   LIG    1        0.166  -0.608  -2.713  0.00  0.00    +0.300 C 
ATOM      3  C   LIG    1        1.291  -0.331  -3.740  0.00  0.00    +0.050 C 
ATOM      4  C   LIG    1        2.529  -0.922  -3.014  0.00  0.00    +0.270 C 
ATOM      5  C   LIG    1        2.247  -0.592  -1.533  0.00  0.00    +0.290 C 
ENDROOT
BRANCH   4   6
ATOM      6  N   LIG    1        3.758  -0.266  -3.467  0.00  0.00    -0.290 N 
ATOM      7  C   LIG    1        3.875   1.032  -3.833  0.00  0.00    +0.170 A 
ATOM      8  C   LIG    1        5.172   1.211  -4.176  0.00  0.00    -0.030 A 
ATOM      9  N   LIG    1        5.777   0.029  -4.006  0.00  0.00    -0.260 NA
ATOM     10  N   LIG    1        4.912  -0.823  -3.579  0.00  0.00    -0.080 NA
BRANCH   8  11
ATOM     11  C   LIG    1        5.810   2.489  -4.656  0.00  0.00    +0.310 C 
BRANCH  11  12
ATOM     12  O   LIG    1        4.826   3.524  -4.701  0.00  0.00    -0.570 OA
ATOM     13  H   LIG    1        5.167   4.378  -5.002  0.00  0.00    +0.390 HD
ENDBRANCH  11  12
ENDBRANCH   8  11
ENDBRANCH   4   6
BRANCH   1  15
ATOM     14  C   LIG    1       -0.022   1.810   0.012  0.00  0.00    -0.280 C 
ATOM     15  S   LIG    1        0.002  -0.004   0.002  0.00  0.00    +2.630 S 
ATOM     16  O   LIG    1       -1.309  -0.519  -0.182  0.00  0.00    -0.940 OA
ATOM     17  O   LIG    1        0.845  -0.497   1.035  0.00  0.00    -0.950 OA
ENDBRANCH   1  15
TORSDOF 4
ENDMDL
MODEL     1201
REMARK  Name = ZINC000409427161
REMARK                            x       y       z     vdW  Elec       q    Type
REMARK                         _______ _______ _______ _____ _____    ______ ____
ROOT
ATOM      1  N   LIG    1        0.947  -0.412  -1.244  0.00  0.00    -1.020 NA
ATOM      2  C   LIG    1        0.200  -0.638  -2.495  0.00  0.00    +0.280 C 
ATOM      3  C   LIG    1        1.221  -0.352  -3.624  0.00  0.00    +0.070 C 
ATOM      4  C   LIG    1        2.529  -0.922  -3.014  0.00  0.00    +0.270 C 
ATOM      5  C   LIG    1        2.382  -0.587  -1.514  0.00  0.00    +0.300 C 
ENDROOT
BRANCH   4   6
ATOM      6  N   LIG    1        2.612  -2.369  -3.225  0.00  0.00    -0.290 N 
ATOM      7  C   LIG    1        2.050  -3.318  -2.441  0.00  0.00    +0.170 A 
ATOM      8  C   LIG    1        2.375  -4.508  -2.998  0.00  0.00    -0.030 A 
ATOM      9  N   LIG    1        3.109  -4.232  -4.082  0.00  0.00    -0.260 NA
ATOM     10  N   LIG    1        3.227  -2.956  -4.191  0.00  0.00    -0.080 NA
BRANCH   8  11
ATOM     11  C   LIG    1        1.985  -5.875  -2.498  0.00  0.00    +0.310 C 
BRANCH  11  12
ATOM     12  O   LIG    1        1.198  -5.741  -1.312  0.00  0.00    -0.570 OA
ATOM     13  H   LIG    1        0.911  -6.583  -0.933  0.00  0.00    +0.390 HD
ENDBRANCH  11  12
ENDBRANCH   8  11
ENDBRANCH   4   6
BRANCH   1  15
ATOM     14  C   LIG    1        0.233   1.794   0.224  0.00  0.00    -0.280 C 
ATOM     15  S   LIG    1        0.282  -0.020   0.220  0.00  0.00    +2.630 S 
ATOM     16  O   LIG    1       -1.034  -0.554   0.162  0.00  0.00    -0.940 OA
ATOM     17  O   LIG    1        1.224  -0.495   1.172  0.00  0.00    -0.950 OA
ENDBRANCH   1  15
TORSDOF 4
ENDMDL
MODEL     1202
REMARK  Name = ZINC000409428018
REMARK                            x       y       z     vdW  Elec       q    Type
REMARK                         _______ _______ _______ _____ _____    ______ ____
ROOT
ATOM      1  C   LIG    1        2.410  -1.403  -4.238  0.00  0.00    +0.360 C 
ENDROOT
BRANCH   1   2
ATOM      2  N   LIG    1        3.501  -2.380  -4.289  0.00  0.00    -0.290 N 
ATOM      3  C   LIG    1        3.703  -3.293  -5.268  0.00  0.00    +0.170 A 
ATOM      4  C   LIG    1        4.813  -3.982  -4.917  0.00  0.00    -0.030 A 
ATOM      5  N   LIG    1        5.231  -3.465  -3.756  0.00  0.00    -0.260 NA
ATOM      6  N   LIG    1        4.435  -2.514  -3.414  0.00  0.00    -0.080 NA
BRANCH   4   7
ATOM      7  C   LIG    1        5.453  -5.111  -5.683  0.00  0.00    +0.310 C 
BRANCH   7   8
ATOM      8  O   LIG    1        4.704  -5.365  -6.873  0.00  0.00    -0.570 OA
ATOM      9  H   LIG    1        5.059  -6.081  -7.417  0.00  0.00    +0.390 HD
ENDBRANCH   7   8
ENDBRANCH   4   7
ENDBRANCH   1   2
BRANCH   1  12
ATOM     10  N   LIG    1        0.796  -0.399  -1.397  0.00  0.00    -1.040 NA
ATOM     11  C   LIG    1        0.416  -0.654  -2.794  0.00  0.00    +0.320 C 
ATOM     12  C   LIG    1        1.659  -1.546  -2.913  0.00  0.00    -0.020 C 
ATOM     13  C   LIG    1        2.192  -0.642  -1.789  0.00  0.00    +0.310 C 
BRANCH  10  15
ATOM     14  C   LIG    1       -0.022   1.810   0.012  0.00  0.00    -0.290 C 
ATOM     15  S   LIG    1        0.002  -0.004   0.002  0.00  0.00    +2.640 S 
ATOM     16  O   LIG    1       -1.309  -0.519  -0.182  0.00  0.00    -0.950 OA
ATOM     17  O   LIG    1        0.845  -0.497   1.035  0.00  0.00    -0.950 OA
ENDBRANCH  10  15
ENDBRANCH   1  12
TORSDOF 5
ENDMDL
MODEL     1203
REMARK  Name = ZINC000008627922
REMARK                            x       y       z     vdW  Elec       q    Type
REMARK                         _______ _______ _______ _____ _____    ______ ____
ROOT
ATOM      1  C   LIG    1        0.002  -0.004   0.002  0.00  0.00    +0.630 A 
ATOM      2  N   LIG    1       -1.139  -0.678   0.004  0.00  0.00    -0.640 NA
ATOM      3  C   LIG    1       -1.126  -2.014  -0.004  0.00  0.00    +0.650 A 
ATOM      4  N   LIG    1        0.054  -2.668  -0.013  0.00  0.00    -0.560 N 
ATOM      5  C   LIG    1        1.207  -1.963  -0.014  0.00  0.00    +0.670 A 
ATOM      6  O   LIG    1       -2.173  -2.638  -0.002  0.00  0.00    -0.480 OA
ATOM      7  N   LIG    1        1.174  -0.654  -0.013  0.00  0.00    -0.600 NA
ENDROOT
BRANCH   4   8
ATOM      8  C1* LIG    1        0.085  -4.133  -0.021  0.00  0.00    +0.390 C 
ATOM      9  C2* LIG    1        0.768  -4.656  -1.310  0.00  0.00    +0.000 C 
ATOM     10  C3* LIG    1        0.158  -6.073  -1.448  0.00  0.00    +0.180 C 
ATOM     11  C4* LIG    1       -1.136  -6.009  -0.613  0.00  0.00    +0.170 C 
ATOM     12  O4* LIG    1       -1.253  -4.669  -0.103  0.00  0.00    -0.310 OA
BRANCH  10  13
ATOM     13  O3* LIG    1       -0.141  -6.358  -2.816  0.00  0.00    -0.550 OA
ATOM     14  H3* LIG    1        0.633  -6.353  -3.397  0.00  0.00    +0.390 HD
ENDBRANCH  10  13
BRANCH  11  15
ATOM     15  C5* LIG    1       -2.341  -6.343  -1.494  0.00  0.00    +0.220 C 
BRANCH  15  16
ATOM     16  O5* LIG    1       -3.520  -6.396  -0.688  0.00  0.00    -0.570 OA
ATOM     17  H5* LIG    1       -4.325  -6.604  -1.182  0.00  0.00    +0.380 HD
ENDBRANCH  15  16
ENDBRANCH  11  15
ENDBRANCH   4   8
BRANCH   1  18
ATOM     18  N   LIG    1       -0.017   1.368   0.010  0.00  0.00    -0.790 N 
ATOM     19  H   LIG    1       -0.863   1.842   0.016  0.00  0.00    +0.420 HD
ATOM     20  H   LIG    1        0.817   1.865   0.004  0.00  0.00    +0.420 HD
ENDBRANCH   1  18
TORSDOF 5
ENDMDL
MODEL     1204
REMARK  Name = ZINC000017027370
REMARK                            x       y       z     vdW  Elec       q    Type
REMARK                         _______ _______ _______ _____ _____    ______ ____
ROOT
ATOM      1  C   LIG    1        0.002  -0.004   0.002  0.00  0.00    +0.630 A 
ATOM      2  N   LIG    1       -1.139  -0.678   0.004  0.00  0.00    -0.640 NA
ATOM      3  C   LIG    1       -1.126  -2.014  -0.004  0.00  0.00    +0.650 A 
ATOM      4  N   LIG    1        0.054  -2.668  -0.013  0.00  0.00    -0.570 N 
ATOM      5  C   LIG    1        1.207  -1.963  -0.014  0.00  0.00    +0.660 A 
ATOM      6  O   LIG    1       -2.173  -2.638  -0.002  0.00  0.00    -0.490 OA
ATOM      7  N   LIG    1        1.174  -0.654  -0.013  0.00  0.00    -0.600 NA
ENDROOT
BRANCH   4   8
ATOM      8  C1* LIG    1        0.085  -4.133  -0.021  0.00  0.00    +0.410 C 
ATOM      9  C2* LIG    1        0.812  -4.633  -1.288  0.00  0.00    +0.010 C 
ATOM     10  C3* LIG    1       -0.039  -5.869  -1.690  0.00  0.00    +0.170 C 
ATOM     11  C4* LIG    1       -1.453  -5.403  -1.262  0.00  0.00    +0.180 C 
ATOM     12  O4* LIG    1       -1.251  -4.647  -0.055  0.00  0.00    -0.310 OA
BRANCH  10  13
ATOM     13  O3* LIG    1        0.024  -6.101  -3.098  0.00  0.00    -0.550 OA
ATOM     14  H3* LIG    1        0.914  -6.291  -3.426  0.00  0.00    +0.390 HD
ENDBRANCH  10  13
BRANCH  11  15
ATOM     15  C5* LIG    1       -2.350  -6.612  -0.988  0.00  0.00    +0.200 C 
BRANCH  15  16
ATOM     16  O5* LIG    1       -3.679  -6.166  -0.710  0.00  0.00    -0.560 OA
ATOM     17  H5* LIG    1       -4.304  -6.881  -0.526  0.00  0.00    +0.380 HD
ENDBRANCH  15  16
ENDBRANCH  11  15
ENDBRANCH   4   8
BRANCH   1  18
ATOM     18  N   LIG    1       -0.017   1.368   0.010  0.00  0.00    -0.790 N 
ATOM     19  H   LIG    1       -0.863   1.842   0.016  0.00  0.00    +0.420 HD
ATOM     20  H   LIG    1        0.817   1.865   0.004  0.00  0.00    +0.420 HD
ENDBRANCH   1  18
TORSDOF 5
ENDMDL
MODEL     1205
REMARK  Name = ZINC000005217776
REMARK                            x       y       z     vdW  Elec       q    Type
REMARK                         _______ _______ _______ _____ _____    ______ ____
ROOT
ATOM      1  C   LIG    1       -0.089   1.573  -0.022  0.00  0.00    +0.060 C 
ATOM      2  C   LIG    1       -0.025   0.044  -0.034  0.00  0.00    +0.470 C 
ENDROOT
BRANCH   2   3
ATOM      3  N   LIG    1        0.544  -0.411  -1.305  0.00  0.00    -0.740 N 
ATOM      4  H   LIG    1        0.026  -0.986  -1.890  0.00  0.00    +0.400 HD
ATOM      5  C   LIG    1        1.786  -0.029  -1.663  0.00  0.00    +0.720 C 
ATOM      6  O   LIG    1        2.435   0.692  -0.930  0.00  0.00    -0.590 OA
ATOM      7  N   LIG    1        2.309  -0.448  -2.832  0.00  0.00    -0.860 N 
ATOM      8  H   LIG    1        3.204  -0.174  -3.089  0.00  0.00    +0.420 HD
ATOM      9  H   LIG    1        1.792  -1.024  -3.416  0.00  0.00    +0.400 HD
ENDBRANCH   2   3
BRANCH   2  10
ATOM     10  N   LIG    1       -1.375  -0.503   0.121  0.00  0.00    -0.740 N 
ATOM     11  H   LIG    1       -1.726  -1.121  -0.539  0.00  0.00    +0.400 HD
ATOM     12  C   LIG    1       -2.129  -0.147   1.180  0.00  0.00    +0.720 C 
ATOM     13  O   LIG    1       -1.655   0.547   2.058  0.00  0.00    -0.590 OA
ATOM     14  N   LIG    1       -3.408  -0.562   1.266  0.00  0.00    -0.860 N 
ATOM     15  H   LIG    1       -3.951  -0.306   2.028  0.00  0.00    +0.420 HD
ATOM     16  H   LIG    1       -3.787  -1.116   0.565  0.00  0.00    +0.400 HD
ENDBRANCH   2  10
BRANCH   2  17
ATOM     17  C   LIG    1        0.856  -0.438   1.120  0.00  0.00    +0.080 C 
BRANCH  17  18
ATOM     18  C   LIG    1        0.828  -1.943   1.179  0.00  0.00    +0.530 C 
ATOM     19  N   LIG    1        1.450  -2.590   2.184  0.00  0.00    -0.690 N 
ATOM     20  H   LIG    1        1.915  -2.087   2.870  0.00  0.00    +0.410 HD
ATOM     21  C   LIG    1        1.424  -3.937   2.237  0.00  0.00    +0.700 C 
ATOM     22  O   LIG    1        0.841  -4.568   1.377  0.00  0.00    -0.540 OA
ATOM     23  N   LIG    1        2.046  -4.584   3.242  0.00  0.00    -0.860 N 
ATOM     24  H   LIG    1        2.028  -5.553   3.280  0.00  0.00    +0.420 HD
ATOM     25  H   LIG    1        2.512  -4.081   3.928  0.00  0.00    +0.400 HD
ATOM     26  O   LIG    1        0.246  -2.572   0.322  0.00  0.00    -0.470 OA
ENDBRANCH  17  18
ENDBRANCH   2  17
TORSDOF 4
ENDMDL
MODEL     1206
REMARK  Name = ZINC000011592974
REMARK                            x       y       z     vdW  Elec       q    Type
REMARK                         _______ _______ _______ _____ _____    ______ ____
ROOT
ATOM      1  C1* LIG    1        0.085  -4.133  -0.021  0.00  0.00    +0.450 C 
ATOM      2  O4* LIG    1        1.023  -4.621   0.963  0.00  0.00    -0.330 OA
ATOM      3  C4* LIG    1        2.325  -4.458   0.361  0.00  0.00    +0.110 C 
ATOM      4  C3* LIG    1        2.133  -4.870  -1.115  0.00  0.00    +0.140 C 
ATOM      5  C2* LIG    1        0.622  -4.651  -1.374  0.00  0.00    +0.200 C 
ENDROOT
BRANCH   1   9
ATOM      6  C   LIG    1        0.002  -0.004   0.005  0.00  0.00    +0.630 A 
ATOM      7  N   LIG    1       -0.874  -0.668  -0.736  0.00  0.00    -0.640 NA
ATOM      8  C   LIG    1       -0.858  -2.004  -0.753  0.00  0.00    +0.670 A 
ATOM      9  N   LIG    1        0.054  -2.668  -0.013  0.00  0.00    -0.560 N 
ATOM     10  C   LIG    1        0.939  -1.974   0.736  0.00  0.00    +0.650 A 
ATOM     11  O   LIG    1       -1.661  -2.619  -1.433  0.00  0.00    -0.510 OA
ATOM     12  N   LIG    1        0.911  -0.664   0.736  0.00  0.00    -0.600 NA
BRANCH   6  13
ATOM     13  N   LIG    1       -0.019   1.368   0.020  0.00  0.00    -0.790 N 
ATOM     14  H   LIG    1       -0.673   1.849  -0.511  0.00  0.00    +0.420 HD
ATOM     15  H   LIG    1        0.623   1.857   0.558  0.00  0.00    +0.420 HD
ENDBRANCH   6  13
ENDBRANCH   1   9
BRANCH   4  16
ATOM     16  O3* LIG    1        2.481  -6.244  -1.302  0.00  0.00    -0.550 OA
ATOM     17  H3* LIG    1        3.404  -6.447  -1.096  0.00  0.00    +0.380 HD
ENDBRANCH   4  16
BRANCH   5  18
ATOM     18  O2* LIG    1        0.426  -3.678  -2.401  0.00  0.00    -0.530 OA
ATOM     19  H2* LIG    1        0.800  -3.928  -3.257  0.00  0.00    +0.390 HD
ENDBRANCH   5  18
BRANCH   3  20
ATOM     20  C5* LIG    1        3.345  -5.372   1.042  0.00  0.00    +0.220 C 
BRANCH  20  21
ATOM     21  O5* LIG    1        3.540  -4.946   2.392  0.00  0.00    -0.560 OA
ATOM     22  H5* LIG    1        4.176  -5.481   2.886  0.00  0.00    +0.390 HD
ENDBRANCH  20  21
ENDBRANCH   3  20
TORSDOF 6
ENDMDL
MODEL     1207
REMARK  Name = ZINC000005437323
REMARK                            x       y       z     vdW  Elec       q    Type
REMARK                         _______ _______ _______ _____ _____    ______ ____
ROOT
ATOM      1  C   LIG    1        1.468  -0.873   1.757  0.00  0.00    +0.180 C 
ENDROOT
BRANCH   1   2
ATOM      2  O   LIG    1        1.983   0.423   2.067  0.00  0.00    -0.550 OA
ATOM      3  H   LIG    1        1.489   0.889   2.756  0.00  0.00    +0.370 HD
ENDBRANCH   1   2
BRANCH   1   4
ATOM      4  C   LIG    1        0.024  -0.743   1.267  0.00  0.00    +0.290 C 
BRANCH   4   6
ATOM      5  C   LIG    1       -0.018   1.461   0.010  0.00  0.00    +0.280 C 
ATOM      6  N   LIG    1        0.002  -0.004   0.002  0.00  0.00    -0.430 N 
BRANCH   6   7
ATOM      7  N   LIG    1        0.000  -0.643  -1.119  0.00  0.00    -0.100 NA
ATOM      8  O   LIG    1       -0.018  -0.028  -2.170  0.00  0.00    -0.070 OA
ENDBRANCH   6   7
ENDBRANCH   4   6
ENDBRANCH   1   4
BRANCH   1   9
ATOM      9  C   LIG    1        1.504  -1.750   3.010  0.00  0.00    +0.180 C 
BRANCH   9  10
ATOM     10  O   LIG    1        0.615  -1.215   3.992  0.00  0.00    -0.550 OA
ATOM     11  H   LIG    1        0.830  -0.313   4.268  0.00  0.00    +0.370 HD
ENDBRANCH   9  10
BRANCH   9  12
ATOM     12  C   LIG    1        2.927  -1.778   3.571  0.00  0.00    +0.290 C 
BRANCH  12  13
ATOM     13  N   LIG    1        2.989  -2.711   4.699  0.00  0.00    -0.430 N 
ATOM     14  C   LIG    1        2.618  -2.261   6.043  0.00  0.00    +0.280 C 
BRANCH  13  15
ATOM     15  N   LIG    1        3.370  -3.928   4.509  0.00  0.00    -0.100 NA
ATOM     16  O   LIG    1        3.421  -4.704   5.447  0.00  0.00    -0.070 OA
ENDBRANCH  13  15
ENDBRANCH  12  13
ENDBRANCH   9  12
ENDBRANCH   1   9
TORSDOF 9
ENDMDL
MODEL     1208
REMARK  Name = ZINC000409429957
REMARK                            x       y       z     vdW  Elec       q    Type
REMARK                         _______ _______ _______ _____ _____    ______ ____
ROOT
ATOM      1  C   LIG    1       -0.050   1.460   0.003  0.00  0.00    +0.330 C 
ATOM      2  N   LIG    1       -0.014  -0.004  -0.001  0.00  0.00    -0.560 N 
ATOM      3  C   LIG    1        0.522  -0.656  -1.052  0.00  0.00    +0.560 A 
ATOM      4  C   LIG    1        0.555  -2.059  -1.054  0.00  0.00    -0.200 A 
ATOM      5  C   LIG    1        0.039  -2.737   0.016  0.00  0.00    +0.470 A 
ATOM      6  N   LIG    1       -0.498  -2.032   1.066  0.00  0.00    -0.650 N 
ATOM      7  H   LIG    1       -0.865  -2.507   1.828  0.00  0.00    +0.430 HD
ATOM      8  O   LIG    1        0.977  -0.031  -1.995  0.00  0.00    -0.520 OA
ATOM      9  C   LIG    1       -0.512  -0.687   1.046  0.00  0.00    +0.710 A 
ATOM     10  O   LIG    1       -0.992  -0.079   1.983  0.00  0.00    -0.540 OA
ENDROOT
BRANCH   5  11
ATOM     11  N   LIG    1        0.059  -4.108   0.041  0.00  0.00    -0.630 N 
ATOM     12  C   LIG    1        0.178  -4.850   1.308  0.00  0.00    +0.300 C 
ATOM     13  C   LIG    1       -1.079  -5.705   1.480  0.00  0.00    +0.260 C 
ATOM     14  N   LIG    1       -1.392  -6.418   0.249  0.00  0.00    -0.720 N 
ATOM     15  H   LIG    1       -1.943  -7.213   0.316  0.00  0.00    +0.410 HD
ATOM     16  C   LIG    1       -0.975  -6.053  -0.964  0.00  0.00    +0.510 C 
ATOM     17  O   LIG    1       -1.367  -6.681  -1.924  0.00  0.00    -0.530 OA
ATOM     18  C   LIG    1       -0.046  -4.897  -1.195  0.00  0.00    +0.360 C 
ENDBRANCH   5  11
TORSDOF 1
ENDMDL
MODEL     1209
REMARK  Name = ZINC000409430587
REMARK                            x       y       z     vdW  Elec       q    Type
REMARK                         _______ _______ _______ _____ _____    ______ ____
ROOT
ATOM      1  N   LIG    1        0.688  -0.476  -1.203  0.00  0.00    -0.600 N 
ATOM      2  C   LIG    1        0.051  -0.727  -2.393  0.00  0.00    +0.570 C 
ATOM      3  C   LIG    1        1.125  -0.824  -3.379  0.00  0.00    -0.070 C 
ATOM      4  C   LIG    1        1.285  -1.576  -4.650  0.00  0.00    +0.250 C 
ATOM      5  N   LIG    1        2.758  -1.839  -4.749  0.00  0.00    -0.510 NA
ATOM      6  C   LIG    1        3.385  -1.383  -3.463  0.00  0.00    +0.220 C 
ATOM      7  C   LIG    1        2.231  -1.523  -2.493  0.00  0.00    -0.010 C 
ATOM      8  O   LIG    1       -1.140  -0.843  -2.584  0.00  0.00    -0.460 OA
ATOM      9  C   LIG    1        2.036  -0.712  -1.269  0.00  0.00    +0.560 C 
ATOM     10  O   LIG    1        2.889  -0.331  -0.495  0.00  0.00    -0.460 OA
ENDROOT
BRANCH   1  12
ATOM     11  C   LIG    1       -0.019   1.526   0.010  0.00  0.00    +0.030 C 
ATOM     12  C   LIG    1        0.002  -0.004   0.002  0.00  0.00    +0.290 C 
ENDBRANCH   1  12
BRANCH   5  13
ATOM     13  C   LIG    1        3.342  -1.135  -5.899  0.00  0.00    +0.180 C 
BRANCH  13  14
ATOM     14  C   LIG    1        4.777  -1.618  -6.117  0.00  0.00    +0.180 C 
BRANCH  14  15
ATOM     15  O   LIG    1        4.764  -2.998  -6.487  0.00  0.00    -0.560 OA
ATOM     16  H   LIG    1        5.642  -3.372  -6.641  0.00  0.00    +0.380 HD
ENDBRANCH  14  15
ENDBRANCH  13  14
ENDBRANCH   5  13
TORSDOF 4
ENDMDL
MODEL     1210
REMARK  Name = ZINC000409430590
REMARK                            x       y       z     vdW  Elec       q    Type
REMARK                         _______ _______ _______ _____ _____    ______ ____
ROOT
ATOM      1  N   LIG    1        0.688  -0.476  -1.203  0.00  0.00    -0.600 N 
ATOM      2  C   LIG    1        0.049  -0.727  -2.393  0.00  0.00    +0.580 C 
ATOM      3  C   LIG    1        1.012  -1.456  -3.181  0.00  0.00    -0.060 C 
ATOM      4  C   LIG    1        1.312  -1.793  -4.583  0.00  0.00    +0.250 C 
ATOM      5  N   LIG    1        2.683  -2.400  -4.475  0.00  0.00    -0.510 NA
ATOM      6  C   LIG    1        3.312  -1.888  -3.221  0.00  0.00    +0.240 C 
ATOM      7  C   LIG    1        2.368  -0.779  -2.731  0.00  0.00    -0.020 C 
ATOM      8  O   LIG    1       -1.075  -0.405  -2.711  0.00  0.00    -0.460 OA
ATOM      9  C   LIG    1        2.032  -0.710  -1.267  0.00  0.00    +0.550 C 
ATOM     10  O   LIG    1        2.794  -0.849  -0.334  0.00  0.00    -0.460 OA
ENDROOT
BRANCH   1  12
ATOM     11  C   LIG    1       -0.019   1.526   0.010  0.00  0.00    +0.030 C 
ATOM     12  C   LIG    1        0.002  -0.004   0.002  0.00  0.00    +0.280 C 
ENDBRANCH   1  12
BRANCH   5  13
ATOM     13  C   LIG    1        3.501  -2.066  -5.648  0.00  0.00    +0.190 C 
BRANCH  13  14
ATOM     14  C   LIG    1        4.787  -2.894  -5.626  0.00  0.00    +0.180 C 
BRANCH  14  15
ATOM     15  O   LIG    1        4.465  -4.279  -5.773  0.00  0.00    -0.560 OA
ATOM     16  H   LIG    1        5.234  -4.864  -5.768  0.00  0.00    +0.380 HD
ENDBRANCH  14  15
ENDBRANCH  13  14
ENDBRANCH   5  13
TORSDOF 4
ENDMDL
MODEL     1211
REMARK  Name = ZINC000043771698
REMARK                            x       y       z     vdW  Elec       q    Type
REMARK                         _______ _______ _______ _____ _____    ______ ____
ROOT
ATOM      1  C   LIG    1        0.002  -0.004   0.002  0.00  0.00    +0.520 A 
ATOM      2  C   LIG    1       -1.178  -0.770   0.003  0.00  0.00    -0.120 A 
ATOM      3  N   LIG    1       -2.482  -0.440   0.005  0.00  0.00    -0.440 NA
ATOM      4  C   LIG    1       -3.196  -1.523  -0.003  0.00  0.00    +0.260 A 
ATOM      5  C   LIG    1       -4.702  -1.656  -0.028  0.00  0.00    +0.190 C 
ATOM      6  C   LIG    1       -5.054  -3.141   0.129  0.00  0.00    +0.210 C 
ATOM      7  O   LIG    1       -4.173  -3.921  -0.707  0.00  0.00    -0.330 OA
ATOM      8  C   LIG    1       -2.919  -3.994   0.019  0.00  0.00    +0.480 C 
ATOM      9  C   LIG    1       -3.358  -4.254   1.485  0.00  0.00    +0.110 C 
ATOM     10  C   LIG    1       -4.784  -3.600   1.574  0.00  0.00    +0.140 C 
ATOM     11  N   LIG    1       -2.371  -2.625   0.004  0.00  0.00    -0.490 N 
ATOM     12  C   LIG    1       -1.097  -2.186  -0.002  0.00  0.00    +0.320 A 
ATOM     13  N   LIG    1        0.093  -2.786  -0.011  0.00  0.00    -0.540 NA
ATOM     14  C   LIG    1        1.170  -2.018  -0.014  0.00  0.00    +0.560 A 
ATOM     15  N   LIG    1        1.142  -0.701  -0.013  0.00  0.00    -0.600 NA
ENDROOT
BRANCH   1  16
ATOM     16  N   LIG    1       -0.017   1.380   0.010  0.00  0.00    -0.810 N 
ATOM     17  H   LIG    1       -0.863   1.853   0.016  0.00  0.00    +0.420 HD
ATOM     18  H   LIG    1        0.817   1.876   0.004  0.00  0.00    +0.410 HD
ENDBRANCH   1  16
BRANCH   9  19
ATOM     19  O   LIG    1       -3.434  -5.657   1.745  0.00  0.00    -0.530 OA
ATOM     20  H   LIG    1       -3.705  -5.876   2.647  0.00  0.00    +0.390 HD
ENDBRANCH   9  19
BRANCH  10  21
ATOM     21  O   LIG    1       -5.749  -4.564   2.001  0.00  0.00    -0.540 OA
ATOM     22  H   LIG    1       -5.577  -4.930   2.879  0.00  0.00    +0.380 HD
ENDBRANCH  10  21
TORSDOF 3
ENDMDL
MODEL     1212
REMARK  Name = ZINC000000402461
REMARK                            x       y       z     vdW  Elec       q    Type
REMARK                         _______ _______ _______ _____ _____    ______ ____
ROOT
ATOM      1  C   LIG    1       -0.019   1.526   0.010  0.00  0.00    +0.060 C 
ATOM      2  C   LIG    1        0.002  -0.004   0.002  0.00  0.00    +0.250 C 
ATOM      3  O   LIG    1        0.691  -0.472  -1.172  0.00  0.00    -0.350 OA
ATOM      4  C   LIG    1        2.061  -0.688  -0.726  0.00  0.00    +0.360 C 
ATOM      5  O   LIG    1        2.673   0.602  -0.675  0.00  0.00    -0.360 OA
ATOM      6  C   LIG    1        3.883   0.684   0.072  0.00  0.00    +0.150 C 
ATOM      7  C   LIG    1        3.576   0.343   1.536  0.00  0.00    +0.130 C 
ATOM      8  C   LIG    1        3.032  -1.087   1.586  0.00  0.00    +0.200 C 
ATOM      9  C   LIG    1        1.814  -1.246   0.689  0.00  0.00    +0.130 C 
ATOM     10  C   LIG    1       -1.432  -0.538   0.002  0.00  0.00    +0.070 C 
ATOM     11  O   LIG    1        0.697  -0.484   1.165  0.00  0.00    -0.330 OA
ENDROOT
BRANCH   8  12
ATOM     12  O   LIG    1        2.670  -1.406   2.931  0.00  0.00    -0.540 OA
ATOM     13  H   LIG    1        3.404  -1.355   3.558  0.00  0.00    +0.380 HD
ENDBRANCH   8  12
BRANCH   7  14
ATOM     14  O   LIG    1        2.598   1.250   2.048  0.00  0.00    -0.520 OA
ATOM     15  H   LIG    1        2.872   2.177   2.025  0.00  0.00    +0.370 HD
ENDBRANCH   7  14
BRANCH   6  16
ATOM     16  C   LIG    1        4.450   2.102  -0.021  0.00  0.00    +0.210 C 
BRANCH  16  17
ATOM     17  O   LIG    1        4.823   2.378  -1.372  0.00  0.00    -0.560 OA
ATOM     18  H   LIG    1        5.192   3.262  -1.506  0.00  0.00    +0.390 HD
ENDBRANCH  16  17
ENDBRANCH   6  16
TORSDOF 4
ENDMDL
MODEL     1213
REMARK  Name = ZINC000400559770
REMARK                            x       y       z     vdW  Elec       q    Type
REMARK                         _______ _______ _______ _____ _____    ______ ____
ROOT
ATOM      1  C   LIG    1       -0.018   1.461   0.010  0.00  0.00    +0.360 C 
ATOM      2  N   LIG    1        0.002  -0.004   0.002  0.00  0.00    -0.530 N 
ATOM      3  C   LIG    1       -1.178  -0.687   0.004  0.00  0.00    +0.410 A 
ATOM      4  C   LIG    1       -1.164  -2.052  -0.004  0.00  0.00    -0.190 A 
ATOM      5  C   LIG    1        0.137  -2.735  -0.013  0.00  0.00    +0.560 A 
ATOM      6  N   LIG    1        1.260  -1.988  -0.015  0.00  0.00    -0.650 N 
ATOM      7  H   LIG    1        2.128  -2.420  -0.021  0.00  0.00    +0.440 HD
ATOM      8  O   LIG    1        0.200  -3.951  -0.021  0.00  0.00    -0.470 OA
ATOM      9  C   LIG    1        1.182  -0.645  -0.013  0.00  0.00    +0.700 A 
ATOM     10  O   LIG    1        2.208   0.006  -0.014  0.00  0.00    -0.530 OA
ENDROOT
BRANCH   4  11
ATOM     11  C   LIG    1       -2.428  -2.825  -0.002  0.00  0.00    +0.240 A 
ATOM     12  N   LIG    1       -3.640  -2.332   0.000  0.00  0.00    -0.380 NA
ATOM     13  O   LIG    1       -4.455  -3.230   0.000  0.00  0.00    +0.090 OA
ATOM     14  C   LIG    1       -3.833  -4.413  -0.002  0.00  0.00    +0.190 A 
ATOM     15  N   LIG    1       -2.546  -4.172  -0.009  0.00  0.00    -0.450 NA
BRANCH  14  16
ATOM     16  C   LIG    1       -4.490  -5.769  -0.004  0.00  0.00    +0.340 C 
BRANCH  16  17
ATOM     17  N   LIG    1       -4.702  -6.213   1.381  0.00  0.00    -0.840 NA
ATOM     18  H   LIG    1       -3.834  -6.216   1.896  0.00  0.00    +0.350 HD
ATOM     19  H   LIG    1       -5.141  -7.120   1.406  0.00  0.00    +0.360 HD
ENDBRANCH  16  17
ENDBRANCH  14  16
ENDBRANCH   4  11
TORSDOF 3
ENDMDL
MODEL     1214
REMARK  Name = ZINC000104193281
REMARK                            x       y       z     vdW  Elec       q    Type
REMARK                         _______ _______ _______ _____ _____    ______ ____
ROOT
ATOM      1  C1* LIG    1        2.408   1.181  -0.021  0.00  0.00    +0.440 C 
ATOM      2  O4* LIG    1        3.030   1.293  -1.320  0.00  0.00    -0.350 OA
ATOM      3  C4* LIG    1        4.426   0.996  -1.100  0.00  0.00    +0.190 C 
ATOM      4  C3* LIG    1        4.774   1.699   0.230  0.00  0.00    +0.140 C 
ATOM      5  C2* LIG    1        3.415   1.822   0.959  0.00  0.00    +0.130 C 
ENDROOT
BRANCH   1  12
ATOM      6  O   LIG    1        0.002  -0.004   0.002  0.00  0.00    -0.530 OA
ATOM      7  C   LIG    1       -0.015   1.217   0.009  0.00  0.00    +0.500 A 
ATOM      8  C   LIG    1       -1.238   1.909   0.030  0.00  0.00    -0.100 A 
ATOM      9  C   LIG    1       -1.192   3.293   0.037  0.00  0.00    +0.190 A 
ATOM     10  C   LIG    1        0.075   3.915   0.023  0.00  0.00    +0.160 A 
ATOM     11  N   LIG    1        1.160   3.195   0.003  0.00  0.00    -0.120 NA
ATOM     12  N   LIG    1        1.138   1.912   0.002  0.00  0.00    -0.340 N 
BRANCH   9  13
ATOM     13  O   LIG    1       -2.330   4.028   0.058  0.00  0.00    -0.450 OA
ATOM     14  H   LIG    1       -2.181   4.983   0.061  0.00  0.00    +0.410 HD
ENDBRANCH   9  13
ENDBRANCH   1  12
BRANCH   4  15
ATOM     15  O3* LIG    1        5.333   2.991  -0.018  0.00  0.00    -0.530 OA
ATOM     16  H3* LIG    1        5.570   3.478   0.783  0.00  0.00    +0.380 HD
ENDBRANCH   4  15
BRANCH   5  17
ATOM     17  O2* LIG    1        3.091   3.195   1.185  0.00  0.00    -0.510 OA
ATOM     18  H2* LIG    1        3.726   3.662   1.744  0.00  0.00    +0.370 HD
ENDBRANCH   5  17
BRANCH   3  19
ATOM     19  C5* LIG    1        5.276   1.558  -2.241  0.00  0.00    +0.220 C 
BRANCH  19  20
ATOM     20  O5* LIG    1        4.968   0.863  -3.451  0.00  0.00    -0.570 OA
ATOM     21  H5* LIG    1        5.471   1.168  -4.219  0.00  0.00    +0.380 HD
ENDBRANCH  19  20
ENDBRANCH   3  19
TORSDOF 6
ENDMDL
MODEL     1215
REMARK  Name = ZINC000009307787
REMARK                            x       y       z     vdW  Elec       q    Type
REMARK                         _______ _______ _______ _____ _____    ______ ____
ROOT
ATOM      1  N   LIG    1       -1.237   1.898   0.018  0.00  0.00    -0.450 N 
ATOM      2  C   LIG    1       -1.306   3.294   0.020  0.00  0.00    +0.310 A 
ATOM      3  N   LIG    1       -0.414   4.188   0.275  0.00  0.00    -0.230 NA
ATOM      4  O   LIG    1       -1.027   5.463   0.140  0.00  0.00    +0.070 OA
ATOM      5  N   LIG    1       -2.383   5.252  -0.229  0.00  0.00    -0.230 NA
ATOM      6  C   LIG    1       -2.575   3.981  -0.311  0.00  0.00    +0.310 A 
ATOM      7  N   LIG    1       -3.712   3.240  -0.648  0.00  0.00    -0.450 N 
ATOM      8  C   LIG    1       -3.480   1.824  -0.993  0.00  0.00    +0.500 C 
ATOM      9  C   LIG    1       -2.531   1.188   0.021  0.00  0.00    +0.500 C 
ENDROOT
BRANCH   1  11
ATOM     10  O   LIG    1        0.002  -0.004   0.002  0.00  0.00    -0.130 OA
ATOM     11  N   LIG    1       -0.014   1.214   0.009  0.00  0.00    +0.200 N 
ATOM     12  O   LIG    1        1.032   1.837   0.002  0.00  0.00    -0.110 OA
ENDBRANCH   1  11
BRANCH   7  13
ATOM     13  N   LIG    1       -4.993   3.807  -0.657  0.00  0.00    +0.200 N 
ATOM     14  O   LIG    1       -5.958   3.127  -0.956  0.00  0.00    -0.130 OA
ATOM     15  O   LIG    1       -5.141   4.980  -0.366  0.00  0.00    -0.110 OA
ENDBRANCH   7  13
BRANCH   8  16
ATOM     16  O   LIG    1       -2.899   1.742  -2.296  0.00  0.00    -0.540 OA
ATOM     17  H   LIG    1       -3.448   2.121  -2.996  0.00  0.00    +0.410 HD
ENDBRANCH   8  16
BRANCH   9  18
ATOM     18  O   LIG    1       -3.105   1.272   1.326  0.00  0.00    -0.540 OA
ATOM     19  H   LIG    1       -2.556   0.887   2.023  0.00  0.00    +0.410 HD
ENDBRANCH   9  18
TORSDOF 4
ENDMDL
MODEL     1216
REMARK  Name = ZINC000004403266
REMARK                            x       y       z     vdW  Elec       q    Type
REMARK                         _______ _______ _______ _____ _____    ______ ____
ROOT
ATOM      1  C   LIG    1        0.002  -0.004   0.002  0.00  0.00    +0.280 C 
ENDROOT
BRANCH   1   2
ATOM      2  C   LIG    1        0.742  -0.511   1.242  0.00  0.00    +0.150 C 
ATOM      3  O   LIG    1        2.114  -0.110   1.178  0.00  0.00    -0.390 OA
ATOM      4  C   LIG    1        2.881  -0.496   2.321  0.00  0.00    +0.410 C 
ATOM      5  O   LIG    1        2.303   0.075   3.497  0.00  0.00    -0.390 OA
ATOM      6  C   LIG    1        0.944  -0.314   3.719  0.00  0.00    +0.180 C 
ATOM      7  C   LIG    1        0.105   0.088   2.500  0.00  0.00    +0.130 C 
BRANCH   7   8
ATOM      8  O   LIG    1       -1.227  -0.408   2.652  0.00  0.00    -0.550 OA
ATOM      9  H   LIG    1       -1.685  -0.073   3.435  0.00  0.00    +0.390 HD
ENDBRANCH   7   8
ENDBRANCH   1   2
BRANCH   1  10
ATOM     10  C   LIG    1        0.718  -0.497  -1.257  0.00  0.00    +0.150 C 
ATOM     11  O   LIG    1        0.734  -1.928  -1.269  0.00  0.00    -0.380 OA
ATOM     12  C   LIG    1        1.341  -2.488  -2.436  0.00  0.00    +0.400 C 
ATOM     13  O   LIG    1        0.642  -2.038  -3.599  0.00  0.00    -0.390 OA
ATOM     14  C   LIG    1        0.619  -0.615  -3.745  0.00  0.00    +0.180 C 
ATOM     15  C   LIG    1       -0.025   0.005  -2.500  0.00  0.00    +0.130 C 
BRANCH  15  16
ATOM     16  O   LIG    1       -1.397  -0.385  -2.426  0.00  0.00    -0.540 OA
ATOM     17  H   LIG    1       -1.926  -0.108  -3.188  0.00  0.00    +0.380 HD
ENDBRANCH  15  16
ENDBRANCH   1  10
BRANCH   1  18
ATOM     18  O   LIG    1       -0.017   1.425   0.010  0.00  0.00    -0.540 OA
ATOM     19  H   LIG    1        0.861   1.830   0.004  0.00  0.00    +0.380 HD
ENDBRANCH   1  18
TORSDOF 5
ENDMDL
MODEL     1217
REMARK  Name = ZINC000004899494
REMARK                            x       y       z     vdW  Elec       q    Type
REMARK                         _______ _______ _______ _____ _____    ______ ____
ROOT
ATOM      1  C   ALA A  1        0.836  -0.462   1.171  0.00  0.00    +0.510 C 
ATOM      2  N   PRO A  2        2.100  -0.017   1.312  0.00  0.00    -0.580 N 
ATOM      3  CD  PRO A  2        2.754   0.997   0.465  0.00  0.00    +0.260 C 
ATOM      4  CG  PRO A  2        3.876   1.591   1.352  0.00  0.00    +0.050 C 
ATOM      5  CB  PRO A  2        4.359   0.336   2.126  0.00  0.00    +0.070 C 
ATOM      6  CA  PRO A  2        3.054  -0.459   2.340  0.00  0.00    +0.230 C 
ATOM      7  O   ALA A  1        0.369  -1.232   1.984  0.00  0.00    -0.500 OA
ENDROOT
BRANCH   6   8
ATOM      8  C   PRO A  2        2.505  -0.183   3.716  0.00  0.00    +0.500 C 
ATOM      9  N   GLY A  3        3.228  -0.503   4.807  0.00  0.00    -0.690 N 
ATOM     10  H   GLY A  3        4.102  -0.912   4.707  0.00  0.00    +0.410 HD
ATOM     11  O   PRO A  2        1.412   0.328   3.841  0.00  0.00    -0.550 OA
BRANCH   9  12
ATOM     12  CA  GLY A  3        2.694  -0.235   6.144  0.00  0.00    +0.190 C 
BRANCH  12  13
ATOM     13  C   GLY A  3        3.691  -0.683   7.182  0.00  0.00    +0.490 C 
ATOM     14  OXT GLY A  3        3.439  -0.548   8.368  0.00  0.00    -0.680 OA
ATOM     15  O   GLY A  3        4.748  -1.181   6.837  0.00  0.00    -0.690 OA
ENDBRANCH  12  13
ENDBRANCH   9  12
ENDBRANCH   6   8
BRANCH   1  17
ATOM     16  CB  ALA A  1       -0.702   1.310   0.366  0.00  0.00    +0.120 C 
ATOM     17  CA  ALA A  1        0.001  -0.001   0.004  0.00  0.00    +0.170 C 
BRANCH  17  18
ATOM     18  N   ALA A  1       -1.005  -1.024  -0.313  0.00  0.00    -0.620 N 
ATOM     19  H1  ALA A  1       -1.599  -1.171   0.489  0.00  0.00    +0.440 HD
ATOM     20  H2  ALA A  1       -0.542  -1.888  -0.551  0.00  0.00    +0.440 HD
ATOM     21  H3  ALA A  1       -1.564  -0.715  -1.094  0.00  0.00    +0.440 HD
ENDBRANCH  17  18
ENDBRANCH   1  17
TORSDOF 5
ENDMDL
MODEL     1218
REMARK  Name = ZINC000005378216
REMARK                            x       y       z     vdW  Elec       q    Type
REMARK                         _______ _______ _______ _____ _____    ______ ____
ROOT
ATOM      1  N   LIG    1       -1.350  -2.643  -1.287  0.00  0.00    -0.530 N 
ENDROOT
BRANCH   1   2
ATOM      2  N   LIG    1       -2.205  -2.598  -0.178  0.00  0.00    +0.200 N 
ATOM      3  O   LIG    1       -3.344  -3.019  -0.269  0.00  0.00    -0.170 OA
ATOM      4  O   LIG    1       -1.809  -2.138   0.878  0.00  0.00    -0.170 OA
ENDBRANCH   1   2
BRANCH   1   5
ATOM      5  C   LIG    1        0.020  -2.136  -1.177  0.00  0.00    +0.570 C 
BRANCH   5   8
ATOM      6  C   LIG    1       -0.018   1.503   0.010  0.00  0.00    +0.110 C 
ATOM      7  C   LIG    1        0.002  -0.004   0.002  0.00  0.00    +0.500 C 
ATOM      8  N   LIG    1        0.000  -0.672  -1.169  0.00  0.00    -0.750 N 
ATOM      9  H   LIG    1       -0.015  -0.182  -2.006  0.00  0.00    +0.400 HD
ATOM     10  O   LIG    1        0.020  -0.616   1.049  0.00  0.00    -0.500 OA
ENDBRANCH   5   8
ENDBRANCH   1   5
BRANCH   1  11
ATOM     11  C   LIG    1       -1.827  -3.196  -2.557  0.00  0.00    +0.570 C 
BRANCH  11  12
ATOM     12  N   LIG    1       -1.887  -4.657  -2.461  0.00  0.00    -0.750 N 
ATOM     13  H   LIG    1       -1.094  -5.187  -2.635  0.00  0.00    +0.400 HD
ATOM     14  C   LIG    1       -3.045  -5.264  -2.132  0.00  0.00    +0.500 C 
ATOM     15  O   LIG    1       -4.037  -4.601  -1.915  0.00  0.00    -0.500 OA
ATOM     16  C   LIG    1       -3.106  -6.766  -2.034  0.00  0.00    +0.100 C 
ENDBRANCH  11  12
ENDBRANCH   1  11
TORSDOF 5
ENDMDL
MODEL     1219
REMARK  Name = ZINC000022860405
REMARK                            x       y       z     vdW  Elec       q    Type
REMARK                         _______ _______ _______ _____ _____    ______ ____
ROOT
ATOM      1  O   LIG    1        0.002  -0.004   0.002  0.00  0.00    -0.920 OA
ATOM      2  S   LIG    1       -0.017   1.417   0.010  0.00  0.00    +2.400 S 
ATOM      3  C   LIG    1       -0.409   2.017   1.696  0.00  0.00    -0.300 C 
ATOM      4  C   LIG    1        0.951   2.235   2.377  0.00  0.00    +0.160 C 
ATOM      5  C   LIG    1        2.121   1.836   1.475  0.00  0.00    +0.160 C 
ATOM      6  O   LIG    1       -0.796   2.124  -0.946  0.00  0.00    -0.930 OA
ATOM      7  C   LIG    1        1.706   2.057  -0.003  0.00  0.00    -0.300 C 
ENDROOT
BRANCH   5   8
ATOM      8  N   LIG    1        3.291   2.667   1.787  0.00  0.00    -0.440 NA
ATOM      9  C   LIG    1        4.359   1.865   2.399  0.00  0.00    +0.150 C 
ATOM     10  C   LIG    1        4.434   2.308   0.936  0.00  0.00    +0.150 C 
ENDBRANCH   5   8
BRANCH   4  11
ATOM     11  N   LIG    1        1.004   1.430   3.605  0.00  0.00    -0.450 NA
ATOM     12  C   LIG    1        1.419   2.248   4.752  0.00  0.00    +0.160 C 
ATOM     13  C   LIG    1       -0.043   1.843   4.550  0.00  0.00    +0.150 C 
ENDBRANCH   4  11
TORSDOF 2
ENDMDL
MODEL     1220
REMARK  Name = ZINC000409423736
REMARK                            x       y       z     vdW  Elec       q    Type
REMARK                         _______ _______ _______ _____ _____    ______ ____
ROOT
ATOM      1  N   LIG    1        0.796  -0.399  -1.397  0.00  0.00    -1.040 NA
ATOM      2  C   LIG    1        0.416  -0.654  -2.794  0.00  0.00    +0.310 C 
ATOM      3  C   LIG    1        1.659  -1.546  -2.913  0.00  0.00    -0.020 C 
ATOM      4  C   LIG    1        2.192  -0.642  -1.789  0.00  0.00    +0.310 C 
ENDROOT
BRANCH   1   6
ATOM      5  C   LIG    1       -0.022   1.810   0.012  0.00  0.00    -0.290 C 
ATOM      6  S   LIG    1        0.002  -0.004   0.002  0.00  0.00    +2.640 S 
ATOM      7  O   LIG    1       -1.309  -0.519  -0.182  0.00  0.00    -0.950 OA
ATOM      8  O   LIG    1        0.845  -0.497   1.035  0.00  0.00    -0.950 OA
ENDBRANCH   1   6
BRANCH   3   9
ATOM      9  C   LIG    1        2.410  -1.403  -4.238  0.00  0.00    +0.360 C 
BRANCH   9  10
ATOM     10  N   LIG    1        3.501  -2.380  -4.289  0.00  0.00    -0.360 N 
ATOM     11  C   LIG    1        3.714  -3.294  -5.256  0.00  0.00    +0.290 A 
ATOM     12  C   LIG    1        4.847  -3.994  -4.895  0.00  0.00    -0.150 A 
ATOM     13  N   LIG    1        5.294  -3.496  -3.727  0.00  0.00    -0.180 NA
ATOM     14  N   LIG    1        4.525  -2.538  -3.345  0.00  0.00    -0.060 NA
BRANCH  12  15
ATOM     15  C   LIG    1        5.459  -5.092  -5.653  0.00  0.00    +0.550 C 
ATOM     16  O   LIG    1        6.460  -5.635  -5.234  0.00  0.00    -0.440 OA
ENDBRANCH  12  15
ENDBRANCH   9  10
ENDBRANCH   3   9
TORSDOF 4
ENDMDL
MODEL     1221
REMARK  Name = ZINC000409424206
REMARK                            x       y       z     vdW  Elec       q    Type
REMARK                         _______ _______ _______ _____ _____    ______ ____
ROOT
ATOM      1  N   LIG    1        0.796  -0.399  -1.397  0.00  0.00    -1.050 NA
ATOM      2  C   LIG    1        0.416  -0.654  -2.794  0.00  0.00    +0.340 C 
ATOM      3  C   LIG    1        1.820  -0.188  -3.204  0.00  0.00    +0.250 C 
ATOM      4  C   LIG    1        2.192  -0.642  -1.789  0.00  0.00    +0.340 C 
ENDROOT
BRANCH   3   5
ATOM      5  N   LIG    1        1.935   1.257  -3.417  0.00  0.00    -0.340 N 
ATOM      6  C   LIG    1        2.171   2.190  -2.474  0.00  0.00    +0.270 A 
ATOM      7  C   LIG    1        2.199   3.408  -3.120  0.00  0.00    -0.140 A 
ATOM      8  N   LIG    1        1.980   3.192  -4.431  0.00  0.00    -0.180 NA
ATOM      9  N   LIG    1        1.825   1.932  -4.640  0.00  0.00    -0.060 NA
BRANCH   7  10
ATOM     10  C   LIG    1        2.427   4.713  -2.489  0.00  0.00    +0.540 C 
ATOM     11  O   LIG    1        2.428   5.721  -3.163  0.00  0.00    -0.440 OA
ENDBRANCH   7  10
ENDBRANCH   3   5
BRANCH   1  13
ATOM     12  C   LIG    1       -0.022   1.810   0.012  0.00  0.00    -0.270 C 
ATOM     13  S   LIG    1        0.002  -0.004   0.002  0.00  0.00    +2.630 S 
ATOM     14  O   LIG    1       -1.309  -0.519  -0.182  0.00  0.00    -0.940 OA
ATOM     15  O   LIG    1        0.845  -0.497   1.035  0.00  0.00    -0.940 OA
ENDBRANCH   1  13
TORSDOF 3
ENDMDL
MODEL     1222
REMARK  Name = ZINC000136658374
REMARK                            x       y       z     vdW  Elec       q    Type
REMARK                         _______ _______ _______ _____ _____    ______ ____
ROOT
ATOM      1  C   LIG    1        0.849  -2.021  -1.205  0.00  0.00    +0.240 C 
ATOM      2  C   LIG    1        1.750  -2.411  -0.061  0.00  0.00    +0.240 C 
ATOM      3  N   LIG    1        3.016  -2.578  -0.231  0.00  0.00    -0.390 NA
ATOM      4  C   LIG    1        3.598  -2.422  -1.454  0.00  0.00    -0.220 A 
ATOM      5  C   LIG    1        2.805  -2.395  -2.610  0.00  0.00    +0.480 A 
ATOM      6  N   LIG    1        3.374  -2.256  -3.804  0.00  0.00    -0.610 NA
ATOM      7  C   LIG    1        4.682  -2.133  -3.921  0.00  0.00    +0.680 A 
ATOM      8  N   LIG    1        5.503  -2.144  -2.837  0.00  0.00    -0.660 N 
ATOM      9  H   LIG    1        6.461  -2.049  -2.957  0.00  0.00    +0.420 HD
ATOM     10  C   LIG    1        4.994  -2.287  -1.593  0.00  0.00    +0.580 A 
ATOM     11  O   LIG    1        5.724  -2.298  -0.616  0.00  0.00    -0.520 OA
ATOM     12  N   LIG    1        1.433  -2.508  -2.465  0.00  0.00    -0.700 N 
ATOM     13  H   LIG    1        0.882  -2.893  -3.164  0.00  0.00    +0.410 HD
ENDROOT
BRANCH   7  14
ATOM     14  N   LIG    1        5.228  -1.991  -5.169  0.00  0.00    -0.810 N 
ATOM     15  H   LIG    1        6.189  -1.900  -5.270  0.00  0.00    +0.420 HD
ATOM     16  H   LIG    1        4.655  -1.981  -5.951  0.00  0.00    +0.430 HD
ENDBRANCH   7  14
BRANCH   1  17
ATOM     17  C   LIG    1        0.718  -0.497  -1.257  0.00  0.00    +0.170 C 
BRANCH  17  19
ATOM     18  C   LIG    1       -0.019   1.526   0.010  0.00  0.00    +0.020 C 
ATOM     19  C   LIG    1        0.002  -0.004   0.002  0.00  0.00    +0.180 C 
BRANCH  19  20
ATOM     20  O   LIG    1        0.693  -0.477   1.160  0.00  0.00    -0.550 OA
ATOM     21  H   LIG    1        1.611  -0.180   1.219  0.00  0.00    +0.380 HD
ENDBRANCH  19  20
ENDBRANCH  17  19
BRANCH  17  22
ATOM     22  O   LIG    1        2.019   0.090  -1.326  0.00  0.00    -0.550 OA
ATOM     23  H   LIG    1        2.587  -0.122  -0.573  0.00  0.00    +0.370 HD
ENDBRANCH  17  22
ENDBRANCH   1  17
TORSDOF 5
ENDMDL
MODEL     1223
REMARK  Name = ZINC000136658286
REMARK                            x       y       z     vdW  Elec       q    Type
REMARK                         _______ _______ _______ _____ _____    ______ ____
ROOT
ATOM      1  C   LIG    1        0.739  -2.027  -1.265  0.00  0.00    +0.240 C 
ATOM      2  C   LIG    1        1.440  -2.515  -2.507  0.00  0.00    +0.240 C 
ATOM      3  N   LIG    1        0.786  -2.787  -3.584  0.00  0.00    -0.380 NA
ATOM      4  C   LIG    1       -0.570  -2.659  -3.646  0.00  0.00    -0.200 A 
ATOM      5  C   LIG    1       -1.318  -2.541  -2.467  0.00  0.00    +0.450 A 
ATOM      6  N   LIG    1       -2.642  -2.428  -2.527  0.00  0.00    -0.610 NA
ATOM      7  C   LIG    1       -3.269  -2.416  -3.687  0.00  0.00    +0.670 A 
ATOM      8  N   LIG    1       -2.597  -2.518  -4.866  0.00  0.00    -0.660 N 
ATOM      9  H   LIG    1       -3.087  -2.504  -5.703  0.00  0.00    +0.420 HD
ATOM     10  C   LIG    1       -1.251  -2.641  -4.879  0.00  0.00    +0.570 A 
ATOM     11  O   LIG    1       -0.642  -2.733  -5.932  0.00  0.00    -0.510 OA
ATOM     12  N   LIG    1       -0.641  -2.539  -1.259  0.00  0.00    -0.700 N 
ATOM     13  H   LIG    1       -1.059  -2.861  -0.445  0.00  0.00    +0.420 HD
ENDROOT
BRANCH   7  14
ATOM     14  N   LIG    1       -4.633  -2.297  -3.707  0.00  0.00    -0.810 N 
ATOM     15  H   LIG    1       -5.107  -2.287  -4.553  0.00  0.00    +0.420 HD
ATOM     16  H   LIG    1       -5.125  -2.223  -2.874  0.00  0.00    +0.430 HD
ENDBRANCH   7  14
BRANCH   1  17
ATOM     17  C   LIG    1        0.718  -0.497  -1.257  0.00  0.00    +0.180 C 
BRANCH  17  19
ATOM     18  C   LIG    1       -0.019   1.526   0.010  0.00  0.00    +0.010 C 
ATOM     19  C   LIG    1        0.002  -0.004   0.002  0.00  0.00    +0.170 C 
BRANCH  19  20
ATOM     20  O   LIG    1        0.693  -0.477   1.160  0.00  0.00    -0.560 OA
ATOM     21  H   LIG    1        1.611  -0.180   1.219  0.00  0.00    +0.380 HD
ENDBRANCH  19  20
ENDBRANCH  17  19
BRANCH  17  22
ATOM     22  O   LIG    1        0.027  -0.024  -2.414  0.00  0.00    -0.540 OA
ATOM     23  H   LIG    1       -0.891  -0.322  -2.473  0.00  0.00    +0.370 HD
ENDBRANCH  17  22
ENDBRANCH   1  17
TORSDOF 5
ENDMDL
MODEL     1224
REMARK  Name = ZINC000004995008
REMARK                            x       y       z     vdW  Elec       q    Type
REMARK                         _______ _______ _______ _____ _____    ______ ____
ROOT
ATOM      1  C1*   U A  1        2.406   1.113  -0.006  0.00  0.00    +0.460 C 
ATOM      2  O4*   U A  1        2.349   0.057  -0.990  0.00  0.00    -0.330 OA
ATOM      3  C4*   U A  1        1.565  -0.990  -0.379  0.00  0.00    +0.120 C 
ATOM      4  C3*   U A  1        2.036  -1.030   1.092  0.00  0.00    +0.120 C 
ATOM      5  C2*   U A  1        2.604   0.388   1.343  0.00  0.00    +0.180 C 
ENDROOT
BRANCH   1  13
ATOM      6  O2    U A  1        2.049   3.364   1.348  0.00  0.00    -0.580 OA
ATOM      7  C2    U A  1        1.074   3.003   0.717  0.00  0.00    +0.720 C 
ATOM      8  N3    U A  1       -0.035   3.755   0.760  0.00  0.00    -0.750 N 
ATOM      9  H3    U A  1       -0.036   4.571   1.285  0.00  0.00    +0.420 HD
ATOM     10  C4    U A  1       -1.245   3.369   0.033  0.00  0.00    +0.390 C 
ATOM     11  C5    U A  1       -0.850   2.564  -1.209  0.00  0.00    +0.060 C 
ATOM     12  C6    U A  1        0.010   1.375  -0.766  0.00  0.00    +0.280 C 
ATOM     13  N1    U A  1        1.153   1.872   0.001  0.00  0.00    -0.630 N 
BRANCH  10  14
ATOM     14  O4    U A  1       -1.958   4.543  -0.364  0.00  0.00    -0.560 OA
ATOM     15  H4    U A  1       -2.236   5.103   0.373  0.00  0.00    +0.390 HD
ENDBRANCH  10  14
ENDBRANCH   1  13
BRANCH   4  16
ATOM     16  O3*   U A  1        3.054  -2.017   1.264  0.00  0.00    -0.540 OA
ATOM     17  H3*   U A  1        2.767  -2.918   1.062  0.00  0.00    +0.380 HD
ENDBRANCH   4  16
BRANCH   5  18
ATOM     18  O2*   U A  1        3.991   0.319   1.681  0.00  0.00    -0.530 OA
ATOM     19  H2*   U A  1        4.175  -0.179   2.489  0.00  0.00    +0.390 HD
ENDBRANCH   5  18
BRANCH   3  20
ATOM     20  C5*   U A  1        1.838  -2.330  -1.065  0.00  0.00    +0.210 C 
BRANCH  20  21
ATOM     21  O5*   U A  1        1.354  -2.285  -2.408  0.00  0.00    -0.560 OA
ATOM     22  H5*   U A  1        1.495  -3.103  -2.905  0.00  0.00    +0.390 HD
ENDBRANCH  20  21
ENDBRANCH   3  20
TORSDOF 6
ENDMDL
MODEL     1225
REMARK  Name = ZINC000409425103
REMARK                            x       y       z     vdW  Elec       q    Type
REMARK                         _______ _______ _______ _____ _____    ______ ____
ROOT
ATOM      1  N   LIG    1        0.796  -0.399  -1.397  0.00  0.00    -1.050 NA
ATOM      2  C   LIG    1        0.416  -0.654  -2.794  0.00  0.00    +0.340 C 
ATOM      3  C   LIG    1        1.820  -0.188  -3.204  0.00  0.00    +0.240 C 
ATOM      4  C   LIG    1        2.192  -0.642  -1.789  0.00  0.00    +0.340 C 
ENDROOT
BRANCH   3   5
ATOM      5  N   LIG    1        1.935   1.257  -3.417  0.00  0.00    -0.280 N 
ATOM      6  C   LIG    1        2.173   2.183  -2.458  0.00  0.00    +0.160 A 
ATOM      7  C   LIG    1        2.199   3.380  -3.089  0.00  0.00    -0.030 A 
ATOM      8  N   LIG    1        1.979   3.131  -4.385  0.00  0.00    -0.260 NA
ATOM      9  N   LIG    1        1.832   1.864  -4.547  0.00  0.00    -0.070 NA
BRANCH   7  10
ATOM     10  C   LIG    1        2.432   4.728  -2.456  0.00  0.00    +0.300 C 
BRANCH  10  11
ATOM     11  O   LIG    1        2.627   4.566  -1.050  0.00  0.00    -0.570 OA
ATOM     12  H   LIG    1        2.783   5.395  -0.577  0.00  0.00    +0.390 HD
ENDBRANCH  10  11
ENDBRANCH   7  10
ENDBRANCH   3   5
BRANCH   1  14
ATOM     13  C   LIG    1       -0.022   1.810   0.012  0.00  0.00    -0.270 C 
ATOM     14  S   LIG    1        0.002  -0.004   0.002  0.00  0.00    +2.630 S 
ATOM     15  O   LIG    1       -1.309  -0.519  -0.182  0.00  0.00    -0.950 OA
ATOM     16  O   LIG    1        0.845  -0.497   1.035  0.00  0.00    -0.940 OA
ENDBRANCH   1  14
TORSDOF 4
ENDMDL
MODEL     1226
REMARK  Name = ZINC000004611597
REMARK                            x       y       z     vdW  Elec       q    Type
REMARK                         _______ _______ _______ _____ _____    ______ ____
ROOT
ATOM      1  O   LIG    1       -0.595  -0.069  -0.064  0.00  0.00    -0.490 OA
ATOM      2  C   LIG    1       -0.487   1.141  -0.039  0.00  0.00    +0.650 C 
ATOM      3  N   LIG    1       -1.543   1.998  -0.037  0.00  0.00    -0.710 N 
ATOM      4  H   LIG    1       -2.483   1.758  -0.033  0.00  0.00    +0.440 HD
ATOM      5  C   LIG    1       -0.998   3.336  -0.042  0.00  0.00    +0.350 C 
ATOM      6  O   LIG    1       -1.549   4.381  -0.797  0.00  0.00    -0.340 OA
ATOM      7  C   LIG    1       -0.856   5.618  -0.544  0.00  0.00    +0.200 C 
ATOM      8  C   LIG    1        0.641   5.508  -0.820  0.00  0.00    +0.140 C 
ATOM      9  C   LIG    1        1.258   4.283  -0.113  0.00  0.00    +0.210 C 
ATOM     10  C   LIG    1        0.435   3.090  -0.592  0.00  0.00    +0.160 C 
ATOM     11  O   LIG    1        0.707   1.798  -0.003  0.00  0.00    -0.310 OA
ENDROOT
BRANCH   9  12
ATOM     12  O   LIG    1        2.625   4.128  -0.500  0.00  0.00    -0.530 OA
ATOM     13  H   LIG    1        3.183   4.886  -0.283  0.00  0.00    +0.390 HD
ENDBRANCH   9  12
BRANCH   8  14
ATOM     14  O   LIG    1        0.848   5.385  -2.229  0.00  0.00    -0.540 OA
ATOM     15  H   LIG    1        0.514   6.134  -2.742  0.00  0.00    +0.390 HD
ENDBRANCH   8  14
BRANCH   7  16
ATOM     16  C   LIG    1       -1.061   6.012   0.920  0.00  0.00    +0.170 C 
BRANCH  16  17
ATOM     17  O   LIG    1       -2.447   6.266   1.155  0.00  0.00    -0.560 OA
ATOM     18  H   LIG    1       -2.652   6.522   2.064  0.00  0.00    +0.390 HD
ENDBRANCH  16  17
ENDBRANCH   7  16
TORSDOF 4
ENDMDL
MODEL     1227
REMARK  Name = ZINC000263615887
REMARK                            x       y       z     vdW  Elec       q    Type
REMARK                         _______ _______ _______ _____ _____    ______ ____
ROOT
ATOM      1  O   LIG    1        0.002  -0.004   0.002  0.00  0.00    -0.540 OA
ATOM      2  C   LIG    1       -0.014   1.211   0.009  0.00  0.00    +0.690 C 
ATOM      3  N   LIG    1       -1.200   1.828   0.029  0.00  0.00    -0.740 N 
ATOM      4  H   LIG    1       -2.008   1.295  -0.035  0.00  0.00    +0.420 HD
ATOM      5  C   LIG    1       -1.320   3.285   0.143  0.00  0.00    +0.260 C 
ATOM      6  C   LIG    1       -0.048   3.933  -0.421  0.00  0.00    +0.070 C 
ATOM      7  C   LIG    1        1.158   3.283   0.265  0.00  0.00    +0.130 C 
ATOM      8  C   LIG    1        1.085   3.510   1.772  0.00  0.00    +0.200 C 
ATOM      9  C   LIG    1       -0.220   2.948   2.336  0.00  0.00    +0.100 C 
ATOM     10  C   LIG    1       -1.416   3.630   1.639  0.00  0.00    +0.130 C 
ATOM     11  O   LIG    1        1.157   1.862   0.001  0.00  0.00    -0.310 OA
ENDROOT
BRANCH   9  12
ATOM     12  O   LIG    1       -0.259   1.535   2.127  0.00  0.00    -0.520 OA
ATOM     13  H   LIG    1       -1.061   1.110   2.462  0.00  0.00    +0.380 HD
ENDBRANCH   9  12
BRANCH   8  14
ATOM     14  O   LIG    1        2.189   2.857   2.401  0.00  0.00    -0.510 OA
ATOM     15  H   LIG    1        2.210   2.957   3.362  0.00  0.00    +0.370 HD
ENDBRANCH   8  14
BRANCH  10  16
ATOM     16  O   LIG    1       -1.356   5.042   1.849  0.00  0.00    -0.550 OA
ATOM     17  H   LIG    1       -1.385   5.303   2.780  0.00  0.00    +0.390 HD
ENDBRANCH  10  16
BRANCH   7  18
ATOM     18  C   LIG    1        2.445   3.909  -0.277  0.00  0.00    +0.220 C 
BRANCH  18  19
ATOM     19  O   LIG    1        3.573   3.306   0.360  0.00  0.00    -0.540 OA
ATOM     20  H   LIG    1        4.425   3.655   0.064  0.00  0.00    +0.380 HD
ENDBRANCH  18  19
ENDBRANCH   7  18
TORSDOF 5
ENDMDL
MODEL     1228
REMARK  Name = ZINC000043772684
REMARK                            x       y       z     vdW  Elec       q    Type
REMARK                         _______ _______ _______ _____ _____    ______ ____
ROOT
ATOM      1  O   LIG    1        0.002  -0.004   0.002  0.00  0.00    -0.470 OA
ATOM      2  C   LIG    1       -0.014   1.209   0.009  0.00  0.00    +0.500 C 
ATOM      3  N   LIG    1       -1.122   1.980   0.029  0.00  0.00    -0.710 N 
ATOM      4  H   LIG    1       -2.039   1.666   0.001  0.00  0.00    +0.440 HD
ATOM      5  C   LIG    1       -0.688   3.375   0.102  0.00  0.00    +0.480 C 
ATOM      6  C   LIG    1       -1.292   4.201  -1.037  0.00  0.00    +0.130 C 
ATOM      7  C   LIG    1       -0.596   5.565  -1.081  0.00  0.00    +0.120 C 
ATOM      8  C   LIG    1        0.889   5.394  -1.401  0.00  0.00    +0.190 C 
ATOM      9  C   LIG    1        1.568   4.587  -0.283  0.00  0.00    +0.290 C 
ATOM     10  N   LIG    1        0.777   3.370  -0.059  0.00  0.00    -0.610 N 
ATOM     11  C   LIG    1        1.189   2.097   0.002  0.00  0.00    +0.500 C 
ATOM     12  O   LIG    1        2.344   1.726   0.024  0.00  0.00    -0.430 OA
ENDROOT
BRANCH   8  13
ATOM     13  O   LIG    1        1.506   6.680  -1.500  0.00  0.00    -0.550 OA
ATOM     14  H   LIG    1        1.129   7.244  -2.188  0.00  0.00    +0.400 HD
ENDBRANCH   8  13
BRANCH   7  15
ATOM     15  O   LIG    1       -1.204   6.373  -2.091  0.00  0.00    -0.560 OA
ATOM     16  H   LIG    1       -2.146   6.536  -1.950  0.00  0.00    +0.390 HD
ENDBRANCH   7  15
BRANCH   6  17
ATOM     17  O   LIG    1       -2.691   4.381  -0.809  0.00  0.00    -0.550 OA
ATOM     18  H   LIG    1       -3.138   4.896  -1.494  0.00  0.00    +0.390 HD
ENDBRANCH   6  17
BRANCH   9  19
ATOM     19  C   LIG    1        2.992   4.216  -0.702  0.00  0.00    +0.210 C 
BRANCH  19  20
ATOM     20  O   LIG    1        3.654   3.568   0.386  0.00  0.00    -0.550 OA
ATOM     21  H   LIG    1        4.564   3.304   0.192  0.00  0.00    +0.390 HD
ENDBRANCH  19  20
ENDBRANCH   9  19
TORSDOF 5
ENDMDL
MODEL     1229
REMARK  Name = ZINC000034268369
REMARK                            x       y       z     vdW  Elec       q    Type
REMARK                         _______ _______ _______ _____ _____    ______ ____
ROOT
ATOM      1  C   LIG    1       -0.032   5.396   0.033  0.00  0.00    +0.440 C 
ATOM      2  O   LIG    1        0.789   5.898  -1.044  0.00  0.00    -0.330 OA
ATOM      3  C   LIG    1        1.132   7.248  -0.662  0.00  0.00    +0.170 C 
ATOM      4  C   LIG    1        1.424   7.168   0.853  0.00  0.00    +0.160 C 
ATOM      5  F   LIG    1        2.794   7.003   1.080  0.00  0.00    -0.190 F 
ATOM      6  C   LIG    1        0.637   5.921   1.322  0.00  0.00    +0.140 C 
ENDROOT
BRANCH   1  11
ATOM      7  O   LIG    1        0.002  -0.004   0.002  0.00  0.00    -0.510 OA
ATOM      8  C   LIG    1       -0.014   1.214   0.009  0.00  0.00    +0.550 A 
ATOM      9  C   LIG    1       -1.246   1.911   0.030  0.00  0.00    -0.110 A 
ATOM     10  C   LIG    1       -1.236   3.261   0.038  0.00  0.00    +0.360 A 
ATOM     11  N   LIG    1       -0.043   3.930   0.025  0.00  0.00    -0.530 N 
ATOM     12  C   LIG    1        1.121   3.256   0.005  0.00  0.00    +0.700 A 
ATOM     13  O   LIG    1        2.170   3.870  -0.006  0.00  0.00    -0.520 OA
ATOM     14  N   LIG    1        1.140   1.910   0.001  0.00  0.00    -0.660 N 
ATOM     15  H   LIG    1        1.988   1.439  -0.013  0.00  0.00    +0.430 HD
ENDBRANCH   1  11
BRANCH   6  16
ATOM     16  O   LIG    1       -0.346   6.285   2.292  0.00  0.00    -0.550 OA
ATOM     17  H   LIG    1        0.021   6.676   3.097  0.00  0.00    +0.400 HD
ENDBRANCH   6  16
BRANCH   3  18
ATOM     18  C   LIG    1        2.375   7.717  -1.422  0.00  0.00    +0.220 C 
BRANCH  18  19
ATOM     19  O   LIG    1        2.069   7.826  -2.814  0.00  0.00    -0.570 OA
ATOM     20  H   LIG    1        2.813   8.119  -3.358  0.00  0.00    +0.390 HD
ENDBRANCH  18  19
ENDBRANCH   3  18
TORSDOF 4
ENDMDL
MODEL     1230
REMARK  Name = ZINC000004995004
REMARK                            x       y       z     vdW  Elec       q    Type
REMARK                         _______ _______ _______ _____ _____    ______ ____
ROOT
ATOM      1  C1*   U A  1        2.406   1.113  -0.032  0.00  0.00    +0.430 C 
ATOM      2  O4*   U A  1        3.538   2.009   0.025  0.00  0.00    -0.350 OA
ATOM      3  C4*   U A  1        4.643   1.197   0.480  0.00  0.00    +0.140 C 
ATOM      4  C3*   U A  1        4.040   0.289   1.576  0.00  0.00    +0.120 C 
ATOM      5  C2*   U A  1        2.534   0.231   1.230  0.00  0.00    +0.170 C 
ENDROOT
BRANCH   1  13
ATOM      6  O2    U A  1        0.002  -0.004   0.002  0.00  0.00    -0.590 OA
ATOM      7  C2    U A  1       -0.014   1.212   0.009  0.00  0.00    +0.730 C 
ATOM      8  N3    U A  1       -1.200   1.840   0.029  0.00  0.00    -0.750 N 
ATOM      9  H3    U A  1       -2.015   1.315   0.029  0.00  0.00    +0.410 HD
ATOM     10  C4    U A  1       -1.287   3.301   0.051  0.00  0.00    +0.390 C 
ATOM     11  C5    U A  1       -0.060   3.888  -0.655  0.00  0.00    +0.050 C 
ATOM     12  C6    U A  1        1.201   3.335   0.016  0.00  0.00    +0.290 C 
ATOM     13  N1    U A  1        1.153   1.872   0.001  0.00  0.00    -0.600 N 
BRANCH  10  14
ATOM     14  O4    U A  1       -2.474   3.718  -0.625  0.00  0.00    -0.560 OA
ATOM     15  H4    U A  1       -3.290   3.378  -0.233  0.00  0.00    +0.390 HD
ENDBRANCH  10  14
ENDBRANCH   1  13
BRANCH   4  16
ATOM     16  O3*   U A  1        4.239   0.865   2.869  0.00  0.00    -0.540 OA
ATOM     17  H3*   U A  1        5.169   0.978   3.110  0.00  0.00    +0.380 HD
ENDBRANCH   4  16
BRANCH   5  18
ATOM     18  O2*   U A  1        1.753   0.768   2.299  0.00  0.00    -0.530 OA
ATOM     19  H2*   U A  1        1.845   0.287   3.133  0.00  0.00    +0.380 HD
ENDBRANCH   5  18
BRANCH   3  20
ATOM     20  C5*   U A  1        5.747   2.080   1.065  0.00  0.00    +0.210 C 
BRANCH  20  21
ATOM     21  O5*   U A  1        6.318   2.878   0.026  0.00  0.00    -0.560 OA
ATOM     22  H5*   U A  1        7.027   3.465   0.326  0.00  0.00    +0.380 HD
ENDBRANCH  20  21
ENDBRANCH   3  20
TORSDOF 6
ENDMDL
MODEL     1231
REMARK  Name = ZINC000005567018
REMARK                            x       y       z     vdW  Elec       q    Type
REMARK                         _______ _______ _______ _____ _____    ______ ____
ROOT
ATOM      1  O2    U A  1        0.002  -0.004   0.002  0.00  0.00    -0.590 OA
ATOM      2  C2    U A  1       -0.014   1.212   0.009  0.00  0.00    +0.720 C 
ATOM      3  N3    U A  1       -1.200   1.840   0.029  0.00  0.00    -0.750 N 
ATOM      4  H3    U A  1       -2.015   1.315   0.029  0.00  0.00    +0.410 HD
ATOM      5  C4    U A  1       -1.287   3.301   0.051  0.00  0.00    +0.390 C 
ATOM      6  C5    U A  1       -0.060   3.888  -0.655  0.00  0.00    +0.050 C 
ATOM      7  C6    U A  1        1.201   3.335   0.016  0.00  0.00    +0.290 C 
ATOM      8  N1    U A  1        1.153   1.872   0.001  0.00  0.00    -0.620 N 
ENDROOT
BRANCH   8   9
ATOM      9  C1*   U A  1        2.406   1.113  -0.032  0.00  0.00    +0.420 C 
ATOM     10  C2*   U A  1        2.548   0.237   1.239  0.00  0.00    +0.000 C 
ATOM     11  C3*   U A  1        4.082   0.056   1.339  0.00  0.00    +0.160 C 
ATOM     12  C4*   U A  1        4.655   1.223   0.511  0.00  0.00    +0.180 C 
ATOM     13  O4*   U A  1        3.541   2.002   0.040  0.00  0.00    -0.360 OA
BRANCH  11  14
ATOM     14  O3*   U A  1        4.509   0.148   2.700  0.00  0.00    -0.560 OA
ATOM     15  H3*   U A  1        4.131  -0.530   3.277  0.00  0.00    +0.390 HD
ENDBRANCH  11  14
BRANCH  12  16
ATOM     16  C5*   U A  1        5.566   2.084   1.387  0.00  0.00    +0.220 C 
BRANCH  16  17
ATOM     17  O5*   U A  1        6.183   3.093   0.586  0.00  0.00    -0.570 OA
ATOM     18  H5*   U A  1        6.776   3.678   1.077  0.00  0.00    +0.380 HD
ENDBRANCH  16  17
ENDBRANCH  12  16
ENDBRANCH   8   9
BRANCH   5  19
ATOM     19  O4    U A  1       -2.474   3.718  -0.625  0.00  0.00    -0.560 OA
ATOM     20  H4    U A  1       -3.290   3.378  -0.233  0.00  0.00    +0.390 HD
ENDBRANCH   5  19
TORSDOF 5
ENDMDL
MODEL     1232
REMARK  Name = ZINC000004995007
REMARK                            x       y       z     vdW  Elec       q    Type
REMARK                         _______ _______ _______ _____ _____    ______ ____
ROOT
ATOM      1  C1*   U A  1        2.406   1.113  -0.032  0.00  0.00    +0.470 C 
ATOM      2  O4*   U A  1        2.339   0.074  -1.033  0.00  0.00    -0.330 OA
ATOM      3  C4*   U A  1        1.560  -0.983  -0.432  0.00  0.00    +0.120 C 
ATOM      4  C3*   U A  1        2.046  -1.048   1.032  0.00  0.00    +0.120 C 
ATOM      5  C2*   U A  1        2.617   0.365   1.303  0.00  0.00    +0.170 C 
ENDROOT
BRANCH   1  13
ATOM      6  O2    U A  1        2.246   3.722  -0.474  0.00  0.00    -0.580 OA
ATOM      7  C2    U A  1        1.179   3.193  -0.229  0.00  0.00    +0.720 C 
ATOM      8  N3    U A  1        0.074   3.952  -0.206  0.00  0.00    -0.750 N 
ATOM      9  H3    U A  1        0.148   4.905  -0.375  0.00  0.00    +0.420 HD
ATOM     10  C4    U A  1       -1.242   3.373   0.070  0.00  0.00    +0.390 C 
ATOM     11  C5    U A  1       -1.073   2.146   0.971  0.00  0.00    +0.050 C 
ATOM     12  C6    U A  1       -0.100   1.174   0.294  0.00  0.00    +0.270 C 
ATOM     13  N1    U A  1        1.153   1.872   0.001  0.00  0.00    -0.620 N 
BRANCH  10  14
ATOM     14  O4    U A  1       -2.062   4.341   0.728  0.00  0.00    -0.560 OA
ATOM     15  H4    U A  1       -2.207   5.148   0.215  0.00  0.00    +0.390 HD
ENDBRANCH  10  14
ENDBRANCH   1  13
BRANCH   4  16
ATOM     16  O3*   U A  1        3.066  -2.039   1.178  0.00  0.00    -0.540 OA
ATOM     17  H3*   U A  1        2.776  -2.936   0.963  0.00  0.00    +0.380 HD
ENDBRANCH   4  16
BRANCH   5  18
ATOM     18  O2*   U A  1        4.007   0.290   1.626  0.00  0.00    -0.530 OA
ATOM     19  H2*   U A  1        4.199  -0.222   2.424  0.00  0.00    +0.390 HD
ENDBRANCH   5  18
BRANCH   3  20
ATOM     20  C5*   U A  1        1.826  -2.311  -1.144  0.00  0.00    +0.210 C 
BRANCH  20  21
ATOM     21  O5*   U A  1        1.329  -2.243  -2.482  0.00  0.00    -0.560 OA
ATOM     22  H5*   U A  1        1.464  -3.052  -2.994  0.00  0.00    +0.380 HD
ENDBRANCH  20  21
ENDBRANCH   3  20
TORSDOF 6
ENDMDL
MODEL     1233
REMARK  Name = ZINC000039094235
REMARK                            x       y       z     vdW  Elec       q    Type
REMARK                         _______ _______ _______ _____ _____    ______ ____
ROOT
ATOM      1  O   LIG    1        0.002  -0.004   0.002  0.00  0.00    -0.540 OA
ATOM      2  C   LIG    1       -0.014   1.211   0.009  0.00  0.00    +0.700 C 
ATOM      3  N   LIG    1       -1.200   1.828   0.029  0.00  0.00    -0.740 N 
ATOM      4  H   LIG    1       -2.006   1.294   0.109  0.00  0.00    +0.420 HD
ATOM      5  C   LIG    1       -1.323   3.286  -0.067  0.00  0.00    +0.260 C 
ATOM      6  C   LIG    1       -0.036   3.928   0.470  0.00  0.00    +0.070 C 
ATOM      7  C   LIG    1        1.151   3.286  -0.257  0.00  0.00    +0.130 C 
ATOM      8  C   LIG    1        1.036   3.529  -1.758  0.00  0.00    +0.200 C 
ATOM      9  C   LIG    1       -0.284   2.973  -2.293  0.00  0.00    +0.100 C 
ATOM     10  C   LIG    1       -1.461   3.647  -1.555  0.00  0.00    +0.130 C 
ATOM     11  O   LIG    1        1.157   1.862   0.001  0.00  0.00    -0.310 OA
ENDROOT
BRANCH   9  12
ATOM     12  O   LIG    1       -0.318   1.558  -2.098  0.00  0.00    -0.520 OA
ATOM     13  H   LIG    1       -1.128   1.136  -2.414  0.00  0.00    +0.380 HD
ENDBRANCH   9  12
BRANCH   8  14
ATOM     14  O   LIG    1        2.123   2.883  -2.425  0.00  0.00    -0.510 OA
ATOM     15  H   LIG    1        2.116   2.993  -3.385  0.00  0.00    +0.370 HD
ENDBRANCH   8  14
BRANCH  10  16
ATOM     16  O   LIG    1       -1.406   5.062  -1.752  0.00  0.00    -0.550 OA
ATOM     17  H   LIG    1       -1.460   5.332  -2.679  0.00  0.00    +0.390 HD
ENDBRANCH  10  16
BRANCH   7  18
ATOM     18  C   LIG    1        2.452   3.906   0.256  0.00  0.00    +0.220 C 
BRANCH  18  19
ATOM     19  O   LIG    1        3.553   3.396  -0.498  0.00  0.00    -0.540 OA
ATOM     20  H   LIG    1        4.412   3.747  -0.227  0.00  0.00    +0.380 HD
ENDBRANCH  18  19
ENDBRANCH   7  18
TORSDOF 5
ENDMDL
MODEL     1234
REMARK  Name = ZINC000005581186
REMARK                            x       y       z     vdW  Elec       q    Type
REMARK                         _______ _______ _______ _____ _____    ______ ____
ROOT
ATOM      1  S   LIG    1        0.027  -0.347   2.779  0.00  0.00    +0.110 S 
ENDROOT
BRANCH   1   6
ATOM      2  N   LIG    1        0.002  -0.004   0.002  0.00  0.00    -0.310 N 
ATOM      3  C   LIG    1        0.009  -0.824  -1.093  0.00  0.00    +0.360 A 
ATOM      4  N   LIG    1        0.028  -2.052  -0.657  0.00  0.00    -0.270 NA
ATOM      5  N   LIG    1        0.034  -2.064   0.628  0.00  0.00    -0.290 NA
ATOM      6  C   LIG    1        0.024  -0.834   1.086  0.00  0.00    +0.170 A 
BRANCH   2   7
ATOM      7  N   LIG    1       -0.016   1.362   0.009  0.00  0.00    -0.590 N 
ATOM      8  H   LIG    1       -0.555   1.720  -0.765  0.00  0.00    +0.380 HD
ATOM      9  H   LIG    1        0.920   1.736   0.003  0.00  0.00    +0.370 HD
ENDBRANCH   2   7
ENDBRANCH   1   6
BRANCH   1  10
ATOM     10  C   LIG    1        0.046  -1.973   3.574  0.00  0.00    +0.100 C 
BRANCH  10  11
ATOM     11  C   LIG    1        0.051  -1.800   5.071  0.00  0.00    +0.540 C 
ATOM     12  N   LIG    1        0.065  -2.882   5.875  0.00  0.00    -0.610 N 
ATOM     13  C   LIG    1        0.082  -4.242   5.313  0.00  0.00    +0.260 C 
ATOM     14  C   LIG    1        1.216  -5.027   5.982  0.00  0.00    +0.220 C 
ATOM     15  O   LIG    1        1.083  -4.928   7.402  0.00  0.00    -0.380 OA
ATOM     16  C   LIG    1        1.200  -3.597   7.909  0.00  0.00    +0.220 C 
ATOM     17  C   LIG    1        0.071  -2.738   7.339  0.00  0.00    +0.270 C 
ATOM     18  O   LIG    1        0.043  -0.687   5.553  0.00  0.00    -0.520 OA
ENDBRANCH  10  11
ENDBRANCH   1  10
TORSDOF 4
ENDMDL
MODEL     1235
REMARK  Name = ZINC000012175534
REMARK                            x       y       z     vdW  Elec       q    Type
REMARK                         _______ _______ _______ _____ _____    ______ ____
ROOT
ATOM      1  O   LIG    1        0.002  -0.004   0.002  0.00  0.00    -0.910 OA
ATOM      2  S   LIG    1       -0.017   1.417   0.010  0.00  0.00    +2.400 S 
ATOM      3  C   LIG    1       -0.378   2.026   1.706  0.00  0.00    -0.290 C 
ATOM      4  C   LIG    1        0.971   1.851   2.431  0.00  0.00    +0.240 C 
ATOM      5  N   LIG    1        1.206   3.012   3.304  0.00  0.00    -0.670 N 
ATOM      6  H   LIG    1        0.635   3.289   4.037  0.00  0.00    +0.450 HD
ATOM      7  C   LIG    1        2.334   3.625   2.922  0.00  0.00    +0.560 C 
ATOM      8  N   LIG    1        2.941   3.043   1.878  0.00  0.00    -0.560 N 
ATOM      9  S   LIG    1        2.946   5.023   3.698  0.00  0.00    -0.630 S 
ATOM     10  C   LIG    1        2.155   1.859   1.456  0.00  0.00    +0.260 C 
ATOM     11  O   LIG    1       -0.806   2.127  -0.935  0.00  0.00    -0.920 OA
ATOM     12  C   LIG    1        1.703   2.063  -0.003  0.00  0.00    -0.290 C 
ENDROOT
BRANCH   8  13
ATOM     13  C   LIG    1        4.186   3.500   1.256  0.00  0.00    +0.350 C 
BRANCH  13  14
ATOM     14  C   LIG    1        5.376   2.828   1.943  0.00  0.00    +0.190 C 
BRANCH  14  15
ATOM     15  O   LIG    1        5.330   1.419   1.706  0.00  0.00    -0.580 OA
ATOM     16  H   LIG    1        6.056   0.927   2.113  0.00  0.00    +0.390 HD
ENDBRANCH  14  15
ENDBRANCH  13  14
ENDBRANCH   8  13
TORSDOF 3
ENDMDL
MODEL     1236
REMARK  Name = ZINC000012175536
REMARK                            x       y       z     vdW  Elec       q    Type
REMARK                         _______ _______ _______ _____ _____    ______ ____
ROOT
ATOM      1  O   LIG    1        0.002  -0.004   0.002  0.00  0.00    -0.910 OA
ATOM      2  S   LIG    1       -0.017   1.417   0.010  0.00  0.00    +2.400 S 
ATOM      3  C   LIG    1       -0.448   2.016   1.703  0.00  0.00    -0.290 C 
ATOM      4  C   LIG    1        0.933   2.092   2.336  0.00  0.00    +0.200 C 
ATOM      5  N   LIG    1        1.224   2.926   3.481  0.00  0.00    -0.670 N 
ATOM      6  H   LIG    1        0.630   3.139   4.218  0.00  0.00    +0.450 HD
ATOM      7  C   LIG    1        2.511   3.350   3.305  0.00  0.00    +0.560 C 
ATOM      8  N   LIG    1        2.965   3.140   2.031  0.00  0.00    -0.550 N 
ATOM      9  S   LIG    1        3.452   4.067   4.542  0.00  0.00    -0.580 S 
ATOM     10  C   LIG    1        1.791   2.846   1.269  0.00  0.00    +0.200 C 
ATOM     11  O   LIG    1       -0.787   2.121  -0.955  0.00  0.00    -0.910 OA
ATOM     12  C   LIG    1        1.713   2.054  -0.003  0.00  0.00    -0.260 C 
ENDROOT
BRANCH   8  13
ATOM     13  C   LIG    1        4.349   3.208   1.555  0.00  0.00    +0.360 C 
BRANCH  13  14
ATOM     14  C   LIG    1        5.001   1.830   1.682  0.00  0.00    +0.180 C 
BRANCH  14  15
ATOM     15  O   LIG    1        4.345   0.910   0.807  0.00  0.00    -0.580 OA
ATOM     16  H   LIG    1        4.707   0.013   0.836  0.00  0.00    +0.390 HD
ENDBRANCH  14  15
ENDBRANCH  13  14
ENDBRANCH   8  13
TORSDOF 3
ENDMDL
MODEL     1237
REMARK  Name = ZINC000012175539
REMARK                            x       y       z     vdW  Elec       q    Type
REMARK                         _______ _______ _______ _____ _____    ______ ____
ROOT
ATOM      1  O   LIG    1        0.417   0.056  -0.057  0.00  0.00    -0.910 OA
ATOM      2  S   LIG    1        0.296   1.471  -0.030  0.00  0.00    +2.400 S 
ATOM      3  C   LIG    1       -0.172   2.023   1.660  0.00  0.00    -0.300 C 
ATOM      4  C   LIG    1        1.158   1.934   2.434  0.00  0.00    +0.250 C 
ATOM      5  C   LIG    1        2.374   2.043   1.506  0.00  0.00    +0.250 C 
ATOM      6  N   LIG    1        3.063   3.260   1.964  0.00  0.00    -0.670 N 
ATOM      7  H   LIG    1        3.880   3.621   1.585  0.00  0.00    +0.450 HD
ATOM      8  C   LIG    1        2.380   3.790   2.987  0.00  0.00    +0.560 C 
ATOM      9  S   LIG    1        2.867   5.219   3.795  0.00  0.00    -0.590 S 
ATOM     10  N   LIG    1        1.276   3.093   3.332  0.00  0.00    -0.560 N 
ATOM     11  O   LIG    1       -0.506   2.139  -0.995  0.00  0.00    -0.920 OA
ATOM     12  C   LIG    1        1.964   2.239   0.033  0.00  0.00    -0.300 C 
ENDROOT
BRANCH  10  13
ATOM     13  C   LIG    1        0.350   3.446   4.411  0.00  0.00    +0.350 C 
BRANCH  13  14
ATOM     14  C   LIG    1        0.731   2.680   5.680  0.00  0.00    +0.160 C 
BRANCH  14  15
ATOM     15  O   LIG    1        2.013   3.119   6.134  0.00  0.00    -0.550 OA
ATOM     16  H   LIG    1        2.319   2.675   6.937  0.00  0.00    +0.380 HD
ENDBRANCH  14  15
ENDBRANCH  13  14
ENDBRANCH  10  13
TORSDOF 3
ENDMDL
MODEL     1238
REMARK  Name = ZINC000012175537
REMARK                            x       y       z     vdW  Elec       q    Type
REMARK                         _______ _______ _______ _____ _____    ______ ____
ROOT
ATOM      1  O   LIG    1        0.002  -0.004   0.002  0.00  0.00    -0.910 OA
ATOM      2  S   LIG    1       -0.017   1.417   0.010  0.00  0.00    +2.400 S 
ATOM      3  C   LIG    1       -0.448   2.015   1.700  0.00  0.00    -0.270 C 
ATOM      4  C   LIG    1        0.754   2.827   2.087  0.00  0.00    +0.190 C 
ATOM      5  N   LIG    1        1.230   3.099   3.410  0.00  0.00    -0.670 N 
ATOM      6  H   LIG    1        0.716   3.109   4.232  0.00  0.00    +0.450 HD
ATOM      7  C   LIG    1        2.570   3.339   3.262  0.00  0.00    +0.560 C 
ATOM      8  N   LIG    1        3.039   2.961   2.035  0.00  0.00    -0.560 N 
ATOM      9  S   LIG    1        3.549   4.038   4.480  0.00  0.00    -0.580 S 
ATOM     10  C   LIG    1        2.008   2.112   1.489  0.00  0.00    +0.210 C 
ATOM     11  O   LIG    1       -0.787   2.121  -0.955  0.00  0.00    -0.910 OA
ATOM     12  C   LIG    1        1.716   2.055  -0.003  0.00  0.00    -0.270 C 
ENDROOT
BRANCH   8  13
ATOM     13  C   LIG    1        4.320   3.324   1.424  0.00  0.00    +0.360 C 
BRANCH  13  14
ATOM     14  C   LIG    1        5.380   2.289   1.806  0.00  0.00    +0.190 C 
BRANCH  14  15
ATOM     15  O   LIG    1        5.035   1.024   1.238  0.00  0.00    -0.580 OA
ATOM     16  H   LIG    1        5.665   0.318   1.439  0.00  0.00    +0.390 HD
ENDBRANCH  14  15
ENDBRANCH  13  14
ENDBRANCH   8  13
TORSDOF 3
ENDMDL
MODEL     1239
REMARK  Name = ZINC000409432121
REMARK                            x       y       z     vdW  Elec       q    Type
REMARK                         _______ _______ _______ _____ _____    ______ ____
ROOT
ATOM      1  C   LIG    1        0.836  -0.462   1.171  0.00  0.00    +0.540 C 
ATOM      2  N   LIG    1        2.100  -0.017   1.312  0.00  0.00    -0.620 N 
ATOM      3  C   LIG    1        2.752   0.994   0.467  0.00  0.00    +0.250 C 
ATOM      4  C   LIG    1        4.179   1.200   1.018  0.00  0.00    +0.180 C 
ATOM      5  C   LIG    1        4.060   0.709   2.485  0.00  0.00    +0.260 C 
ATOM      6  C   LIG    1        3.057  -0.460   2.343  0.00  0.00    +0.280 C 
ATOM      7  O   LIG    1        0.368  -1.230   1.985  0.00  0.00    -0.520 OA
ENDROOT
BRANCH   5   8
ATOM      8  N   LIG    1        5.353   0.237   2.987  0.00  0.00    -0.450 N 
ATOM      9  C   LIG    1        6.035   0.733   4.066  0.00  0.00    +0.130 A 
ATOM     10  C   LIG    1        7.168   0.014   4.174  0.00  0.00    +0.140 A 
ATOM     11  N   LIG    1        7.178  -0.896   3.189  0.00  0.00    -0.490 NA
ATOM     12  C   LIG    1        6.091  -0.771   2.477  0.00  0.00    +0.380 A 
ENDBRANCH   5   8
BRANCH   1  14
ATOM     13  C   LIG    1       -0.695   1.312   0.356  0.00  0.00    +0.030 C 
ATOM     14  C   LIG    1        0.002  -0.004   0.002  0.00  0.00    +0.180 C 
BRANCH  14  15
ATOM     15  N   LIG    1       -1.008  -1.024  -0.309  0.00  0.00    -0.830 NA
ATOM     16  H   LIG    1       -1.580  -0.741  -1.090  0.00  0.00    +0.350 HD
ATOM     17  H   LIG    1       -1.575  -1.229   0.500  0.00  0.00    +0.360 HD
ENDBRANCH  14  15
ENDBRANCH   1  14
BRANCH   4  18
ATOM     18  O   LIG    1        4.544   2.581   0.972  0.00  0.00    -0.550 OA
ATOM     19  H   LIG    1        4.558   2.954   0.080  0.00  0.00    +0.390 HD
ENDBRANCH   4  18
TORSDOF 4
ENDMDL
MODEL     1240
REMARK  Name = ZINC000409432130
REMARK                            x       y       z     vdW  Elec       q    Type
REMARK                         _______ _______ _______ _____ _____    ______ ____
ROOT
ATOM      1  C   LIG    1       -0.018   1.461   0.010  0.00  0.00    +0.330 C 
ATOM      2  N   LIG    1        0.002  -0.004   0.002  0.00  0.00    -0.600 N 
ATOM      3  C   LIG    1        0.007  -0.758  -1.145  0.00  0.00    +0.580 C 
ATOM      4  C   LIG    1       -0.290  -2.099  -0.706  0.00  0.00    -0.070 C 
ATOM      5  C   LIG    1       -0.150  -3.498  -1.146  0.00  0.00    +0.340 C 
ATOM      6  N   LIG    1       -0.526  -4.258   0.095  0.00  0.00    -0.380 N 
ATOM      7  C   LIG    1       -0.305  -3.359   1.267  0.00  0.00    +0.330 C 
ATOM      8  H   LIG    1       -1.497  -4.527   0.050  0.00  0.00    +0.430 HD
ATOM      9  C   LIG    1        0.441  -2.143   0.695  0.00  0.00    +0.020 C 
ATOM     10  O   LIG    1        0.216  -0.381  -2.278  0.00  0.00    -0.440 OA
ATOM     11  C   LIG    1        0.023  -0.767   1.135  0.00  0.00    +0.550 C 
ATOM     12  O   LIG    1       -0.253  -0.411   2.261  0.00  0.00    -0.430 OA
ENDROOT
BRANCH   6  13
ATOM     13  C   LIG    1        0.317  -5.455   0.220  0.00  0.00    +0.180 C 
BRANCH  13  14
ATOM     14  C   LIG    1       -0.146  -6.275   1.397  0.00  0.00    +0.480 C 
ATOM     15  O   LIG    1        0.425  -7.315   1.676  0.00  0.00    -0.640 OA
ATOM     16  O   LIG    1       -1.091  -5.898   2.069  0.00  0.00    -0.670 OA
ENDBRANCH  13  14
ENDBRANCH   6  13
TORSDOF 2
ENDMDL
MODEL     1241
REMARK  Name = ZINC000409432120
REMARK                            x       y       z     vdW  Elec       q    Type
REMARK                         _______ _______ _______ _____ _____    ______ ____
ROOT
ATOM      1  C   LIG    1        0.836  -0.462   1.171  0.00  0.00    +0.540 C 
ATOM      2  N   LIG    1        2.100  -0.017   1.312  0.00  0.00    -0.620 N 
ATOM      3  C   LIG    1        2.754   0.997   0.465  0.00  0.00    +0.250 C 
ATOM      4  C   LIG    1        3.876   1.591   1.352  0.00  0.00    +0.180 C 
ATOM      5  C   LIG    1        4.359   0.336   2.126  0.00  0.00    +0.260 C 
ATOM      6  C   LIG    1        3.054  -0.459   2.340  0.00  0.00    +0.280 C 
ATOM      7  O   LIG    1        0.369  -1.230   1.985  0.00  0.00    -0.520 OA
ENDROOT
BRANCH   5   8
ATOM      8  N   LIG    1        4.952   0.716   3.411  0.00  0.00    -0.450 N 
ATOM      9  C   LIG    1        6.237   0.473   3.816  0.00  0.00    +0.140 A 
ATOM     10  C   LIG    1        6.358   0.988   5.054  0.00  0.00    +0.140 A 
ATOM     11  N   LIG    1        5.180   1.530   5.396  0.00  0.00    -0.490 NA
ATOM     12  C   LIG    1        4.334   1.375   4.415  0.00  0.00    +0.380 A 
ENDBRANCH   5   8
BRANCH   1  14
ATOM     13  C   LIG    1       -0.700   1.308   0.360  0.00  0.00    +0.020 C 
ATOM     14  C   LIG    1        0.002  -0.004   0.002  0.00  0.00    +0.180 C 
BRANCH  14  15
ATOM     15  N   LIG    1       -1.004  -1.027  -0.313  0.00  0.00    -0.830 NA
ATOM     16  H   LIG    1       -1.576  -0.743  -1.094  0.00  0.00    +0.350 HD
ATOM     17  H   LIG    1       -1.572  -1.236   0.495  0.00  0.00    +0.360 HD
ENDBRANCH  14  15
ENDBRANCH   1  14
BRANCH   4  18
ATOM     18  O   LIG    1        4.927   2.137   0.552  0.00  0.00    -0.550 OA
ATOM     19  H   LIG    1        4.647   2.863  -0.022  0.00  0.00    +0.390 HD
ENDBRANCH   4  18
TORSDOF 4
ENDMDL
MODEL     1242
REMARK  Name = ZINC000409432122
REMARK                            x       y       z     vdW  Elec       q    Type
REMARK                         _______ _______ _______ _____ _____    ______ ____
ROOT
ATOM      1  C   LIG    1        0.836  -0.462   1.171  0.00  0.00    +0.540 C 
ATOM      2  N   LIG    1        2.100  -0.017   1.312  0.00  0.00    -0.620 N 
ATOM      3  C   LIG    1        2.754   0.997   0.465  0.00  0.00    +0.250 C 
ATOM      4  C   LIG    1        3.876   1.591   1.352  0.00  0.00    +0.170 C 
ATOM      5  C   LIG    1        4.359   0.336   2.126  0.00  0.00    +0.260 C 
ATOM      6  C   LIG    1        3.054  -0.459   2.340  0.00  0.00    +0.260 C 
ATOM      7  O   LIG    1        0.369  -1.230   1.985  0.00  0.00    -0.520 OA
ENDROOT
BRANCH   5   8
ATOM      8  N   LIG    1        4.952   0.716   3.411  0.00  0.00    -0.450 N 
ATOM      9  C   LIG    1        6.237   0.473   3.816  0.00  0.00    +0.100 A 
ATOM     10  C   LIG    1        6.358   0.988   5.054  0.00  0.00    +0.150 A 
ATOM     11  N   LIG    1        5.180   1.530   5.396  0.00  0.00    -0.500 NA
ATOM     12  C   LIG    1        4.334   1.375   4.415  0.00  0.00    +0.420 A 
ENDBRANCH   5   8
BRANCH   1  14
ATOM     13  C   LIG    1       -0.700   1.308   0.360  0.00  0.00    +0.030 C 
ATOM     14  C   LIG    1        0.002  -0.004   0.002  0.00  0.00    +0.180 C 
BRANCH  14  15
ATOM     15  N   LIG    1       -1.004  -1.027  -0.313  0.00  0.00    -0.830 NA
ATOM     16  H   LIG    1       -1.576  -0.743  -1.094  0.00  0.00    +0.350 HD
ATOM     17  H   LIG    1       -1.572  -1.236   0.494  0.00  0.00    +0.360 HD
ENDBRANCH  14  15
ENDBRANCH   1  14
BRANCH   4  18
ATOM     18  O   LIG    1        3.354   2.576   2.247  0.00  0.00    -0.550 OA
ATOM     19  H   LIG    1        2.952   3.336   1.804  0.00  0.00    +0.390 HD
ENDBRANCH   4  18
TORSDOF 4
ENDMDL
MODEL     1243
REMARK  Name = ZINC000409432126
REMARK                            x       y       z     vdW  Elec       q    Type
REMARK                         _______ _______ _______ _____ _____    ______ ____
ROOT
ATOM      1  C   LIG    1       -0.018   1.461   0.010  0.00  0.00    +0.330 C 
ATOM      2  N   LIG    1        0.002  -0.004   0.002  0.00  0.00    -0.570 N 
ATOM      3  C   LIG    1        0.007  -0.722  -1.127  0.00  0.00    +0.520 C 
ATOM      4  C   LIG    1        0.028  -2.195  -0.786  0.00  0.00    +0.030 C 
ATOM      5  C   LIG    1        1.387  -2.793  -1.207  0.00  0.00    +0.300 C 
ATOM      6  N   LIG    1        2.282  -2.548  -0.048  0.00  0.00    -0.380 N 
ATOM      7  C   LIG    1        1.424  -2.806   1.137  0.00  0.00    +0.330 C 
ATOM      8  H   LIG    1        2.606  -1.592  -0.048  0.00  0.00    +0.430 HD
ATOM      9  C   LIG    1        0.035  -2.203   0.766  0.00  0.00    +0.030 C 
ATOM     10  O   LIG    1       -0.004  -0.262  -2.249  0.00  0.00    -0.450 OA
ATOM     11  C   LIG    1        0.023  -0.734   1.123  0.00  0.00    +0.520 C 
ATOM     12  O   LIG    1        0.039  -0.286   2.250  0.00  0.00    -0.440 OA
ENDROOT
BRANCH   6  13
ATOM     13  C   LIG    1        3.421  -3.476  -0.072  0.00  0.00    +0.180 C 
BRANCH  13  14
ATOM     14  C   LIG    1        4.376  -3.129   1.040  0.00  0.00    +0.480 C 
ATOM     15  O   LIG    1        5.394  -3.782   1.196  0.00  0.00    -0.640 OA
ATOM     16  O   LIG    1        4.132  -2.195   1.784  0.00  0.00    -0.670 OA
ENDBRANCH  13  14
ENDBRANCH   6  13
TORSDOF 2
ENDMDL
MODEL     1244
REMARK  Name = ZINC000409432129
REMARK                            x       y       z     vdW  Elec       q    Type
REMARK                         _______ _______ _______ _____ _____    ______ ____
ROOT
ATOM      1  C   LIG    1       -0.018   1.461   0.010  0.00  0.00    +0.330 C 
ATOM      2  N   LIG    1        0.002  -0.004   0.002  0.00  0.00    -0.600 N 
ATOM      3  C   LIG    1        0.007  -0.760  -1.144  0.00  0.00    +0.580 C 
ATOM      4  C   LIG    1        0.382  -2.102  -0.706  0.00  0.00    -0.040 C 
ATOM      5  C   LIG    1        0.070  -3.466  -1.202  0.00  0.00    +0.320 C 
ATOM      6  N   LIG    1        0.095  -4.329   0.024  0.00  0.00    -0.380 N 
ATOM      7  C   LIG    1        0.254  -3.422   1.211  0.00  0.00    +0.350 C 
ATOM      8  H   LIG    1       -0.770  -4.843   0.099  0.00  0.00    +0.440 HD
ATOM      9  C   LIG    1       -0.352  -2.134   0.694  0.00  0.00    -0.020 C 
ATOM     10  O   LIG    1       -0.243  -0.394  -2.272  0.00  0.00    -0.440 OA
ATOM     11  C   LIG    1        0.023  -0.771   1.137  0.00  0.00    +0.560 C 
ATOM     12  O   LIG    1        0.297  -0.413   2.263  0.00  0.00    -0.430 OA
ENDROOT
BRANCH   6  13
ATOM     13  C   LIG    1        1.227  -5.263  -0.046  0.00  0.00    +0.170 C 
BRANCH  13  14
ATOM     14  C   LIG    1        1.174  -6.206   1.127  0.00  0.00    +0.490 C 
ATOM     15  O   LIG    1        2.028  -7.066   1.258  0.00  0.00    -0.640 OA
ATOM     16  O   LIG    1        0.276  -6.110   1.947  0.00  0.00    -0.670 OA
ENDBRANCH  13  14
ENDBRANCH   6  13
TORSDOF 2
ENDMDL
MODEL     1245
REMARK  Name = ZINC000231937499
REMARK                            x       y       z     vdW  Elec       q    Type
REMARK                         _______ _______ _______ _____ _____    ______ ____
ROOT
ATOM      1  O   LIG    1        0.002  -0.004   0.002  0.00  0.00    -0.540 OA
ATOM      2  C   LIG    1       -0.014   1.211   0.009  0.00  0.00    +0.690 C 
ATOM      3  N   LIG    1       -1.200   1.828   0.029  0.00  0.00    -0.730 N 
ATOM      4  H   LIG    1       -2.008   1.295  -0.035  0.00  0.00    +0.420 HD
ATOM      5  C   LIG    1       -1.320   3.285   0.143  0.00  0.00    +0.260 C 
ATOM      6  C   LIG    1       -0.048   3.933  -0.421  0.00  0.00    +0.060 C 
ATOM      7  C   LIG    1        1.158   3.283   0.265  0.00  0.00    +0.130 C 
ATOM      8  C   LIG    1        1.085   3.510   1.772  0.00  0.00    +0.180 C 
ATOM      9  C   LIG    1       -0.220   2.948   2.336  0.00  0.00    +0.100 C 
ATOM     10  C   LIG    1       -1.416   3.630   1.639  0.00  0.00    +0.130 C 
ATOM     11  O   LIG    1        1.157   1.862   0.001  0.00  0.00    -0.310 OA
ENDROOT
BRANCH   9  12
ATOM     12  O   LIG    1       -0.259   1.535   2.127  0.00  0.00    -0.520 OA
ATOM     13  H   LIG    1       -1.061   1.110   2.462  0.00  0.00    +0.380 HD
ENDBRANCH   9  12
BRANCH   8  14
ATOM     14  O   LIG    1        2.189   2.857   2.401  0.00  0.00    -0.510 OA
ATOM     15  H   LIG    1        2.210   2.957   3.362  0.00  0.00    +0.370 HD
ENDBRANCH   8  14
BRANCH  10  16
ATOM     16  O   LIG    1       -2.640   3.117   2.169  0.00  0.00    -0.550 OA
ATOM     17  H   LIG    1       -2.747   3.259   3.120  0.00  0.00    +0.380 HD
ENDBRANCH  10  16
BRANCH   7  18
ATOM     18  C   LIG    1        2.445   3.909  -0.277  0.00  0.00    +0.220 C 
BRANCH  18  19
ATOM     19  O   LIG    1        3.573   3.306   0.360  0.00  0.00    -0.540 OA
ATOM     20  H   LIG    1        4.425   3.655   0.064  0.00  0.00    +0.380 HD
ENDBRANCH  18  19
ENDBRANCH   7  18
TORSDOF 5
ENDMDL
MODEL     1246
REMARK  Name = ZINC000231937494
REMARK                            x       y       z     vdW  Elec       q    Type
REMARK                         _______ _______ _______ _____ _____    ______ ____
ROOT
ATOM      1  O   LIG    1        0.002  -0.004   0.002  0.00  0.00    -0.530 OA
ATOM      2  C   LIG    1       -0.014   1.211   0.009  0.00  0.00    +0.650 C 
ATOM      3  N   LIG    1       -1.200   1.828   0.029  0.00  0.00    -0.730 N 
ATOM      4  H   LIG    1       -2.008   1.295  -0.035  0.00  0.00    +0.420 HD
ATOM      5  C   LIG    1       -1.320   3.285   0.143  0.00  0.00    +0.260 C 
ATOM      6  C   LIG    1       -0.048   3.933  -0.421  0.00  0.00    +0.070 C 
ATOM      7  C   LIG    1        1.158   3.283   0.265  0.00  0.00    +0.130 C 
ATOM      8  C   LIG    1        1.085   3.510   1.772  0.00  0.00    +0.190 C 
ATOM      9  C   LIG    1       -0.220   2.948   2.336  0.00  0.00    +0.110 C 
ATOM     10  C   LIG    1       -1.416   3.630   1.639  0.00  0.00    +0.150 C 
ATOM     11  O   LIG    1        1.157   1.862   0.001  0.00  0.00    -0.310 OA
ENDROOT
BRANCH   9  12
ATOM     12  O   LIG    1       -0.290   3.225   3.736  0.00  0.00    -0.560 OA
ATOM     13  H   LIG    1       -1.094   2.897   4.162  0.00  0.00    +0.380 HD
ENDBRANCH   9  12
BRANCH   8  14
ATOM     14  O   LIG    1        2.189   2.857   2.401  0.00  0.00    -0.520 OA
ATOM     15  H   LIG    1        2.210   2.957   3.362  0.00  0.00    +0.380 HD
ENDBRANCH   8  14
BRANCH  10  16
ATOM     16  O   LIG    1       -2.640   3.117   2.169  0.00  0.00    -0.550 OA
ATOM     17  H   LIG    1       -2.747   3.259   3.120  0.00  0.00    +0.380 HD
ENDBRANCH  10  16
BRANCH   7  18
ATOM     18  C   LIG    1        2.445   3.909  -0.277  0.00  0.00    +0.220 C 
BRANCH  18  19
ATOM     19  O   LIG    1        3.573   3.306   0.360  0.00  0.00    -0.540 OA
ATOM     20  H   LIG    1        4.425   3.655   0.064  0.00  0.00    +0.380 HD
ENDBRANCH  18  19
ENDBRANCH   7  18
TORSDOF 5
ENDMDL
MODEL     1247
REMARK  Name = ZINC000005431223
REMARK                            x       y       z     vdW  Elec       q    Type
REMARK                         _______ _______ _______ _____ _____    ______ ____
ROOT
ATOM      1  C   LIG    1        0.679  -2.115   1.088  0.00  0.00    +0.190 C 
ATOM      2  O   LIG    1        1.479  -2.516   2.203  0.00  0.00    -0.370 OA
ATOM      3  C   LIG    1        1.624  -3.932   2.337  0.00  0.00    +0.320 C 
ATOM      4  C   LIG    1        0.247  -4.566   2.549  0.00  0.00    +0.040 C 
ATOM      5  C   LIG    1       -0.661  -4.202   1.370  0.00  0.00    +0.270 C 
ATOM      6  C   LIG    1       -0.736  -2.677   1.249  0.00  0.00    +0.160 C 
ENDROOT
BRANCH   5   7
ATOM      7  N   LIG    1       -2.003  -4.745   1.598  0.00  0.00    -0.720 N 
ATOM      8  H   LIG    1       -2.689  -4.188   1.998  0.00  0.00    +0.410 HD
ATOM      9  C   LIG    1       -2.283  -6.017   1.253  0.00  0.00    +0.510 C 
ATOM     10  O   LIG    1       -1.425  -6.713   0.753  0.00  0.00    -0.540 OA
ATOM     11  C   LIG    1       -3.663  -6.574   1.489  0.00  0.00    +0.110 C 
ENDBRANCH   5   7
BRANCH   1  12
ATOM     12  C   LIG    1        0.618  -0.611   1.029  0.00  0.00    +0.460 C 
ATOM     13  O   LIG    1        1.124   0.049   1.905  0.00  0.00    -0.470 OA
BRANCH  12  15
ATOM     14  C   LIG    1       -0.018   1.448   0.010  0.00  0.00    +0.290 C 
ATOM     15  O   LIG    1        0.002  -0.004   0.002  0.00  0.00    -0.360 OA
ENDBRANCH  12  15
ENDBRANCH   1  12
BRANCH   3  16
ATOM     16  O   LIG    1        2.459  -4.220   3.460  0.00  0.00    -0.360 OA
ATOM     17  C   LIG    1        3.806  -3.767   3.314  0.00  0.00    +0.220 C 
ENDBRANCH   3  16
BRANCH   6  18
ATOM     18  O   LIG    1       -1.336  -2.134   2.427  0.00  0.00    -0.540 OA
ATOM     19  H   LIG    1       -1.415  -1.171   2.419  0.00  0.00    +0.380 HD
ENDBRANCH   6  18
TORSDOF 5
ENDMDL
MODEL     1248
REMARK  Name = ZINC000409433948
REMARK                            x       y       z     vdW  Elec       q    Type
REMARK                         _______ _______ _______ _____ _____    ______ ____
ROOT
ATOM      1  N   LIG    1        0.688  -0.476  -1.203  0.00  0.00    -0.600 N 
ATOM      2  C   LIG    1        0.051  -0.727  -2.393  0.00  0.00    +0.570 C 
ATOM      3  C   LIG    1        1.125  -0.824  -3.379  0.00  0.00    -0.070 C 
ATOM      4  C   LIG    1        1.285  -1.576  -4.650  0.00  0.00    +0.250 C 
ATOM      5  N   LIG    1        2.758  -1.839  -4.749  0.00  0.00    -0.490 NA
ATOM      6  C   LIG    1        3.385  -1.383  -3.463  0.00  0.00    +0.260 C 
ATOM      7  C   LIG    1        2.231  -1.523  -2.493  0.00  0.00    -0.010 C 
ATOM      8  O   LIG    1       -1.140  -0.843  -2.584  0.00  0.00    -0.460 OA
ATOM      9  C   LIG    1        2.036  -0.712  -1.269  0.00  0.00    +0.550 C 
ATOM     10  O   LIG    1        2.889  -0.331  -0.495  0.00  0.00    -0.460 OA
ENDROOT
BRANCH   1  12
ATOM     11  C   LIG    1       -0.019   1.526   0.010  0.00  0.00    +0.030 C 
ATOM     12  C   LIG    1        0.002  -0.004   0.002  0.00  0.00    +0.290 C 
ENDBRANCH   1  12
BRANCH   5  13
ATOM     13  C   LIG    1        3.342  -1.135  -5.899  0.00  0.00    +0.280 C 
BRANCH  13  14
ATOM     14  C   LIG    1        4.755  -1.610  -6.114  0.00  0.00    +0.410 C 
ATOM     15  N   LIG    1        5.261  -2.509  -5.334  0.00  0.00    -0.720 NA
ATOM     16  H   LIG    1        6.171  -2.815  -5.472  0.00  0.00    +0.340 HD
BRANCH  14  17
ATOM     17  N   LIG    1        5.505  -1.091  -7.136  0.00  0.00    -0.640 N 
ATOM     18  H   LIG    1        5.125  -0.417  -7.722  0.00  0.00    +0.400 HD
BRANCH  17  19
ATOM     19  O   LIG    1        6.833  -1.538  -7.339  0.00  0.00    -0.330 OA
ATOM     20  H   LIG    1        7.282  -1.114  -8.083  0.00  0.00    +0.390 HD
ENDBRANCH  17  19
ENDBRANCH  14  17
ENDBRANCH  13  14
ENDBRANCH   5  13
TORSDOF 5
ENDMDL
MODEL     1249
REMARK  Name = ZINC000409433946
REMARK                            x       y       z     vdW  Elec       q    Type
REMARK                         _______ _______ _______ _____ _____    ______ ____
ROOT
ATOM      1  N   LIG    1        0.688  -0.476  -1.203  0.00  0.00    -0.570 N 
ATOM      2  C   LIG    1        0.047  -0.715  -2.354  0.00  0.00    +0.530 C 
ATOM      3  C   LIG    1        1.040  -1.188  -3.392  0.00  0.00    +0.020 C 
ATOM      4  C   LIG    1        1.182  -0.110  -4.487  0.00  0.00    +0.210 C 
ATOM      5  N   LIG    1        2.646   0.017  -4.703  0.00  0.00    -0.470 NA
ATOM      6  C   LIG    1        3.225  -0.074  -3.338  0.00  0.00    +0.230 C 
ATOM      7  C   LIG    1        2.390  -1.181  -2.626  0.00  0.00    +0.030 C 
ATOM      8  O   LIG    1       -1.143  -0.573  -2.536  0.00  0.00    -0.470 OA
ATOM      9  C   LIG    1        2.006  -0.700  -1.245  0.00  0.00    +0.530 C 
ATOM     10  O   LIG    1        2.775  -0.532  -0.323  0.00  0.00    -0.470 OA
ENDROOT
BRANCH   1  12
ATOM     11  C   LIG    1       -0.019   1.526   0.010  0.00  0.00    +0.030 C 
ATOM     12  C   LIG    1        0.002  -0.004   0.002  0.00  0.00    +0.290 C 
ENDBRANCH   1  12
BRANCH   5  13
ATOM     13  C   LIG    1        2.976   1.304  -5.329  0.00  0.00    +0.280 C 
BRANCH  13  14
ATOM     14  C   LIG    1        4.421   1.300  -5.756  0.00  0.00    +0.420 C 
ATOM     15  N   LIG    1        5.155   0.256  -5.544  0.00  0.00    -0.720 NA
ATOM     16  H   LIG    1        6.085   0.253  -5.819  0.00  0.00    +0.340 HD
BRANCH  14  17
ATOM     17  N   LIG    1        4.959   2.401  -6.368  0.00  0.00    -0.640 N 
ATOM     18  H   LIG    1        4.409   3.184  -6.527  0.00  0.00    +0.400 HD
BRANCH  17  19
ATOM     19  O   LIG    1        6.317   2.397  -6.768  0.00  0.00    -0.330 OA
ATOM     20  H   LIG    1        6.605   3.218  -7.191  0.00  0.00    +0.390 HD
ENDBRANCH  17  19
ENDBRANCH  14  17
ENDBRANCH  13  14
ENDBRANCH   5  13
TORSDOF 5
ENDMDL
MODEL     1250
REMARK  Name = ZINC000409433944
REMARK                            x       y       z     vdW  Elec       q    Type
REMARK                         _______ _______ _______ _____ _____    ______ ____
ROOT
ATOM      1  N   LIG    1        0.688  -0.476  -1.203  0.00  0.00    -0.600 N 
ATOM      2  C   LIG    1        0.049  -0.727  -2.393  0.00  0.00    +0.580 C 
ATOM      3  C   LIG    1        1.012  -1.456  -3.181  0.00  0.00    -0.060 C 
ATOM      4  C   LIG    1        1.312  -1.793  -4.583  0.00  0.00    +0.260 C 
ATOM      5  N   LIG    1        2.683  -2.400  -4.475  0.00  0.00    -0.490 NA
ATOM      6  C   LIG    1        3.312  -1.888  -3.221  0.00  0.00    +0.260 C 
ATOM      7  C   LIG    1        2.368  -0.779  -2.731  0.00  0.00    -0.020 C 
ATOM      8  O   LIG    1       -1.075  -0.405  -2.711  0.00  0.00    -0.460 OA
ATOM      9  C   LIG    1        2.032  -0.710  -1.267  0.00  0.00    +0.550 C 
ATOM     10  O   LIG    1        2.794  -0.849  -0.334  0.00  0.00    -0.460 OA
ENDROOT
BRANCH   1  12
ATOM     11  C   LIG    1       -0.019   1.526   0.010  0.00  0.00    +0.030 C 
ATOM     12  C   LIG    1        0.002  -0.004   0.002  0.00  0.00    +0.280 C 
ENDBRANCH   1  12
BRANCH   5  13
ATOM     13  C   LIG    1        3.501  -2.066  -5.648  0.00  0.00    +0.290 C 
BRANCH  13  14
ATOM     14  C   LIG    1        4.768  -2.882  -5.627  0.00  0.00    +0.410 C 
ATOM     15  N   LIG    1        4.983  -3.717  -4.663  0.00  0.00    -0.720 NA
ATOM     16  H   LIG    1        5.798  -4.242  -4.649  0.00  0.00    +0.340 HD
BRANCH  14  17
ATOM     17  N   LIG    1        5.692  -2.739  -6.628  0.00  0.00    -0.640 N 
ATOM     18  H   LIG    1        5.530  -2.113  -7.351  0.00  0.00    +0.400 HD
BRANCH  17  19
ATOM     19  O   LIG    1        6.882  -3.506  -6.608  0.00  0.00    -0.330 OA
ATOM     20  H   LIG    1        7.472  -3.336  -7.355  0.00  0.00    +0.390 HD
ENDBRANCH  17  19
ENDBRANCH  14  17
ENDBRANCH  13  14
ENDBRANCH   5  13
TORSDOF 5
ENDMDL
MODEL     1251
REMARK  Name = ZINC000018036401
REMARK                            x       y       z     vdW  Elec       q    Type
REMARK                         _______ _______ _______ _____ _____    ______ ____
ROOT
ATOM      1  C   LIG    1       -1.416  -2.035  -0.119  0.00  0.00    +0.120 A 
ATOM      2  C   LIG    1       -2.066  -2.817   0.830  0.00  0.00    +0.210 A 
ATOM      3  N   LIG    1       -2.063  -4.131   0.731  0.00  0.00    -0.360 NA
ATOM      4  C   LIG    1       -1.433  -4.710  -0.282  0.00  0.00    -0.070 A 
ATOM      5  C   LIG    1       -1.399  -6.174  -0.439  0.00  0.00    +0.580 A 
ATOM      6  N   LIG    1       -0.731  -6.672  -1.506  0.00  0.00    -0.660 N 
ATOM      7  H   LIG    1       -0.688  -7.632  -1.642  0.00  0.00    +0.420 HD
ATOM      8  C   LIG    1       -0.120  -5.834  -2.391  0.00  0.00    +0.670 A 
ATOM      9  N   LIG    1       -0.137  -4.530  -2.271  0.00  0.00    -0.570 NA
ATOM     10  O   LIG    1       -1.950  -6.908   0.359  0.00  0.00    -0.470 OA
ATOM     11  C   LIG    1       -0.770  -3.921  -1.250  0.00  0.00    +0.360 A 
ATOM     12  N   LIG    1       -0.789  -2.593  -1.136  0.00  0.00    -0.400 NA
ENDROOT
BRANCH   8  13
ATOM     13  N   LIG    1        0.545  -6.383  -3.457  0.00  0.00    -0.810 N 
ATOM     14  H   LIG    1        0.988  -5.808  -4.100  0.00  0.00    +0.430 HD
ATOM     15  H   LIG    1        0.572  -7.346  -3.568  0.00  0.00    +0.420 HD
ENDBRANCH   8  13
BRANCH   1  16
ATOM     16  C   LIG    1       -1.433  -0.534   0.013  0.00  0.00    +0.300 C 
BRANCH  16  18
ATOM     17  C   LIG    1       -0.019   1.526   0.010  0.00  0.00    +0.020 C 
ATOM     18  C   LIG    1        0.002  -0.004   0.002  0.00  0.00    +0.130 C 
BRANCH  18  19
ATOM     19  O   LIG    1        0.671  -0.465  -1.174  0.00  0.00    -0.540 OA
ATOM     20  H   LIG    1        1.588  -0.167  -1.247  0.00  0.00    +0.380 HD
ENDBRANCH  18  19
ENDBRANCH  16  18
BRANCH  16  21
ATOM     21  O   LIG    1       -2.158   0.032  -1.081  0.00  0.00    -0.540 OA
ATOM     22  H   LIG    1       -1.785  -0.173  -1.949  0.00  0.00    +0.390 HD
ENDBRANCH  16  21
ENDBRANCH   1  16
TORSDOF 5
ENDMDL
MODEL     1252
REMARK  Name = ZINC000308677660
REMARK                            x       y       z     vdW  Elec       q    Type
REMARK                         _______ _______ _______ _____ _____    ______ ____
ROOT
ATOM      1  C   LIG    1       -0.019   1.526   0.010  0.00  0.00    +0.090 C 
ATOM      2  C   LIG    1        0.002  -0.004   0.002  0.00  0.00    +0.240 C 
ATOM      3  O   LIG    1        0.750  -0.486  -1.135  0.00  0.00    -0.340 OA
ATOM      4  C   LIG    1        1.095  -1.839  -0.758  0.00  0.00    +0.140 C 
ATOM      5  C   LIG    1        1.348  -1.719   0.774  0.00  0.00    +0.150 C 
ATOM      6  C   LIG    1        2.873  -1.532   0.890  0.00  0.00    +0.140 C 
ATOM      7  O   LIG    1        3.383  -1.387  -0.446  0.00  0.00    -0.390 OA
ATOM      8  C   LIG    1        2.499  -2.160  -1.325  0.00  0.00    +0.350 C 
ATOM      9  C   LIG    1       -1.427  -0.551  -0.033  0.00  0.00    +0.040 C 
ATOM     10  O   LIG    1        0.695  -0.498   1.162  0.00  0.00    -0.340 OA
ENDROOT
BRANCH   8  11
ATOM     11  O   LIG    1        2.630  -1.724  -2.680  0.00  0.00    -0.520 OA
ATOM     12  H   LIG    1        3.518  -1.837  -3.045  0.00  0.00    +0.390 HD
ENDBRANCH   8  11
BRANCH   6  13
ATOM     13  C   LIG    1        3.182  -0.278   1.710  0.00  0.00    +0.250 C 
BRANCH  13  14
ATOM     14  O   LIG    1        2.623  -0.413   3.018  0.00  0.00    -0.530 OA
ATOM     15  H   LIG    1        2.963  -1.170   3.515  0.00  0.00    +0.370 HD
ENDBRANCH  13  14
BRANCH  13  16
ATOM     16  C   LIG    1        4.698  -0.101   1.819  0.00  0.00    +0.160 C 
BRANCH  16  17
ATOM     17  O   LIG    1        4.988   1.130   2.484  0.00  0.00    -0.560 OA
ATOM     18  H   LIG    1        5.933   1.308   2.589  0.00  0.00    +0.380 HD
ENDBRANCH  16  17
ENDBRANCH  13  16
ENDBRANCH   6  13
TORSDOF 5
ENDMDL
MODEL     1253
REMARK  Name = ZINC000005045597
REMARK                            x       y       z     vdW  Elec       q    Type
REMARK                         _______ _______ _______ _____ _____    ______ ____
ROOT
ATOM      1  O   LIG    1        0.002  -0.004   0.002  0.00  0.00    -0.420 OA
ATOM      2  C   LIG    1       -0.014   1.204   0.009  0.00  0.00    +0.450 C 
ATOM      3  O   LIG    1       -1.162   1.857   0.029  0.00  0.00    -0.350 OA
ATOM      4  C   LIG    1       -1.233   3.012  -0.865  0.00  0.00    +0.240 C 
ATOM      5  C   LIG    1       -1.427   2.515  -2.301  0.00  0.00    +0.120 C 
ATOM      6  C   LIG    1       -0.133   1.824  -2.783  0.00  0.00    +0.200 C 
ATOM      7  C   LIG    1        1.100   2.628  -2.404  0.00  0.00    +0.200 C 
ATOM      8  C   LIG    1        1.930   1.838  -1.373  0.00  0.00    +0.170 C 
ATOM      9  C   LIG    1        1.280   1.988   0.001  0.00  0.00    +0.110 C 
ENDROOT
BRANCH   8  10
ATOM     10  O   LIG    1        1.963   0.458  -1.742  0.00  0.00    -0.540 OA
ATOM     11  H   LIG    1        2.470  -0.100  -1.135  0.00  0.00    +0.390 HD
ENDBRANCH   8  10
BRANCH   7  12
ATOM     12  O   LIG    1        1.891   2.866  -3.571  0.00  0.00    -0.520 OA
ATOM     13  H   LIG    1        2.696   3.375  -3.403  0.00  0.00    +0.380 HD
ENDBRANCH   7  12
BRANCH   6  14
ATOM     14  O   LIG    1       -0.180   1.683  -4.204  0.00  0.00    -0.520 OA
ATOM     15  H   LIG    1       -0.925   1.156  -4.523  0.00  0.00    +0.370 HD
ENDBRANCH   6  14
BRANCH   5  16
ATOM     16  O   LIG    1       -1.721   3.624  -3.154  0.00  0.00    -0.530 OA
ATOM     17  H   LIG    1       -2.522   4.107  -2.908  0.00  0.00    +0.380 HD
ENDBRANCH   5  16
BRANCH   9  18
ATOM     18  O   LIG    1        2.162   1.482   1.005  0.00  0.00    -0.530 OA
ATOM     19  H   LIG    1        1.812   1.546   1.904  0.00  0.00    +0.390 HD
ENDBRANCH   9  18
TORSDOF 5
ENDMDL
MODEL     1254
REMARK  Name = ZINC000006200032
REMARK                            x       y       z     vdW  Elec       q    Type
REMARK                         _______ _______ _______ _____ _____    ______ ____
ROOT
ATOM      1  C   LIG    1        0.518  -1.966  -1.135  0.00  0.00    +0.140 C 
ATOM      2  C   LIG    1        0.494  -0.458  -0.879  0.00  0.00    +0.120 C 
ENDROOT
BRANCH   1   3
ATOM      3  C   LIG    1        0.465  -2.700   0.180  0.00  0.00    +0.440 C 
ATOM      4  O   LIG    1        1.489  -3.057   0.714  0.00  0.00    -0.510 OA
BRANCH   3   6
ATOM      5  C   LIG    1       -0.693  -3.667   2.025  0.00  0.00    +0.280 C 
ATOM      6  O   LIG    1       -0.719  -2.957   0.759  0.00  0.00    -0.340 OA
ENDBRANCH   3   6
ENDBRANCH   1   3
BRANCH   1   7
ATOM      7  C   LIG    1        1.804  -2.338  -1.875  0.00  0.00    +0.140 C 
ATOM      8  C   LIG    1        1.788  -1.713  -3.272  0.00  0.00    +0.120 C 
BRANCH   7   9
ATOM      9  C   LIG    1        1.898  -3.837  -1.997  0.00  0.00    +0.440 C 
ATOM     10  O   LIG    1        0.894  -4.510  -1.975  0.00  0.00    -0.510 OA
BRANCH   9  11
ATOM     11  O   LIG    1        3.097  -4.426  -2.130  0.00  0.00    -0.340 OA
ATOM     12  C   LIG    1        3.112  -5.874  -2.242  0.00  0.00    +0.280 C 
ENDBRANCH   9  11
ENDBRANCH   7   9
BRANCH   7  13
ATOM     13  O   LIG    1        2.932  -1.848  -1.147  0.00  0.00    -0.530 OA
ATOM     14  H   LIG    1        3.069  -2.284  -0.295  0.00  0.00    +0.390 HD
ENDBRANCH   7  13
ENDBRANCH   1   7
BRANCH   1  15
ATOM     15  O   LIG    1       -0.612  -2.332  -1.930  0.00  0.00    -0.530 OA
ATOM     16  H   LIG    1       -0.723  -3.287  -2.039  0.00  0.00    +0.390 HD
ENDBRANCH   1  15
TORSDOF 7
ENDMDL
MODEL     1255
REMARK  Name = ZINC000017140164
REMARK                            x       y       z     vdW  Elec       q    Type
REMARK                         _______ _______ _______ _____ _____    ______ ____
ROOT
ATOM      1  C   LIG    1        0.746  -1.888  -1.280  0.00  0.00    +0.420 C 
ATOM      2  N   LIG    1       -0.566  -2.409  -1.640  0.00  0.00    -0.720 N 
ATOM      3  H   LIG    1       -1.238  -2.494  -0.945  0.00  0.00    +0.410 HD
ATOM      4  C   LIG    1       -0.884  -2.775  -2.885  0.00  0.00    +0.530 C 
ATOM      5  C   LIG    1        0.082  -2.683  -4.028  0.00  0.00    +0.410 C 
ATOM      6  N   LIG    1        1.457  -2.611  -3.554  0.00  0.00    -0.720 N 
ATOM      7  H   LIG    1        2.173  -2.834  -4.169  0.00  0.00    +0.410 HD
ATOM      8  O   LIG    1       -2.000  -3.198  -3.100  0.00  0.00    -0.500 OA
ATOM      9  C   LIG    1        1.775  -2.250  -2.308  0.00  0.00    +0.540 C 
ATOM     10  O   LIG    1        2.946  -2.214  -1.994  0.00  0.00    -0.500 OA
ENDROOT
BRANCH   1  11
ATOM     11  O   LIG    1        0.671  -0.465  -1.174  0.00  0.00    -0.380 OA
BRANCH  11  13
ATOM     12  C   LIG    1       -0.019   1.526   0.010  0.00  0.00    +0.060 C 
ATOM     13  C   LIG    1        0.002  -0.004   0.002  0.00  0.00    +0.170 C 
ENDBRANCH  11  13
ENDBRANCH   1  11
BRANCH   5  14
ATOM     14  O   LIG    1       -0.065  -3.837  -4.859  0.00  0.00    -0.360 OA
BRANCH  14  15
ATOM     15  C   LIG    1        0.642  -3.755  -6.098  0.00  0.00    +0.160 C 
ATOM     16  C   LIG    1        0.414  -5.037  -6.901  0.00  0.00    +0.070 C 
ENDBRANCH  14  15
ENDBRANCH   5  14
TORSDOF 4
ENDMDL
MODEL     1256
REMARK  Name = ZINC000004403643
REMARK                            x       y       z     vdW  Elec       q    Type
REMARK                         _______ _______ _______ _____ _____    ______ ____
ROOT
ATOM      1  O   LIG    1        0.002  -0.004   0.002  0.00  0.00    -0.440 OA
ATOM      2  C   LIG    1       -0.014   1.204   0.009  0.00  0.00    +0.460 C 
ATOM      3  O   LIG    1       -1.121   1.960   0.029  0.00  0.00    -0.310 OA
ATOM      4  C   LIG    1       -0.802   3.296   0.519  0.00  0.00    +0.170 C 
ATOM      5  C   LIG    1        0.659   3.531   0.071  0.00  0.00    +0.190 C 
ATOM      6  C   LIG    1        1.212   2.091   0.002  0.00  0.00    +0.120 C 
ENDROOT
BRANCH   5   7
ATOM      7  O   LIG    1        0.703   4.166  -1.208  0.00  0.00    -0.530 OA
ATOM      8  H   LIG    1        1.598   4.336  -1.533  0.00  0.00    +0.390 HD
ENDBRANCH   5   7
BRANCH   6   9
ATOM      9  O   LIG    1        1.951   1.900  -1.206  0.00  0.00    -0.530 OA
ATOM     10  H   LIG    1        2.322   1.012  -1.304  0.00  0.00    +0.400 HD
ENDBRANCH   6   9
BRANCH   4  11
ATOM     11  C   LIG    1       -1.732   4.333  -0.113  0.00  0.00    +0.220 C 
BRANCH  11  12
ATOM     12  O   LIG    1       -1.379   5.637   0.355  0.00  0.00    -0.530 OA
ATOM     13  H   LIG    1       -1.445   5.742   1.314  0.00  0.00    +0.380 HD
ENDBRANCH  11  12
BRANCH  11  14
ATOM     14  C   LIG    1       -3.179   4.026   0.276  0.00  0.00    +0.190 C 
BRANCH  14  15
ATOM     15  O   LIG    1       -3.531   2.723  -0.192  0.00  0.00    -0.530 OA
ATOM     16  H   LIG    1       -3.466   2.618  -1.151  0.00  0.00    +0.380 HD
ENDBRANCH  14  15
BRANCH  14  17
ATOM     17  C   LIG    1       -4.109   5.064  -0.356  0.00  0.00    +0.160 C 
BRANCH  17  18
ATOM     18  O   LIG    1       -5.445   4.847   0.101  0.00  0.00    -0.570 OA
ATOM     19  H   LIG    1       -6.090   5.470  -0.261  0.00  0.00    +0.380 HD
ENDBRANCH  17  18
ENDBRANCH  14  17
ENDBRANCH  11  14
ENDBRANCH   4  11
TORSDOF 8
ENDMDL
MODEL     1257
REMARK  Name = ZINC000001586282
REMARK                            x       y       z     vdW  Elec       q    Type
REMARK                         _______ _______ _______ _____ _____    ______ ____
ROOT
ATOM      1  C   LIG    1       -1.244  -2.135   0.003  0.00  0.00    +0.130 C 
ATOM      2  C   LIG    1       -0.571  -2.660  -1.241  0.00  0.00    +0.510 C 
ATOM      3  N   LIG    1       -1.268  -2.769  -2.387  0.00  0.00    -0.660 N 
ATOM      4  H   LIG    1       -0.814  -3.045  -3.199  0.00  0.00    +0.440 HD
ATOM      5  C   LIG    1       -2.584  -2.501  -2.424  0.00  0.00    +0.710 C 
ATOM      6  N   LIG    1       -3.303  -2.349  -1.300  0.00  0.00    -0.720 N 
ATOM      7  H   LIG    1       -4.232  -2.075  -1.360  0.00  0.00    +0.440 HD
ATOM      8  O   LIG    1       -3.138  -2.394  -3.501  0.00  0.00    -0.530 OA
ATOM      9  O   LIG    1        0.597  -2.983  -1.209  0.00  0.00    -0.440 OA
ATOM     10  F   LIG    1       -0.590  -2.634   1.134  0.00  0.00    -0.120 F 
ATOM     11  C   LIG    1       -2.705  -2.591   0.014  0.00  0.00    +0.420 C 
ENDROOT
BRANCH   1  12
ATOM     12  C   LIG    1       -1.185  -0.630   0.010  0.00  0.00    +0.460 C 
ATOM     13  O   LIG    1       -2.208   0.015   0.023  0.00  0.00    -0.460 OA
BRANCH  12  15
ATOM     14  C   LIG    1       -0.018   1.448   0.010  0.00  0.00    +0.290 C 
ATOM     15  O   LIG    1        0.002  -0.004   0.002  0.00  0.00    -0.330 OA
ENDBRANCH  12  15
ENDBRANCH   1  12
BRANCH  11  16
ATOM     16  O   LIG    1       -2.765  -3.986   0.315  0.00  0.00    -0.380 OA
ATOM     17  C   LIG    1       -4.085  -4.468   0.574  0.00  0.00    +0.240 C 
ENDBRANCH  11  16
TORSDOF 3
ENDMDL
MODEL     1258
REMARK  Name = ZINC000000895539
REMARK                            x       y       z     vdW  Elec       q    Type
REMARK                         _______ _______ _______ _____ _____    ______ ____
ROOT
ATOM      1  C   LIG    1       -1.136  -2.159   0.001  0.00  0.00    +0.250 C 
ATOM      2  C   LIG    1       -1.020  -2.661  -1.440  0.00  0.00    +0.290 C 
ATOM      3  O   LIG    1       -1.059  -4.089  -1.450  0.00  0.00    -0.350 OA
ATOM      4  C   LIG    1       -2.269  -4.644  -0.930  0.00  0.00    +0.150 C 
ATOM      5  C   LIG    1       -2.435  -4.221   0.532  0.00  0.00    +0.130 C 
ATOM      6  C   LIG    1       -2.433  -2.692   0.618  0.00  0.00    +0.180 C 
ENDROOT
BRANCH   1   9
ATOM      7  C   LIG    1       -0.018   1.503   0.010  0.00  0.00    +0.100 C 
ATOM      8  C   LIG    1        0.002  -0.004   0.002  0.00  0.00    +0.500 C 
ATOM      9  N   LIG    1       -1.156  -0.694   0.009  0.00  0.00    -0.720 N 
ATOM     10  H   LIG    1       -2.002  -0.220   0.020  0.00  0.00    +0.400 HD
ATOM     11  O   LIG    1        1.060  -0.596  -0.011  0.00  0.00    -0.510 OA
ENDBRANCH   1   9
BRANCH   2  12
ATOM     12  N   LIG    1        0.250  -2.201  -2.019  0.00  0.00    -0.820 NA
ATOM     13  H   LIG    1        0.330  -1.197  -1.963  0.00  0.00    +0.360 HD
ATOM     14  H   LIG    1        0.350  -2.520  -2.971  0.00  0.00    +0.350 HD
ENDBRANCH   2  12
BRANCH   5  15
ATOM     15  O   LIG    1       -3.672  -4.727   1.038  0.00  0.00    -0.560 OA
ATOM     16  H   LIG    1       -3.744  -5.691   1.010  0.00  0.00    +0.390 HD
ENDBRANCH   5  15
BRANCH   6  17
ATOM     17  O   LIG    1       -2.516  -2.290   1.987  0.00  0.00    -0.550 OA
ATOM     18  H   LIG    1       -3.312  -2.599   2.440  0.00  0.00    +0.390 HD
ENDBRANCH   6  17
BRANCH   4  19
ATOM     19  C   LIG    1       -2.210  -6.170  -1.017  0.00  0.00    +0.200 C 
BRANCH  19  20
ATOM     20  O   LIG    1       -2.171  -6.568  -2.389  0.00  0.00    -0.560 OA
ATOM     21  H   LIG    1       -2.133  -7.525  -2.520  0.00  0.00    +0.390 HD
ENDBRANCH  19  20
ENDBRANCH   4  19
TORSDOF 6
ENDMDL
MODEL     1259
REMARK  Name = ZINC000214657175
REMARK                            x       y       z     vdW  Elec       q    Type
REMARK                         _______ _______ _______ _____ _____    ______ ____
ROOT
ATOM      1  C   LIG    1        0.002  -0.004   0.002  0.00  0.00    +0.480 A 
ATOM      2  C   LIG    1       -1.208  -0.728   0.004  0.00  0.00    -0.110 A 
ATOM      3  N   LIG    1       -2.502  -0.372   0.012  0.00  0.00    -0.460 NA
ATOM      4  C   LIG    1       -3.233  -1.466   0.009  0.00  0.00    +0.380 C 
ATOM      5  N   LIG    1       -2.455  -2.538  -0.000  0.00  0.00    -0.460 NA
ATOM      6  C   LIG    1       -1.184  -2.139  -0.004  0.00  0.00    +0.010 A 
ATOM      7  C   LIG    1        0.098  -2.850  -0.015  0.00  0.00    +0.430 A 
ATOM      8  C   LIG    1        1.312  -2.126  -0.018  0.00  0.00    -0.110 A 
ATOM      9  N   LIG    1        2.512  -2.818  -0.029  0.00  0.00    -0.620 N 
ATOM     10  H   LIG    1        2.518  -3.788  -0.034  0.00  0.00    +0.410 HD
ATOM     11  C   LIG    1        3.673  -2.128  -0.031  0.00  0.00    +0.460 C 
ATOM     12  C   LIG    1        3.617  -0.645  -0.023  0.00  0.00    +0.490 C 
ATOM     13  N   LIG    1        2.434  -0.036  -0.012  0.00  0.00    -0.580 NA
ATOM     14  O   LIG    1        4.646   0.010  -0.025  0.00  0.00    -0.420 OA
ATOM     15  O   LIG    1        4.741  -2.710  -0.041  0.00  0.00    -0.490 OA
ATOM     16  C   LIG    1        1.300  -0.733  -0.014  0.00  0.00    +0.290 A 
ENDROOT
BRANCH   1  17
ATOM     17  N   LIG    1       -0.016   1.339   0.009  0.00  0.00    -0.680 N 
ATOM     18  H   LIG    1       -0.863   1.813   0.016  0.00  0.00    +0.440 HD
ATOM     19  H   LIG    1        0.817   1.836   0.004  0.00  0.00    +0.440 HD
ENDBRANCH   1  17
BRANCH   7  20
ATOM     20  N   LIG    1        0.119  -4.210  -0.023  0.00  0.00    -0.760 N 
ATOM     21  H   LIG    1        0.967  -4.682  -0.030  0.00  0.00    +0.420 HD
ATOM     22  H   LIG    1       -0.713  -4.708  -0.021  0.00  0.00    +0.430 HD
ENDBRANCH   7  20
TORSDOF 2
ENDMDL
MODEL     1260
REMARK  Name = ZINC000012503751
REMARK                            x       y       z     vdW  Elec       q    Type
REMARK                         _______ _______ _______ _____ _____    ______ ____
ROOT
ATOM      1  C1*   U A  1        0.071   5.388   0.412  0.00  0.00    +0.430 C 
ATOM      2  C2*   U A  1        1.097   5.930   1.432  0.00  0.00    +0.000 C 
ATOM      3  C3*   U A  1        1.716   7.157   0.726  0.00  0.00    +0.160 C 
ATOM      4  C4*   U A  1        0.992   7.211  -0.637  0.00  0.00    +0.180 C 
ATOM      5  O4*   U A  1        0.540   5.858  -0.871  0.00  0.00    -0.350 OA
ENDROOT
BRANCH   1  10
ATOM      6  O4    U A  1        0.002  -0.004   0.002  0.00  0.00    -0.500 OA
ATOM      7  C4    U A  1       -0.014   1.208   0.009  0.00  0.00    +0.520 C 
ATOM      8  C5    U A  1       -1.330   1.945   0.032  0.00  0.00    +0.090 C 
ATOM      9  C6    U A  1       -1.174   3.228   0.850  0.00  0.00    +0.300 C 
ATOM     10  N1    U A  1        0.048   3.923   0.441  0.00  0.00    -0.610 N 
ATOM     11  C2    U A  1        1.149   3.237   0.093  0.00  0.00    +0.710 C 
ATOM     12  O2    U A  1        2.176   3.843  -0.141  0.00  0.00    -0.540 OA
ATOM     13  N3    U A  1        1.141   1.897   0.001  0.00  0.00    -0.680 N 
ATOM     14  H3    U A  1        1.982   1.419  -0.079  0.00  0.00    +0.430 HD
ENDBRANCH   1  10
BRANCH   3  15
ATOM     15  O3*   U A  1        1.465   8.347   1.477  0.00  0.00    -0.560 OA
ATOM     16  H3*   U A  1        1.848   8.340   2.365  0.00  0.00    +0.390 HD
ENDBRANCH   3  15
BRANCH   4  17
ATOM     17  C5*   U A  1        1.960   7.649  -1.738  0.00  0.00    +0.210 C 
BRANCH  17  18
ATOM     18  O5*   U A  1        1.246   7.805  -2.966  0.00  0.00    -0.570 OA
ATOM     19  H5*   U A  1        1.799   8.082  -3.709  0.00  0.00    +0.380 HD
ENDBRANCH  17  18
ENDBRANCH   4  17
TORSDOF 4
ENDMDL
MODEL     1261
REMARK  Name = ZINC000001723458
REMARK                            x       y       z     vdW  Elec       q    Type
REMARK                         _______ _______ _______ _____ _____    ______ ____
ROOT
ATOM      1  C   LIG    1        0.657  -2.104  -1.120  0.00  0.00    -0.160 C 
ATOM      2  C   LIG    1        1.480  -2.734   0.023  0.00  0.00    +0.330 C 
ATOM      3  O   LIG    1        2.223  -3.826  -0.597  0.00  0.00    -0.330 OA
ATOM      4  C   LIG    1        2.517  -3.474  -1.862  0.00  0.00    +0.490 C 
ATOM      5  O   LIG    1        3.515  -3.784  -2.469  0.00  0.00    -0.410 OA
ATOM      6  C   LIG    1       -0.712  -2.747  -1.177  0.00  0.00    +0.510 C 
ATOM      7  O   LIG    1       -1.460  -2.900  -0.241  0.00  0.00    -0.390 OA
ATOM      8  O   LIG    1       -0.941  -3.157  -2.457  0.00  0.00    -0.330 OA
ATOM      9  C   LIG    1        0.332  -3.538  -3.059  0.00  0.00    +0.310 C 
ATOM     10  C   LIG    1        1.383  -2.625  -2.394  0.00  0.00    +0.000 C 
ENDROOT
BRANCH   1  11
ATOM     11  C   LIG    1        0.598  -0.600  -1.043  0.00  0.00    +0.500 C 
ATOM     12  O   LIG    1        1.088   0.070  -1.921  0.00  0.00    -0.470 OA
BRANCH  11  14
ATOM     13  C   LIG    1       -0.018   1.448   0.010  0.00  0.00    +0.280 C 
ATOM     14  O   LIG    1        0.002  -0.004   0.002  0.00  0.00    -0.340 OA
ENDBRANCH  11  14
ENDBRANCH   1  11
TORSDOF 2
ENDMDL
MODEL     1262
REMARK  Name = ZINC000004416206
REMARK                            x       y       z     vdW  Elec       q    Type
REMARK                         _______ _______ _______ _____ _____    ______ ____
ROOT
ATOM      1  O   LIG    1       -0.076  -0.276  -0.078  0.00  0.00    -0.410 OA
ATOM      2  C   LIG    1        0.017   0.925   0.006  0.00  0.00    +0.390 C 
ATOM      3  C   LIG    1       -1.115   1.944   0.070  0.00  0.00    -0.030 C 
ATOM      4  C   LIG    1       -0.574   3.117  -0.784  0.00  0.00    +0.020 C 
ATOM      5  C   LIG    1        0.930   3.160  -0.437  0.00  0.00    +0.020 C 
ATOM      6  C   LIG    1        1.288   1.752   0.080  0.00  0.00    -0.030 C 
ENDROOT
BRANCH   5   7
ATOM      7  C   LIG    1        1.750   3.494  -1.685  0.00  0.00    +0.180 C 
BRANCH   7   8
ATOM      8  O   LIG    1        3.124   3.644  -1.325  0.00  0.00    -0.570 OA
ATOM      9  H   LIG    1        3.704   3.857  -2.069  0.00  0.00    +0.380 HD
ENDBRANCH   7   8
ENDBRANCH   5   7
BRANCH   4  10
ATOM     10  C   LIG    1       -1.257   4.429  -0.391  0.00  0.00    +0.180 C 
BRANCH  10  11
ATOM     11  O   LIG    1       -2.641   4.368  -0.741  0.00  0.00    -0.570 OA
ATOM     12  H   LIG    1       -3.138   5.168  -0.520  0.00  0.00    +0.380 HD
ENDBRANCH  10  11
ENDBRANCH   4  10
BRANCH   3  13
ATOM     13  C   LIG    1       -1.363   2.389   1.513  0.00  0.00    +0.200 C 
BRANCH  13  14
ATOM     14  O   LIG    1       -1.711   1.254   2.308  0.00  0.00    -0.570 OA
ATOM     15  H   LIG    1       -1.883   1.462   3.237  0.00  0.00    +0.380 HD
ENDBRANCH  13  14
ENDBRANCH   3  13
BRANCH   6  16
ATOM     16  C   LIG    1        1.787   1.836   1.524  0.00  0.00    +0.200 C 
BRANCH  16  17
ATOM     17  O   LIG    1        2.222   0.545   1.953  0.00  0.00    -0.570 OA
ATOM     18  H   LIG    1        2.552   0.523   2.862  0.00  0.00    +0.380 HD
ENDBRANCH  16  17
ENDBRANCH   6  16
TORSDOF 8
ENDMDL
MODEL     1263
REMARK  Name = ZINC000018197288
REMARK                            x       y       z     vdW  Elec       q    Type
REMARK                         _______ _______ _______ _____ _____    ______ ____
ROOT
ATOM      1  O   LIG    1        0.002  -0.004   0.002  0.00  0.00    -0.430 OA
ATOM      2  C   LIG    1       -0.014   1.208   0.009  0.00  0.00    +0.550 C 
ATOM      3  C   LIG    1       -1.219   2.111   0.032  0.00  0.00    +0.050 C 
ATOM      4  C   LIG    1       -2.445   1.816   0.893  0.00  0.00    +0.260 C 
ATOM      5  C   LIG    1       -2.163   1.535   2.348  0.00  0.00    -0.030 C 
ATOM      6  C   LIG    1       -1.798   2.656   2.955  0.00  0.00    +0.010 C 
ATOM      7  C   LIG    1       -1.701   3.699   1.798  0.00  0.00    +0.300 C 
ATOM      8  O   LIG    1       -2.897   3.230   1.024  0.00  0.00    -0.350 OA
ATOM      9  C   LIG    1       -0.540   3.131   1.041  0.00  0.00    -0.090 C 
ATOM     10  C   LIG    1        0.710   3.391   0.387  0.00  0.00    +0.600 C 
ATOM     11  O   LIG    1        1.300   4.443   0.258  0.00  0.00    -0.410 OA
ATOM     12  N   LIG    1        1.062   2.062   0.003  0.00  0.00    -0.430 N 
ENDROOT
BRANCH  12  13
ATOM     13  N   LIG    1        2.355   1.676  -0.373  0.00  0.00    -0.290 N 
ATOM     14  C   LIG    1        3.457   2.463  -0.431  0.00  0.00    +0.390 A 
ATOM     15  N   LIG    1        4.449   1.714  -0.826  0.00  0.00    -0.270 NA
ATOM     16  N   LIG    1        4.035   0.512  -1.017  0.00  0.00    -0.270 NA
ATOM     17  C   LIG    1        2.760   0.438  -0.748  0.00  0.00    +0.390 A 
ENDBRANCH  12  13
TORSDOF 1
ENDMDL
MODEL     1264
REMARK  Name = ZINC000002522198
REMARK                            x       y       z     vdW  Elec       q    Type
REMARK                         _______ _______ _______ _____ _____    ______ ____
ROOT
ATOM      1  O   LIG    1        0.600  -0.037   0.081  0.00  0.00    -0.490 OA
ATOM      2  C   LIG    1        0.457   1.169   0.073  0.00  0.00    +0.650 C 
ATOM      3  N   LIG    1       -0.752   1.791   0.105  0.00  0.00    -0.720 N 
ATOM      4  H   LIG    1       -1.621   1.361   0.152  0.00  0.00    +0.440 HD
ATOM      5  C   LIG    1       -0.497   3.218   0.054  0.00  0.00    +0.180 C 
ATOM      6  C   LIG    1        0.933   3.243  -0.557  0.00  0.00    +0.330 C 
ATOM      7  O   LIG    1        1.468   4.516  -0.299  0.00  0.00    -0.320 OA
ATOM      8  C   LIG    1        0.749   5.531  -1.025  0.00  0.00    +0.210 C 
ATOM      9  C   LIG    1       -0.742   5.525  -0.704  0.00  0.00    +0.140 C 
ATOM     10  C   LIG    1       -1.354   4.094  -0.839  0.00  0.00    +0.210 C 
ATOM     11  O   LIG    1        1.491   2.058   0.038  0.00  0.00    -0.310 OA
ENDROOT
BRANCH   9  12
ATOM     12  O   LIG    1       -0.933   5.991   0.633  0.00  0.00    -0.540 OA
ATOM     13  H   LIG    1       -0.608   6.888   0.787  0.00  0.00    +0.390 HD
ENDBRANCH   9  12
BRANCH  10  14
ATOM     14  O   LIG    1       -2.712   4.095  -0.393  0.00  0.00    -0.540 OA
ATOM     15  H   LIG    1       -3.288   4.693  -0.888  0.00  0.00    +0.390 HD
ENDBRANCH  10  14
BRANCH   8  16
ATOM     16  C   LIG    1        0.933   5.292  -2.525  0.00  0.00    +0.160 C 
BRANCH  16  17
ATOM     17  O   LIG    1        2.312   5.447  -2.867  0.00  0.00    -0.560 OA
ATOM     18  H   LIG    1        2.502   5.309  -3.805  0.00  0.00    +0.390 HD
ENDBRANCH  16  17
ENDBRANCH   8  16
TORSDOF 4
ENDMDL
MODEL     1265
REMARK  Name = ZINC000002522524
REMARK                            x       y       z     vdW  Elec       q    Type
REMARK                         _______ _______ _______ _____ _____    ______ ____
ROOT
ATOM      1  C   LIG    1        0.001  -4.173  -0.023  0.00  0.00    +0.390 C 
ATOM      2  O   LIG    1        1.345  -4.699   0.038  0.00  0.00    -0.350 OA
ATOM      3  C   LIG    1        1.201  -6.054   0.516  0.00  0.00    +0.190 C 
ATOM      4  C   LIG    1        0.118  -5.973   1.615  0.00  0.00    +0.160 C 
ATOM      5  C   LIG    1       -0.692  -4.706   1.251  0.00  0.00    +0.130 C 
ATOM      6  F   LIG    1       -2.026  -5.036   0.989  0.00  0.00    -0.170 F 
ENDROOT
BRANCH   1  10
ATOM      7  C   LIG    1        0.002  -0.004   0.002  0.00  0.00    +0.510 A 
ATOM      8  N   LIG    1       -1.135  -0.687   0.004  0.00  0.00    -0.610 NA
ATOM      9  C   LIG    1       -1.129  -2.018  -0.004  0.00  0.00    +0.660 A 
ATOM     10  N   LIG    1        0.026  -2.708  -0.014  0.00  0.00    -0.540 N 
ATOM     11  C   LIG    1        1.220  -2.050  -0.016  0.00  0.00    +0.390 A 
ATOM     12  O   LIG    1       -2.189  -2.623  -0.003  0.00  0.00    -0.530 OA
ATOM     13  C   LIG    1        1.230  -0.697  -0.013  0.00  0.00    -0.150 A 
BRANCH   7  14
ATOM     14  N   LIG    1       -0.017   1.371   0.010  0.00  0.00    -0.810 N 
ATOM     15  H   LIG    1       -0.863   1.845   0.016  0.00  0.00    +0.410 HD
ATOM     16  H   LIG    1        0.817   1.868   0.004  0.00  0.00    +0.420 HD
ENDBRANCH   7  14
ENDBRANCH   1  10
BRANCH   4  17
ATOM     17  O   LIG    1       -0.718  -7.130   1.580  0.00  0.00    -0.540 OA
ATOM     18  H   LIG    1       -1.416  -7.131   2.249  0.00  0.00    +0.390 HD
ENDBRANCH   4  17
BRANCH   3  19
ATOM     19  C   LIG    1        2.523  -6.554   1.103  0.00  0.00    +0.220 C 
BRANCH  19  20
ATOM     20  O   LIG    1        3.495  -6.664   0.062  0.00  0.00    -0.560 OA
ATOM     21  H   LIG    1        4.360  -6.976   0.363  0.00  0.00    +0.390 HD
ENDBRANCH  19  20
ENDBRANCH   3  19
TORSDOF 5
ENDMDL
MODEL     1266
REMARK  Name = ZINC000225793879
REMARK                            x       y       z     vdW  Elec       q    Type
REMARK                         _______ _______ _______ _____ _____    ______ ____
ROOT
ATOM      1  C   LIG    1       -2.902  -2.434   0.017  0.00  0.00    +0.290 C 
ATOM      2  C   LIG    1       -3.482  -2.387  -1.394  0.00  0.00    +0.320 C 
ATOM      3  N   LIG    1       -2.751  -3.295  -2.278  0.00  0.00    -0.610 N 
ATOM      4  C   LIG    1       -2.293  -4.473  -1.805  0.00  0.00    +0.520 C 
ATOM      5  C   LIG    1       -2.528  -4.811  -0.365  0.00  0.00    +0.530 C 
ATOM      6  O   LIG    1       -2.446  -5.958   0.022  0.00  0.00    -0.470 OA
ATOM      7  O   LIG    1       -1.703  -5.244  -2.533  0.00  0.00    -0.480 OA
ATOM      8  N   LIG    1       -2.832  -3.817   0.490  0.00  0.00    -0.700 N 
ATOM      9  H   LIG    1       -3.004  -4.016   1.424  0.00  0.00    +0.420 HD
ENDROOT
BRANCH   1  10
ATOM     10  C   LIG    1       -1.518  -1.840   0.007  0.00  0.00    +0.440 C 
ATOM     11  O   LIG    1       -0.550  -2.562  -0.006  0.00  0.00    -0.480 OA
BRANCH  10  12
ATOM     12  O   LIG    1       -1.360  -0.507   0.012  0.00  0.00    -0.350 OA
BRANCH  12  14
ATOM     13  C   LIG    1       -0.019   1.526   0.010  0.00  0.00    +0.070 C 
ATOM     14  C   LIG    1        0.002  -0.004   0.002  0.00  0.00    +0.200 C 
ENDBRANCH  12  14
ENDBRANCH  10  12
ENDBRANCH   1  10
BRANCH   3  15
ATOM     15  C   LIG    1       -2.514  -2.925  -3.676  0.00  0.00    +0.290 C 
ATOM     16  C   LIG    1       -1.192  -2.163  -3.785  0.00  0.00    +0.010 C 
ENDBRANCH   3  15
TORSDOF 4
ENDMDL
MODEL     1267
REMARK  Name = ZINC000225794131
REMARK                            x       y       z     vdW  Elec       q    Type
REMARK                         _______ _______ _______ _____ _____    ______ ____
ROOT
ATOM      1  C   LIG    1       -2.902  -2.434   0.017  0.00  0.00    +0.290 C 
ATOM      2  C   LIG    1       -3.482  -2.387  -1.394  0.00  0.00    +0.320 C 
ATOM      3  N   LIG    1       -2.751  -3.295  -2.278  0.00  0.00    -0.610 N 
ATOM      4  C   LIG    1       -2.293  -4.473  -1.805  0.00  0.00    +0.520 C 
ATOM      5  C   LIG    1       -2.528  -4.811  -0.365  0.00  0.00    +0.530 C 
ATOM      6  O   LIG    1       -2.446  -5.958   0.022  0.00  0.00    -0.480 OA
ATOM      7  O   LIG    1       -1.703  -5.244  -2.533  0.00  0.00    -0.460 OA
ATOM      8  N   LIG    1       -2.832  -3.817   0.490  0.00  0.00    -0.700 N 
ATOM      9  H   LIG    1       -3.004  -4.016   1.424  0.00  0.00    +0.420 HD
ENDROOT
BRANCH   1  10
ATOM     10  C   LIG    1       -1.518  -1.840   0.007  0.00  0.00    +0.440 C 
ATOM     11  O   LIG    1       -0.550  -2.562  -0.006  0.00  0.00    -0.480 OA
BRANCH  10  12
ATOM     12  O   LIG    1       -1.360  -0.507   0.012  0.00  0.00    -0.360 OA
BRANCH  12  14
ATOM     13  C   LIG    1       -0.019   1.526   0.010  0.00  0.00    +0.070 C 
ATOM     14  C   LIG    1        0.002  -0.004   0.002  0.00  0.00    +0.200 C 
ENDBRANCH  12  14
ENDBRANCH  10  12
ENDBRANCH   1  10
BRANCH   3  15
ATOM     15  C   LIG    1       -2.514  -2.925  -3.676  0.00  0.00    +0.310 C 
BRANCH  15  16
ATOM     16  C   LIG    1       -1.192  -2.163  -3.785  0.00  0.00    +0.150 C 
BRANCH  16  17
ATOM     17  O   LIG    1       -0.112  -3.032  -3.436  0.00  0.00    -0.370 OA
ATOM     18  C   LIG    1        1.176  -2.416  -3.506  0.00  0.00    +0.200 C 
ENDBRANCH  16  17
ENDBRANCH  15  16
ENDBRANCH   3  15
TORSDOF 6
ENDMDL
MODEL     1268
REMARK  Name = ZINC000225793856
REMARK                            x       y       z     vdW  Elec       q    Type
REMARK                         _______ _______ _______ _____ _____    ______ ____
ROOT
ATOM      1  C   LIG    1       -2.902  -2.434   0.017  0.00  0.00    +0.290 C 
ATOM      2  C   LIG    1       -3.455  -2.402   1.439  0.00  0.00    +0.320 C 
ATOM      3  N   LIG    1       -2.707  -3.319   2.299  0.00  0.00    -0.610 N 
ATOM      4  C   LIG    1       -2.259  -4.493   1.805  0.00  0.00    +0.520 C 
ATOM      5  C   LIG    1       -2.521  -4.815   0.365  0.00  0.00    +0.530 C 
ATOM      6  O   LIG    1       -2.446  -5.958  -0.036  0.00  0.00    -0.470 OA
ATOM      7  O   LIG    1       -1.655  -5.272   2.513  0.00  0.00    -0.480 OA
ATOM      8  N   LIG    1       -2.841  -3.812  -0.473  0.00  0.00    -0.700 N 
ATOM      9  H   LIG    1       -3.031  -4.000  -1.405  0.00  0.00    +0.420 HD
ENDROOT
BRANCH   1  10
ATOM     10  C   LIG    1       -1.518  -1.840   0.007  0.00  0.00    +0.440 C 
ATOM     11  O   LIG    1       -0.550  -2.562  -0.006  0.00  0.00    -0.480 OA
BRANCH  10  12
ATOM     12  O   LIG    1       -1.360  -0.507   0.012  0.00  0.00    -0.350 OA
BRANCH  12  14
ATOM     13  C   LIG    1       -0.019   1.526   0.010  0.00  0.00    +0.070 C 
ATOM     14  C   LIG    1        0.002  -0.004   0.002  0.00  0.00    +0.200 C 
ENDBRANCH  12  14
ENDBRANCH  10  12
ENDBRANCH   1  10
BRANCH   3  15
ATOM     15  C   LIG    1       -2.445  -2.965   3.696  0.00  0.00    +0.290 C 
ATOM     16  C   LIG    1       -3.586  -3.478   4.576  0.00  0.00    +0.020 C 
ENDBRANCH   3  15
TORSDOF 4
ENDMDL
MODEL     1269
REMARK  Name = ZINC000225794112
REMARK                            x       y       z     vdW  Elec       q    Type
REMARK                         _______ _______ _______ _____ _____    ______ ____
ROOT
ATOM      1  C   LIG    1       -2.902  -2.434   0.017  0.00  0.00    +0.290 C 
ATOM      2  C   LIG    1       -3.455  -2.402   1.439  0.00  0.00    +0.320 C 
ATOM      3  N   LIG    1       -2.707  -3.319   2.299  0.00  0.00    -0.610 N 
ATOM      4  C   LIG    1       -2.259  -4.493   1.805  0.00  0.00    +0.520 C 
ATOM      5  C   LIG    1       -2.521  -4.815   0.365  0.00  0.00    +0.530 C 
ATOM      6  O   LIG    1       -2.446  -5.958  -0.036  0.00  0.00    -0.480 OA
ATOM      7  O   LIG    1       -1.655  -5.272   2.513  0.00  0.00    -0.460 OA
ATOM      8  N   LIG    1       -2.841  -3.812  -0.473  0.00  0.00    -0.700 N 
ATOM      9  H   LIG    1       -3.031  -4.000  -1.405  0.00  0.00    +0.420 HD
ENDROOT
BRANCH   1  10
ATOM     10  C   LIG    1       -1.518  -1.840   0.007  0.00  0.00    +0.440 C 
ATOM     11  O   LIG    1       -0.550  -2.562  -0.006  0.00  0.00    -0.480 OA
BRANCH  10  12
ATOM     12  O   LIG    1       -1.360  -0.507   0.012  0.00  0.00    -0.350 OA
BRANCH  12  14
ATOM     13  C   LIG    1       -0.019   1.526   0.010  0.00  0.00    +0.070 C 
ATOM     14  C   LIG    1        0.002  -0.004   0.002  0.00  0.00    +0.200 C 
ENDBRANCH  12  14
ENDBRANCH  10  12
ENDBRANCH   1  10
BRANCH   3  15
ATOM     15  C   LIG    1       -2.445  -2.965   3.696  0.00  0.00    +0.310 C 
BRANCH  15  16
ATOM     16  C   LIG    1       -3.586  -3.478   4.576  0.00  0.00    +0.150 C 
BRANCH  16  17
ATOM     17  O   LIG    1       -3.605  -4.907   4.546  0.00  0.00    -0.380 OA
ATOM     18  C   LIG    1       -4.640  -5.492   5.339  0.00  0.00    +0.200 C 
ENDBRANCH  16  17
ENDBRANCH  15  16
ENDBRANCH   3  15
TORSDOF 6
ENDMDL
MODEL     1270
REMARK  Name = ZINC000004536646
REMARK                            x       y       z     vdW  Elec       q    Type
REMARK                         _______ _______ _______ _____ _____    ______ ____
ROOT
ATOM      1  C   LIG    1       -1.136  -2.159   0.001  0.00  0.00    +0.190 C 
ATOM      2  C   LIG    1       -1.107  -2.685  -1.422  0.00  0.00    +0.470 C 
ATOM      3  O   LIG    1       -2.384  -2.795  -1.831  0.00  0.00    -0.340 OA
ATOM      4  C   LIG    1       -3.231  -3.143  -0.699  0.00  0.00    +0.200 C 
ATOM      5  O   LIG    1       -0.121  -2.954  -2.067  0.00  0.00    -0.410 OA
ATOM      6  C   LIG    1       -2.456  -2.724   0.572  0.00  0.00    +0.200 C 
ENDROOT
BRANCH   1   9
ATOM      7  C   LIG    1       -0.018   1.503   0.010  0.00  0.00    +0.110 C 
ATOM      8  C   LIG    1        0.002  -0.004   0.002  0.00  0.00    +0.510 C 
ATOM      9  N   LIG    1       -1.156  -0.694   0.009  0.00  0.00    -0.710 N 
ATOM     10  H   LIG    1       -2.002  -0.220   0.020  0.00  0.00    +0.410 HD
ATOM     11  O   LIG    1        1.060  -0.596  -0.011  0.00  0.00    -0.530 OA
ENDBRANCH   1   9
BRANCH   6  12
ATOM     12  O   LIG    1       -3.172  -1.718   1.291  0.00  0.00    -0.540 OA
ATOM     13  H   LIG    1       -2.729  -1.419   2.097  0.00  0.00    +0.400 HD
ENDBRANCH   6  12
BRANCH   4  14
ATOM     14  C   LIG    1       -3.491  -4.651  -0.682  0.00  0.00    +0.230 C 
BRANCH  14  15
ATOM     15  O   LIG    1       -2.257  -5.345  -0.487  0.00  0.00    -0.540 OA
ATOM     16  H   LIG    1       -1.598  -5.177  -1.174  0.00  0.00    +0.380 HD
ENDBRANCH  14  15
BRANCH  14  17
ATOM     17  C   LIG    1       -4.110  -5.077  -2.014  0.00  0.00    +0.170 C 
BRANCH  17  18
ATOM     18  O   LIG    1       -4.460  -6.461  -1.956  0.00  0.00    -0.560 OA
ATOM     19  H   LIG    1       -4.859  -6.800  -2.769  0.00  0.00    +0.390 HD
ENDBRANCH  17  18
ENDBRANCH  14  17
ENDBRANCH   4  14
TORSDOF 6
ENDMDL
MODEL     1271
REMARK  Name = ZINC000225793828
REMARK                            x       y       z     vdW  Elec       q    Type
REMARK                         _______ _______ _______ _____ _____    ______ ____
ROOT
ATOM      1  C   LIG    1       -2.902  -2.434   0.017  0.00  0.00    +0.290 C 
ATOM      2  C   LIG    1       -3.482  -2.384  -1.394  0.00  0.00    +0.320 C 
ATOM      3  N   LIG    1       -2.766  -3.306  -2.277  0.00  0.00    -0.610 N 
ATOM      4  C   LIG    1       -2.346  -4.500  -1.812  0.00  0.00    +0.510 C 
ATOM      5  C   LIG    1       -2.502  -4.809  -0.356  0.00  0.00    +0.530 C 
ATOM      6  O   LIG    1       -2.335  -5.939   0.054  0.00  0.00    -0.470 OA
ATOM      7  O   LIG    1       -1.848  -5.311  -2.564  0.00  0.00    -0.480 OA
ATOM      8  C   LIG    1       -2.505  -2.930  -3.668  0.00  0.00    +0.310 C 
ATOM      9  N   LIG    1       -2.831  -3.816   0.493  0.00  0.00    -0.700 N 
ATOM     10  H   LIG    1       -3.020  -4.017   1.423  0.00  0.00    +0.420 HD
ENDROOT
BRANCH   1  11
ATOM     11  C   LIG    1       -1.518  -1.840   0.007  0.00  0.00    +0.440 C 
ATOM     12  O   LIG    1       -0.550  -2.562  -0.006  0.00  0.00    -0.480 OA
BRANCH  11  13
ATOM     13  O   LIG    1       -1.360  -0.507   0.012  0.00  0.00    -0.350 OA
BRANCH  13  15
ATOM     14  C   LIG    1       -0.019   1.526   0.010  0.00  0.00    +0.070 C 
ATOM     15  C   LIG    1        0.002  -0.004   0.002  0.00  0.00    +0.200 C 
ENDBRANCH  13  15
ENDBRANCH  11  13
ENDBRANCH   1  11
TORSDOF 3
ENDMDL
MODEL     1272
REMARK  Name = ZINC000225793804
REMARK                            x       y       z     vdW  Elec       q    Type
REMARK                         _______ _______ _______ _____ _____    ______ ____
ROOT
ATOM      1  C   LIG    1       -2.902  -2.434   0.017  0.00  0.00    +0.290 C 
ATOM      2  C   LIG    1       -3.455  -2.399   1.439  0.00  0.00    +0.320 C 
ATOM      3  N   LIG    1       -2.722  -3.330   2.297  0.00  0.00    -0.610 N 
ATOM      4  C   LIG    1       -2.312  -4.519   1.813  0.00  0.00    +0.510 C 
ATOM      5  C   LIG    1       -2.496  -4.814   0.357  0.00  0.00    +0.530 C 
ATOM      6  O   LIG    1       -2.337  -5.939  -0.068  0.00  0.00    -0.470 OA
ATOM      7  O   LIG    1       -1.802  -5.340   2.547  0.00  0.00    -0.480 OA
ATOM      8  C   LIG    1       -2.434  -2.969   3.688  0.00  0.00    +0.310 C 
ATOM      9  N   LIG    1       -2.840  -3.811  -0.475  0.00  0.00    -0.700 N 
ATOM     10  H   LIG    1       -3.047  -4.002  -1.403  0.00  0.00    +0.420 HD
ENDROOT
BRANCH   1  11
ATOM     11  C   LIG    1       -1.518  -1.840   0.007  0.00  0.00    +0.440 C 
ATOM     12  O   LIG    1       -0.550  -2.562  -0.006  0.00  0.00    -0.480 OA
BRANCH  11  13
ATOM     13  O   LIG    1       -1.360  -0.507   0.012  0.00  0.00    -0.350 OA
BRANCH  13  15
ATOM     14  C   LIG    1       -0.019   1.526   0.010  0.00  0.00    +0.070 C 
ATOM     15  C   LIG    1        0.002  -0.004   0.002  0.00  0.00    +0.200 C 
ENDBRANCH  13  15
ENDBRANCH  11  13
ENDBRANCH   1  11
TORSDOF 3
ENDMDL
MODEL     1273
REMARK  Name = ZINC000409439794
REMARK                            x       y       z     vdW  Elec       q    Type
REMARK                         _______ _______ _______ _____ _____    ______ ____
ROOT
ATOM      1  C   LIG    1       -0.018   1.461   0.010  0.00  0.00    +0.330 C 
ATOM      2  N   LIG    1        0.002  -0.004   0.002  0.00  0.00    -0.560 N 
ATOM      3  C   LIG    1        0.006  -0.668  -1.173  0.00  0.00    +0.530 A 
ATOM      4  C   LIG    1        0.026  -2.140  -1.148  0.00  0.00    -0.230 A 
ATOM      5  C   LIG    1        0.041  -2.770   0.084  0.00  0.00    +0.270 A 
ATOM      6  N   LIG    1        0.036  -2.019   1.214  0.00  0.00    -0.530 N 
ATOM      7  O   LIG    1       -0.007  -0.064  -2.229  0.00  0.00    -0.450 OA
ATOM      8  C   LIG    1        0.022  -0.678   1.165  0.00  0.00    +0.700 A 
ATOM      9  O   LIG    1        0.019  -0.052   2.207  0.00  0.00    -0.560 OA
ENDROOT
BRANCH   6  10
ATOM     10  C   LIG    1        0.052  -2.687   2.518  0.00  0.00    +0.280 C 
ATOM     11  C   LIG    1        1.285  -3.613   2.631  0.00  0.00    +0.080 C 
ATOM     12  C   LIG    1        0.722  -4.851   3.373  0.00  0.00    +0.280 C 
ATOM     13  N   LIG    1       -0.643  -4.995   2.806  0.00  0.00    -0.520 N 
ATOM     14  H   LIG    1       -1.228  -5.523   3.436  0.00  0.00    +0.440 HD
ATOM     15  H   LIG    1       -0.600  -5.451   1.907  0.00  0.00    +0.440 HD
ATOM     16  C   LIG    1       -1.167  -3.618   2.656  0.00  0.00    +0.270 C 
ENDBRANCH   6  10
BRANCH   4  17
ATOM     17  C   LIG    1        0.032  -2.916  -2.392  0.00  0.00    +0.540 C 
ATOM     18  O   LIG    1        0.019  -2.341  -3.473  0.00  0.00    -0.640 OA
ATOM     19  O   LIG    1        0.049  -4.139  -2.350  0.00  0.00    -0.690 OA
ENDBRANCH   4  17
TORSDOF 2
ENDMDL
MODEL     1274
REMARK  Name = ZINC000409439792
REMARK                            x       y       z     vdW  Elec       q    Type
REMARK                         _______ _______ _______ _____ _____    ______ ____
ROOT
ATOM      1  C   LIG    1       -0.018   1.461   0.010  0.00  0.00    +0.330 C 
ATOM      2  N   LIG    1        0.002  -0.004   0.002  0.00  0.00    -0.560 N 
ATOM      3  C   LIG    1        0.006  -0.668  -1.173  0.00  0.00    +0.530 A 
ATOM      4  C   LIG    1        0.026  -2.140  -1.148  0.00  0.00    -0.230 A 
ATOM      5  C   LIG    1        0.041  -2.770   0.084  0.00  0.00    +0.270 A 
ATOM      6  N   LIG    1        0.036  -2.019   1.214  0.00  0.00    -0.530 N 
ATOM      7  O   LIG    1       -0.007  -0.064  -2.229  0.00  0.00    -0.450 OA
ATOM      8  C   LIG    1        0.022  -0.678   1.165  0.00  0.00    +0.700 A 
ATOM      9  O   LIG    1        0.019  -0.052   2.207  0.00  0.00    -0.560 OA
ENDROOT
BRANCH   6  10
ATOM     10  C   LIG    1        0.052  -2.687   2.518  0.00  0.00    +0.280 C 
ATOM     11  C   LIG    1       -1.153  -3.648   2.643  0.00  0.00    +0.090 C 
ATOM     12  C   LIG    1       -0.543  -5.020   2.260  0.00  0.00    +0.290 C 
ATOM     13  N   LIG    1        0.816  -4.966   2.858  0.00  0.00    -0.510 N 
ATOM     14  H   LIG    1        1.425  -5.624   2.396  0.00  0.00    +0.440 HD
ATOM     15  H   LIG    1        0.770  -5.169   3.846  0.00  0.00    +0.430 HD
ATOM     16  C   LIG    1        1.298  -3.582   2.644  0.00  0.00    +0.270 C 
ENDBRANCH   6  10
BRANCH   4  17
ATOM     17  C   LIG    1        0.032  -2.916  -2.392  0.00  0.00    +0.540 C 
ATOM     18  O   LIG    1        0.019  -2.341  -3.473  0.00  0.00    -0.640 OA
ATOM     19  O   LIG    1        0.049  -4.139  -2.350  0.00  0.00    -0.690 OA
ENDBRANCH   4  17
TORSDOF 2
ENDMDL
MODEL     1275
REMARK  Name = ZINC000217420451
REMARK                            x       y       z     vdW  Elec       q    Type
REMARK                         _______ _______ _______ _____ _____    ______ ____
ROOT
ATOM      1  N   LIG    1        3.478   1.930  -0.021  0.00  0.00    -0.620 N 
ATOM      2  H   LIG    1        2.832   1.800  -0.733  0.00  0.00    +0.410 HD
ENDROOT
BRANCH   1   3
ATOM      3  C   LIG    1        4.729   1.327  -0.098  0.00  0.00    +0.120 C 
ATOM      4  C   LIG    1        4.857   0.038  -0.191  0.00  0.00    +0.020 C 
ATOM      5  C   LIG    1        6.264  -0.511  -0.269  0.00  0.00    -0.240 C 
ATOM      6  S   LIG    1        7.260   0.967  -0.711  0.00  0.00    +2.400 S 
ATOM      7  O   LIG    1        7.359   1.078  -2.125  0.00  0.00    -0.920 OA
ATOM      8  O   LIG    1        8.428   1.024   0.096  0.00  0.00    -0.920 OA
ATOM      9  C   LIG    1        6.002   2.145  -0.083  0.00  0.00    -0.250 C 
ENDBRANCH   1   3
BRANCH   1  10
ATOM     10  C   LIG    1        3.162   2.695   1.043  0.00  0.00    +0.510 C 
ATOM     11  S   LIG    1        4.251   2.822   2.358  0.00  0.00    -0.490 S 
BRANCH  10  14
ATOM     12  O   LIG    1        2.445   4.214   3.067  0.00  0.00    -0.420 OA
ATOM     13  C   LIG    1        1.675   4.124   2.136  0.00  0.00    +0.620 C 
ATOM     14  N   LIG    1        1.990   3.359   1.072  0.00  0.00    -0.650 N 
ATOM     15  H   LIG    1        1.373   3.287   0.326  0.00  0.00    +0.410 HD
ENDBRANCH  10  14
ENDBRANCH   1  10
TORSDOF 3
ENDMDL
MODEL     1276
REMARK  Name = ZINC000001303448
REMARK                            x       y       z     vdW  Elec       q    Type
REMARK                         _______ _______ _______ _____ _____    ______ ____
ROOT
ATOM      1  C   LIG    1       -0.019   1.526   0.010  0.00  0.00    +0.070 C 
ATOM      2  C   LIG    1        0.002  -0.004   0.002  0.00  0.00    +0.250 C 
ATOM      3  O   LIG    1        0.687  -0.471  -1.172  0.00  0.00    -0.370 OA
ATOM      4  C   LIG    1        1.396  -1.658  -0.740  0.00  0.00    +0.130 C 
ATOM      5  C   LIG    1        1.812  -1.268   0.701  0.00  0.00    +0.140 C 
ATOM      6  C   LIG    1       -1.432  -0.537   0.003  0.00  0.00    +0.060 C 
ATOM      7  O   LIG    1        0.695  -0.483   1.162  0.00  0.00    -0.370 OA
ENDROOT
BRANCH   5   8
ATOM      8  C   LIG    1        1.996  -2.516   1.567  0.00  0.00    +0.230 C 
BRANCH   8   9
ATOM      9  O   LIG    1        0.803  -3.302   1.528  0.00  0.00    -0.550 OA
ATOM     10  H   LIG    1        0.018  -2.842   1.854  0.00  0.00    +0.380 HD
ENDBRANCH   8   9
BRANCH   8  11
ATOM     11  C   LIG    1        2.284  -2.098   3.010  0.00  0.00    +0.170 C 
BRANCH  11  12
ATOM     12  O   LIG    1        2.570  -3.257   3.794  0.00  0.00    -0.570 OA
ATOM     13  H   LIG    1        2.763  -3.067   4.722  0.00  0.00    +0.380 HD
ENDBRANCH  11  12
ENDBRANCH   8  11
ENDBRANCH   5   8
BRANCH   4  14
ATOM     14  C   LIG    1        2.624  -1.913  -1.616  0.00  0.00    +0.240 C 
BRANCH  14  15
ATOM     15  O   LIG    1        3.547  -0.832  -1.468  0.00  0.00    -0.550 OA
ATOM     16  H   LIG    1        3.188   0.029  -1.723  0.00  0.00    +0.380 HD
ENDBRANCH  14  15
BRANCH  14  17
ATOM     17  C   LIG    1        2.192  -2.018  -3.080  0.00  0.00    +0.170 C 
BRANCH  17  18
ATOM     18  O   LIG    1        3.319  -2.371  -3.885  0.00  0.00    -0.560 OA
ATOM     19  H   LIG    1        3.119  -2.456  -4.827  0.00  0.00    +0.380 HD
ENDBRANCH  17  18
ENDBRANCH  14  17
ENDBRANCH   4  14
TORSDOF 8
ENDMDL
MODEL     1277
REMARK  Name = ZINC000100750064
REMARK                            x       y       z     vdW  Elec       q    Type
REMARK                         _______ _______ _______ _____ _____    ______ ____
ROOT
ATOM      1  C   LIG    1       -0.010   1.569   0.058  0.00  0.00    +0.030 C 
ATOM      2  C   LIG    1       -0.059   0.042  -0.020  0.00  0.00    +0.240 C 
ATOM      3  O   LIG    1        0.642  -0.425  -1.192  0.00  0.00    -0.360 OA
ATOM      4  C   LIG    1        2.037  -0.376  -0.826  0.00  0.00    +0.120 C 
ATOM      5  C   LIG    1        2.047  -0.454   0.714  0.00  0.00    +0.120 C 
ATOM      6  C   LIG    1       -1.510  -0.444  -0.034  0.00  0.00    +0.090 C 
ATOM      7  O   LIG    1        0.657  -0.541   1.091  0.00  0.00    -0.360 OA
ENDROOT
BRANCH   5   8
ATOM      8  C   LIG    1        2.805  -1.699   1.179  0.00  0.00    +0.220 C 
BRANCH   8   9
ATOM      9  O   LIG    1        4.193  -1.554   0.869  0.00  0.00    -0.500 OA
ATOM     10  H   LIG    1        4.612  -0.791   1.289  0.00  0.00    +0.360 HD
ENDBRANCH   8   9
BRANCH   8  11
ATOM     11  C   LIG    1        2.635  -1.865   2.690  0.00  0.00    +0.160 C 
BRANCH  11  12
ATOM     12  O   LIG    1        3.245  -3.089   3.106  0.00  0.00    -0.560 OA
ATOM     13  H   LIG    1        3.175  -3.260   4.055  0.00  0.00    +0.380 HD
ENDBRANCH  11  12
ENDBRANCH   8  11
ENDBRANCH   5   8
BRANCH   4  14
ATOM     14  C   LIG    1        2.788  -1.567  -1.426  0.00  0.00    +0.220 C 
BRANCH  14  15
ATOM     15  O   LIG    1        4.191  -1.403  -1.211  0.00  0.00    -0.500 OA
ATOM     16  H   LIG    1        4.559  -0.603  -1.611  0.00  0.00    +0.360 HD
ENDBRANCH  14  15
BRANCH  14  17
ATOM     17  C   LIG    1        2.507  -1.642  -2.928  0.00  0.00    +0.160 C 
BRANCH  17  18
ATOM     18  O   LIG    1        3.112  -2.819  -3.467  0.00  0.00    -0.560 OA
ATOM     19  H   LIG    1        2.974  -2.932  -4.418  0.00  0.00    +0.380 HD
ENDBRANCH  17  18
ENDBRANCH  14  17
ENDBRANCH   4  14
TORSDOF 8
ENDMDL
MODEL     1278
REMARK  Name = ZINC000217397613
REMARK                            x       y       z     vdW  Elec       q    Type
REMARK                         _______ _______ _______ _____ _____    ______ ____
ROOT
ATOM      1  O   LIG    1        0.002  -0.004   0.002  0.00  0.00    -0.530 OA
ATOM      2  C   LIG    1       -0.014   1.209   0.009  0.00  0.00    +0.650 C 
ATOM      3  N   LIG    1        1.143   1.898   0.001  0.00  0.00    -0.620 N 
ATOM      4  C   LIG    1        2.441   1.207  -0.021  0.00  0.00    +0.340 C 
ATOM      5  C   LIG    1        3.366   1.879   0.957  0.00  0.00    +0.520 C 
ATOM      6  N   LIG    1        3.112   3.075   1.490  0.00  0.00    -0.720 N 
ATOM      7  H   LIG    1        3.788   3.462   2.067  0.00  0.00    +0.410 HD
ATOM      8  C   LIG    1        1.897   3.842   1.270  0.00  0.00    +0.250 C 
ATOM      9  C   LIG    1        2.257   5.333   1.058  0.00  0.00    -0.300 C 
ATOM     10  S   LIG    1        2.786   5.377  -0.696  0.00  0.00    +2.400 S 
ATOM     11  C   LIG    1        1.901   3.870  -1.236  0.00  0.00    -0.310 C 
ATOM     12  O   LIG    1        4.188   5.155  -0.771  0.00  0.00    -0.920 OA
ATOM     13  O   LIG    1        2.214   6.511  -1.332  0.00  0.00    -0.920 OA
ATOM     14  O   LIG    1        4.387   1.307   1.275  0.00  0.00    -0.520 OA
ATOM     15  C   LIG    1        1.154   3.369   0.009  0.00  0.00    +0.290 C 
ENDROOT
TORSDOF 0
ENDMDL
MODEL     1279
REMARK  Name = ZINC000217397553
REMARK                            x       y       z     vdW  Elec       q    Type
REMARK                         _______ _______ _______ _____ _____    ______ ____
ROOT
ATOM      1  O   LIG    1        0.002  -0.004   0.002  0.00  0.00    -0.530 OA
ATOM      2  C   LIG    1       -0.014   1.209   0.009  0.00  0.00    +0.640 C 
ATOM      3  N   LIG    1        1.143   1.898   0.001  0.00  0.00    -0.620 N 
ATOM      4  C   LIG    1        2.460   1.228  -0.021  0.00  0.00    +0.340 C 
ATOM      5  C   LIG    1        3.441   2.020  -0.839  0.00  0.00    +0.510 C 
ATOM      6  N   LIG    1        3.186   3.232  -1.361  0.00  0.00    -0.710 N 
ATOM      7  H   LIG    1        3.901   3.730  -1.787  0.00  0.00    +0.410 HD
ATOM      8  C   LIG    1        1.859   3.805  -1.294  0.00  0.00    +0.230 C 
ATOM      9  C   LIG    1        1.801   5.340  -1.273  0.00  0.00    -0.300 C 
ATOM     10  S   LIG    1        0.064   5.637  -0.744  0.00  0.00    +2.410 S 
ATOM     11  C   LIG    1       -0.192   4.021   0.089  0.00  0.00    -0.300 C 
ATOM     12  O   LIG    1       -0.771   5.717  -1.890  0.00  0.00    -0.910 OA
ATOM     13  O   LIG    1        0.038   6.676   0.226  0.00  0.00    -0.910 OA
ATOM     14  O   LIG    1        4.532   1.533  -1.043  0.00  0.00    -0.520 OA
ATOM     15  C   LIG    1        1.181   3.358   0.009  0.00  0.00    +0.240 C 
ENDROOT
TORSDOF 0
ENDMDL
MODEL     1280
REMARK  Name = ZINC000217421044
REMARK                            x       y       z     vdW  Elec       q    Type
REMARK                         _______ _______ _______ _____ _____    ______ ____
ROOT
ATOM      1  O   LIG    1        0.002  -0.004   0.002  0.00  0.00    -0.480 OA
ATOM      2  C   LIG    1       -0.014   1.208   0.009  0.00  0.00    +0.680 C 
ATOM      3  N   LIG    1        1.143   1.898   0.001  0.00  0.00    -0.580 N 
ATOM      4  C   LIG    1        2.415   1.392  -0.019  0.00  0.00    +0.700 C 
ATOM      5  N   LIG    1        3.353   2.340  -0.318  0.00  0.00    -0.720 N 
ATOM      6  H   LIG    1        4.314   2.272  -0.203  0.00  0.00    +0.440 HD
ATOM      7  C   LIG    1        2.611   3.464  -0.841  0.00  0.00    +0.220 C 
ATOM      8  C   LIG    1        3.031   4.908  -0.608  0.00  0.00    -0.270 C 
ATOM      9  S   LIG    1        1.427   5.781  -0.887  0.00  0.00    +2.400 S 
ATOM     10  C   LIG    1        0.337   4.349  -0.484  0.00  0.00    -0.280 C 
ATOM     11  O   LIG    1        1.299   6.104  -2.265  0.00  0.00    -0.910 OA
ATOM     12  O   LIG    1        1.262   6.792   0.097  0.00  0.00    -0.910 OA
ATOM     13  O   LIG    1        2.680   0.227   0.203  0.00  0.00    -0.500 OA
ATOM     14  C   LIG    1        1.311   3.321   0.007  0.00  0.00    +0.190 C 
ENDROOT
TORSDOF 0
ENDMDL
MODEL     1281
REMARK  Name = ZINC000409440286
REMARK                            x       y       z     vdW  Elec       q    Type
REMARK                         _______ _______ _______ _____ _____    ______ ____
ROOT
ATOM      1  N   LIG    1       -1.456   4.967   2.491  0.00  0.00    -0.530 N 
ATOM      2  C   LIG    1       -0.431   5.640   3.072  0.00  0.00    +0.310 A 
ATOM      3  C   LIG    1       -0.449   7.024   3.081  0.00  0.00    -0.250 A 
ATOM      4  C   LIG    1       -1.592   7.706   2.451  0.00  0.00    +0.540 A 
ATOM      5  N   LIG    1       -2.566   6.953   1.897  0.00  0.00    -0.660 N 
ATOM      6  H   LIG    1       -3.328   7.382   1.478  0.00  0.00    +0.420 HD
ATOM      7  O   LIG    1       -1.658   8.921   2.430  0.00  0.00    -0.450 OA
ATOM      8  C   LIG    1       -2.485   5.611   1.919  0.00  0.00    +0.700 A 
ATOM      9  O   LIG    1       -3.377   4.960   1.412  0.00  0.00    -0.570 OA
ENDROOT
BRANCH   3  10
ATOM     10  C   LIG    1        0.639   7.789   3.698  0.00  0.00    +0.540 C 
ATOM     11  O   LIG    1        0.606   9.012   3.695  0.00  0.00    -0.650 OA
ATOM     12  O   LIG    1        1.581   7.203   4.216  0.00  0.00    -0.690 OA
ENDBRANCH   3  10
BRANCH   1  13
ATOM     13  C   LIG    1       -1.436   3.502   2.483  0.00  0.00    +0.340 C 
BRANCH  13  14
ATOM     14  C   LIG    1       -0.720   3.008   1.225  0.00  0.00    +0.020 C 
BRANCH  14  15
ATOM     15  C   LIG    1       -0.699   1.479   1.216  0.00  0.00    +0.280 C 
BRANCH  15  16
ATOM     16  N   LIG    1       -0.012   1.005   0.008  0.00  0.00    -0.640 N 
ATOM     17  H   LIG    1       -0.500   1.339  -0.810  0.00  0.00    +0.440 HD
ATOM     18  H   LIG    1        0.935   1.354   0.000  0.00  0.00    +0.440 HD
ATOM     19  H   LIG    1        0.002  -0.004   0.002  0.00  0.00    +0.440 HD
ENDBRANCH  15  16
ENDBRANCH  14  15
ENDBRANCH  13  14
ENDBRANCH   1  13
TORSDOF 5
ENDMDL
MODEL     1282
REMARK  Name = ZINC000217421379
REMARK                            x       y       z     vdW  Elec       q    Type
REMARK                         _______ _______ _______ _____ _____    ______ ____
ROOT
ATOM      1  O   LIG    1        0.002  -0.004   0.002  0.00  0.00    -0.440 OA
ATOM      2  C   LIG    1       -0.014   1.208   0.009  0.00  0.00    +0.670 C 
ATOM      3  N   LIG    1        1.143   1.898   0.001  0.00  0.00    -0.540 N 
ATOM      4  C   LIG    1        2.415   1.392  -0.019  0.00  0.00    +0.520 C 
ATOM      5  N   LIG    1        3.353   2.340  -0.318  0.00  0.00    -0.660 N 
ATOM      6  H   LIG    1        4.314   2.272  -0.203  0.00  0.00    +0.450 HD
ATOM      7  C   LIG    1        2.611   3.464  -0.841  0.00  0.00    +0.210 C 
ATOM      8  C   LIG    1        3.031   4.908  -0.608  0.00  0.00    -0.270 C 
ATOM      9  S   LIG    1        1.427   5.781  -0.887  0.00  0.00    +2.400 S 
ATOM     10  C   LIG    1        0.337   4.349  -0.484  0.00  0.00    -0.270 C 
ATOM     11  O   LIG    1        1.299   6.104  -2.265  0.00  0.00    -0.900 OA
ATOM     12  O   LIG    1        1.262   6.793   0.097  0.00  0.00    -0.900 OA
ATOM     13  S   LIG    1        2.789  -0.249   0.294  0.00  0.00    -0.470 S 
ATOM     14  C   LIG    1        1.311   3.321   0.007  0.00  0.00    +0.200 C 
ENDROOT
TORSDOF 0
ENDMDL
MODEL     1283
REMARK  Name = ZINC000217397700
REMARK                            x       y       z     vdW  Elec       q    Type
REMARK                         _______ _______ _______ _____ _____    ______ ____
ROOT
ATOM      1  O   LIG    1        0.002  -0.004   0.002  0.00  0.00    -0.530 OA
ATOM      2  C   LIG    1       -0.014   1.209   0.009  0.00  0.00    +0.650 C 
ATOM      3  N   LIG    1        1.143   1.898   0.001  0.00  0.00    -0.620 N 
ATOM      4  C   LIG    1        2.439   1.205  -0.021  0.00  0.00    +0.340 C 
ATOM      5  C   LIG    1        3.335   1.888  -1.018  0.00  0.00    +0.510 C 
ATOM      6  N   LIG    1        3.073   3.097  -1.514  0.00  0.00    -0.720 N 
ATOM      7  H   LIG    1        3.731   3.487  -2.111  0.00  0.00    +0.410 HD
ATOM      8  C   LIG    1        1.879   3.877  -1.234  0.00  0.00    +0.250 C 
ATOM      9  C   LIG    1        2.261   5.356  -1.026  0.00  0.00    -0.300 C 
ATOM     10  S   LIG    1        2.420   5.560   0.784  0.00  0.00    +2.400 S 
ATOM     11  C   LIG    1        1.964   3.845   1.244  0.00  0.00    -0.320 C 
ATOM     12  O   LIG    1        1.418   6.456   1.247  0.00  0.00    -0.920 OA
ATOM     13  O   LIG    1        3.783   5.790   1.115  0.00  0.00    -0.920 OA
ATOM     14  O   LIG    1        4.339   1.315  -1.385  0.00  0.00    -0.530 OA
ATOM     15  C   LIG    1        1.151   3.367   0.009  0.00  0.00    +0.290 C 
ENDROOT
TORSDOF 0
ENDMDL
MODEL     1284
REMARK  Name = ZINC000217397778
REMARK                            x       y       z     vdW  Elec       q    Type
REMARK                         _______ _______ _______ _____ _____    ______ ____
ROOT
ATOM      1  O   LIG    1        0.002  -0.004   0.002  0.00  0.00    -0.530 OA
ATOM      2  C   LIG    1       -0.014   1.209   0.009  0.00  0.00    +0.650 C 
ATOM      3  N   LIG    1        1.143   1.898   0.001  0.00  0.00    -0.620 N 
ATOM      4  C   LIG    1        2.459   1.228  -0.021  0.00  0.00    +0.340 C 
ATOM      5  C   LIG    1        3.458   1.994   0.798  0.00  0.00    +0.520 C 
ATOM      6  N   LIG    1        3.214   3.196   1.352  0.00  0.00    -0.710 N 
ATOM      7  H   LIG    1        3.937   3.681   1.781  0.00  0.00    +0.410 HD
ATOM      8  C   LIG    1        1.891   3.772   1.317  0.00  0.00    +0.220 C 
ATOM      9  C   LIG    1        1.803   5.290   1.442  0.00  0.00    -0.290 C 
ATOM     10  S   LIG    1        0.207   5.711   0.636  0.00  0.00    +2.410 S 
ATOM     11  C   LIG    1       -0.213   4.010   0.077  0.00  0.00    -0.290 C 
ATOM     12  O   LIG    1        0.453   6.536  -0.495  0.00  0.00    -0.910 OA
ATOM     13  O   LIG    1       -0.725   6.126   1.625  0.00  0.00    -0.910 OA
ATOM     14  O   LIG    1        4.552   1.500   0.971  0.00  0.00    -0.520 OA
ATOM     15  C   LIG    1        1.180   3.360   0.009  0.00  0.00    +0.240 C 
ENDROOT
TORSDOF 0
ENDMDL
MODEL     1285
REMARK  Name = ZINC000409440445
REMARK                            x       y       z     vdW  Elec       q    Type
REMARK                         _______ _______ _______ _____ _____    ______ ____
ROOT
ATOM      1  C   LIG    1        0.497   1.421  -0.017  0.00  0.00    +0.350 C 
ATOM      2  N   LIG    1        0.253  -0.023  -0.011  0.00  0.00    -0.560 N 
ATOM      3  C   LIG    1        0.029  -0.670  -1.175  0.00  0.00    +0.530 A 
ATOM      4  C   LIG    1       -0.213  -2.122  -1.136  0.00  0.00    -0.200 A 
ATOM      5  C   LIG    1       -0.198  -2.752   0.097  0.00  0.00    +0.230 A 
ATOM      6  N   LIG    1        0.036  -2.019   1.214  0.00  0.00    -0.530 N 
ATOM      7  O   LIG    1        0.027  -0.067  -2.231  0.00  0.00    -0.440 OA
ATOM      8  C   LIG    1        0.259  -0.697   1.152  0.00  0.00    +0.700 A 
ATOM      9  O   LIG    1        0.464  -0.087   2.183  0.00  0.00    -0.550 OA
ENDROOT
BRANCH   6  10
ATOM     10  C   LIG    1        0.052  -2.687   2.518  0.00  0.00    +0.270 C 
ATOM     11  C   LIG    1       -0.868  -3.919   2.594  0.00  0.00    +0.330 C 
ATOM     12  N   LIG    1        0.307  -4.701   2.151  0.00  0.00    -0.540 N 
ATOM     13  H   LIG    1        0.367  -4.788   1.148  0.00  0.00    +0.440 HD
ATOM     14  H   LIG    1        0.389  -5.589   2.623  0.00  0.00    +0.430 HD
ATOM     15  C   LIG    1        1.222  -3.672   2.695  0.00  0.00    +0.320 C 
ENDBRANCH   6  10
BRANCH   4  16
ATOM     16  C   LIG    1       -0.462  -2.879  -2.367  0.00  0.00    +0.530 C 
ATOM     17  O   LIG    1       -0.471  -2.304  -3.447  0.00  0.00    -0.630 OA
ATOM     18  O   LIG    1       -0.661  -4.085  -2.314  0.00  0.00    -0.690 OA
ENDBRANCH   4  16
TORSDOF 2
ENDMDL
MODEL     1286
REMARK  Name = ZINC000217398963
REMARK                            x       y       z     vdW  Elec       q    Type
REMARK                         _______ _______ _______ _____ _____    ______ ____
ROOT
ATOM      1  C   LIG    1        4.311   3.818  -1.973  0.00  0.00    +0.170 C 
ATOM      2  C   LIG    1        4.298   5.364  -1.855  0.00  0.00    -0.290 C 
ATOM      3  S   LIG    1        5.879   5.799  -2.686  0.00  0.00    +2.390 S 
ATOM      4  C   LIG    1        6.801   4.339  -2.072  0.00  0.00    -0.340 C 
ATOM      5  O   LIG    1        6.412   6.983  -2.108  0.00  0.00    -0.930 OA
ATOM      6  O   LIG    1        5.719   5.704  -4.095  0.00  0.00    -0.930 OA
ATOM      7  C   LIG    1        5.726   3.319  -1.674  0.00  0.00    +0.200 C 
ENDROOT
BRANCH   1  13
ATOM      8  O   LIG    1        0.007  -0.008   0.004  0.00  0.00    -0.550 OA
ATOM      9  C   LIG    1       -0.012   1.204   0.009  0.00  0.00    +0.620 C 
ATOM     10  N   LIG    1        1.145   1.896   0.001  0.00  0.00    -0.620 N 
ATOM     11  C   LIG    1        2.440   1.200  -0.018  0.00  0.00    +0.290 C 
ATOM     12  C   LIG    1        3.288   1.781  -1.155  0.00  0.00    +0.170 C 
ATOM     13  N   LIG    1        3.369   3.240  -1.005  0.00  0.00    -0.500 NA
ATOM     14  C   LIG    1        2.043   3.862  -1.125  0.00  0.00    +0.170 C 
ATOM     15  C   LIG    1        1.145   3.367   0.007  0.00  0.00    +0.290 C 
ENDBRANCH   1  13
BRANCH   7  16
ATOM     16  O   LIG    1        5.836   3.050  -0.275  0.00  0.00    -0.530 OA
ATOM     17  H   LIG    1        6.685   2.666  -0.014  0.00  0.00    +0.380 HD
ENDBRANCH   7  16
TORSDOF 2
ENDMDL
MODEL     1287
REMARK  Name = ZINC000409440655
REMARK                            x       y       z     vdW  Elec       q    Type
REMARK                         _______ _______ _______ _____ _____    ______ ____
ROOT
ATOM      1  C   LIG    1       -1.294   1.936   0.019  0.00  0.00    -0.250 A 
ATOM      2  C   LIG    1       -2.495   1.248   0.026  0.00  0.00    +0.320 A 
ATOM      3  N   LIG    1       -3.659   1.944   0.036  0.00  0.00    -0.530 N 
ATOM      4  C   LIG    1       -3.674   3.286   0.038  0.00  0.00    +0.700 A 
ATOM      5  N   LIG    1       -2.545   4.015   0.031  0.00  0.00    -0.660 N 
ATOM      6  H   LIG    1       -2.596   4.984   0.034  0.00  0.00    +0.430 HD
ATOM      7  O   LIG    1       -4.744   3.862   0.047  0.00  0.00    -0.580 OA
ATOM      8  C   LIG    1       -1.339   3.408   0.027  0.00  0.00    +0.540 A 
ATOM      9  O   LIG    1       -0.313   4.062   0.021  0.00  0.00    -0.450 OA
ENDROOT
BRANCH   1  11
ATOM     10  O   LIG    1        0.002  -0.004   0.002  0.00  0.00    -0.690 OA
ATOM     11  C   LIG    1       -0.015   1.220   0.009  0.00  0.00    +0.540 C 
ATOM     12  O   LIG    1        1.037   1.846   0.002  0.00  0.00    -0.650 OA
ENDBRANCH   1  11
BRANCH   3  13
ATOM     13  C   LIG    1       -4.929   1.215   0.045  0.00  0.00    +0.350 C 
BRANCH  13  14
ATOM     14  C   LIG    1       -5.361   0.959   1.490  0.00  0.00    -0.020 C 
ATOM     15  C   LIG    1       -6.202   2.097   2.096  0.00  0.00    +0.320 C 
ATOM     16  N   LIG    1       -7.046   1.030   2.678  0.00  0.00    -0.540 N 
ATOM     17  H   LIG    1       -8.031   1.245   2.644  0.00  0.00    +0.420 HD
ATOM     18  H   LIG    1       -6.743   0.745   3.597  0.00  0.00    +0.440 HD
ATOM     19  C   LIG    1       -6.626   0.091   1.615  0.00  0.00    +0.330 C 
ENDBRANCH  13  14
ENDBRANCH   3  13
TORSDOF 3
ENDMDL
MODEL     1288
REMARK  Name = ZINC000217399053
REMARK                            x       y       z     vdW  Elec       q    Type
REMARK                         _______ _______ _______ _____ _____    ______ ____
ROOT
ATOM      1  C   LIG    1        4.311   3.818  -1.973  0.00  0.00    +0.220 C 
ATOM      2  C   LIG    1        3.711   3.697  -3.389  0.00  0.00    -0.320 C 
ATOM      3  S   LIG    1        2.919   5.337  -3.638  0.00  0.00    +2.370 S 
ATOM      4  C   LIG    1        4.209   6.255  -2.704  0.00  0.00    -0.330 C 
ATOM      5  O   LIG    1        1.685   5.389  -2.934  0.00  0.00    -0.920 OA
ATOM      6  O   LIG    1        2.974   5.694  -5.012  0.00  0.00    -0.930 OA
ATOM      7  C   LIG    1        4.590   5.265  -1.588  0.00  0.00    +0.210 C 
ENDROOT
BRANCH   1  13
ATOM      8  O   LIG    1        0.002  -0.004   0.002  0.00  0.00    -0.550 OA
ATOM      9  C   LIG    1       -0.014   1.209   0.009  0.00  0.00    +0.620 C 
ATOM     10  N   LIG    1        1.143   1.898   0.001  0.00  0.00    -0.630 N 
ATOM     11  C   LIG    1        2.438   1.200  -0.021  0.00  0.00    +0.290 C 
ATOM     12  C   LIG    1        3.285   1.782  -1.158  0.00  0.00    +0.180 C 
ATOM     13  N   LIG    1        3.369   3.240  -1.005  0.00  0.00    -0.530 NA
ATOM     14  C   LIG    1        2.044   3.865  -1.123  0.00  0.00    +0.180 C 
ATOM     15  C   LIG    1        1.146   3.369   0.009  0.00  0.00    +0.290 C 
ENDBRANCH   1  13
BRANCH   7  16
ATOM     16  O   LIG    1        5.984   5.402  -1.303  0.00  0.00    -0.550 OA
ATOM     17  H   LIG    1        6.237   6.280  -0.986  0.00  0.00    +0.390 HD
ENDBRANCH   7  16
TORSDOF 2
ENDMDL
MODEL     1289
REMARK  Name = ZINC000253921237
REMARK                            x       y       z     vdW  Elec       q    Type
REMARK                         _______ _______ _______ _____ _____    ______ ____
ROOT
ATOM      1  C   LIG    1        0.739  -2.027  -1.265  0.00  0.00    +0.150 C 
ENDROOT
BRANCH   1   2
ATOM      2  O   LIG    1        1.430  -2.501  -0.107  0.00  0.00    -0.510 OA
ATOM      3  H   LIG    1        2.348  -2.203  -0.049  0.00  0.00    +0.380 HD
ENDBRANCH   1   2
BRANCH   1   4
ATOM      4  C   LIG    1        0.718  -0.497  -1.257  0.00  0.00    +0.150 C 
BRANCH   4   6
ATOM      5  C   LIG    1       -0.019   1.526   0.010  0.00  0.00    +0.010 C 
ATOM      6  C   LIG    1        0.002  -0.004   0.002  0.00  0.00    +0.180 C 
BRANCH   6   7
ATOM      7  O   LIG    1        0.693  -0.477   1.160  0.00  0.00    -0.540 OA
ATOM      8  H   LIG    1        1.611  -0.180   1.219  0.00  0.00    +0.370 HD
ENDBRANCH   6   7
ENDBRANCH   4   6
BRANCH   4   9
ATOM      9  O   LIG    1        0.027  -0.024  -2.414  0.00  0.00    -0.530 OA
ATOM     10  H   LIG    1       -0.891  -0.322  -2.473  0.00  0.00    +0.370 HD
ENDBRANCH   4   9
ENDBRANCH   1   4
BRANCH   1  11
ATOM     11  C   LIG    1        1.455  -2.521  -2.524  0.00  0.00    +0.220 C 
BRANCH  11  12
ATOM     12  C   LIG    1        1.476  -4.051  -2.532  0.00  0.00    +0.150 C 
ATOM     13  N   LIG    1        2.227  -4.565  -3.712  0.00  0.00    -0.670 NA
ATOM     14  H   LIG    1        1.676  -4.485  -4.554  0.00  0.00    +0.350 HD
ATOM     15  C   LIG    1        2.604  -5.968  -3.458  0.00  0.00    +0.190 C 
ATOM     16  C   LIG    1        3.247  -6.079  -2.056  0.00  0.00    +0.100 C 
ATOM     17  S   LIG    1        2.464  -4.699  -1.127  0.00  0.00    -0.200 S 
ENDBRANCH  11  12
BRANCH  11  18
ATOM     18  O   LIG    1        0.764  -2.047  -3.682  0.00  0.00    -0.530 OA
ATOM     19  H   LIG    1       -0.154  -2.345  -3.741  0.00  0.00    +0.370 HD
ENDBRANCH  11  18
ENDBRANCH   1  11
TORSDOF 8
ENDMDL
MODEL     1290
REMARK  Name = ZINC000004531042
REMARK                            x       y       z     vdW  Elec       q    Type
REMARK                         _______ _______ _______ _____ _____    ______ ____
ROOT
ATOM      1  C   LIG    1        2.422   1.183  -0.015  0.00  0.00    +0.270 C 
ATOM      2  C   LIG    1        2.822   0.819   1.417  0.00  0.00    +0.350 C 
ATOM      3  O   LIG    1        4.097   0.173   1.404  0.00  0.00    -0.370 OA
ATOM      4  C   LIG    1        5.156   0.981   0.887  0.00  0.00    +0.150 C 
ATOM      5  C   LIG    1        4.849   1.352  -0.566  0.00  0.00    +0.120 C 
ATOM      6  C   LIG    1        3.502   2.080  -0.627  0.00  0.00    +0.190 C 
ENDROOT
BRANCH   1   9
ATOM      7  O   LIG    1        0.002  -0.004   0.002  0.00  0.00    -0.550 OA
ATOM      8  C   LIG    1       -0.014   1.209   0.009  0.00  0.00    +0.630 C 
ATOM      9  N   LIG    1        1.143   1.898   0.001  0.00  0.00    -0.720 N 
ATOM     10  H   LIG    1        1.130   2.868   0.007  0.00  0.00    +0.410 HD
ENDBRANCH   1   9
BRANCH   5  11
ATOM     11  O   LIG    1        4.787   0.165  -1.359  0.00  0.00    -0.550 OA
ATOM     12  H   LIG    1        5.606  -0.349  -1.363  0.00  0.00    +0.380 HD
ENDBRANCH   5  11
BRANCH   2  13
ATOM     13  O   LIG    1        2.898   2.007   2.208  0.00  0.00    -0.550 OA
ATOM     14  H   LIG    1        3.147   1.851   3.129  0.00  0.00    +0.380 HD
ENDBRANCH   2  13
BRANCH   6  15
ATOM     15  O   LIG    1        3.585   3.301   0.110  0.00  0.00    -0.530 OA
ATOM     16  H   LIG    1        4.255   3.915  -0.220  0.00  0.00    +0.380 HD
ENDBRANCH   6  15
BRANCH   4  17
ATOM     17  C   LIG    1        6.470   0.201   0.948  0.00  0.00    +0.200 C 
BRANCH  17  18
ATOM     18  O   LIG    1        6.815  -0.045   2.313  0.00  0.00    -0.560 OA
ATOM     19  H   LIG    1        7.640  -0.537   2.428  0.00  0.00    +0.380 HD
ENDBRANCH  17  18
ENDBRANCH   4  17
TORSDOF 6
ENDMDL
MODEL     1291
REMARK  Name = ZINC000217420975
REMARK                            x       y       z     vdW  Elec       q    Type
REMARK                         _______ _______ _______ _____ _____    ______ ____
ROOT
ATOM      1  O   LIG    1        0.002  -0.004   0.002  0.00  0.00    -0.480 OA
ATOM      2  C   LIG    1       -0.014   1.208   0.009  0.00  0.00    +0.680 C 
ATOM      3  N   LIG    1        1.143   1.898   0.001  0.00  0.00    -0.580 N 
ATOM      4  C   LIG    1        2.411   1.387  -0.019  0.00  0.00    +0.700 C 
ATOM      5  N   LIG    1        3.360   2.322   0.293  0.00  0.00    -0.720 N 
ATOM      6  H   LIG    1        4.320   2.254   0.170  0.00  0.00    +0.440 HD
ATOM      7  C   LIG    1        2.628   3.424   0.843  0.00  0.00    +0.210 C 
ATOM      8  C   LIG    1        3.030   4.870   0.853  0.00  0.00    -0.270 C 
ATOM      9  S   LIG    1        1.413   5.749   0.954  0.00  0.00    +2.400 S 
ATOM     10  C   LIG    1        0.348   4.251   0.767  0.00  0.00    -0.270 C 
ATOM     11  O   LIG    1        1.258   6.587  -0.183  0.00  0.00    -0.910 OA
ATOM     12  O   LIG    1        1.247   6.287   2.259  0.00  0.00    -0.910 OA
ATOM     13  O   LIG    1        2.668   0.230  -0.287  0.00  0.00    -0.500 OA
ATOM     14  C   LIG    1        1.307   3.334   0.007  0.00  0.00    +0.210 C 
ENDROOT
TORSDOF 0
ENDMDL
MODEL     1292
REMARK  Name = ZINC000217420898
REMARK                            x       y       z     vdW  Elec       q    Type
REMARK                         _______ _______ _______ _____ _____    ______ ____
ROOT
ATOM      1  O   LIG    1        0.002  -0.004   0.002  0.00  0.00    -0.470 OA
ATOM      2  C   LIG    1       -0.014   1.208   0.009  0.00  0.00    +0.670 C 
ATOM      3  N   LIG    1        1.143   1.898   0.001  0.00  0.00    -0.600 N 
ATOM      4  C   LIG    1        2.370   1.358  -0.019  0.00  0.00    +0.690 C 
ATOM      5  N   LIG    1        3.360   2.261  -0.023  0.00  0.00    -0.730 N 
ATOM      6  H   LIG    1        4.308   2.057  -0.037  0.00  0.00    +0.440 HD
ATOM      7  C   LIG    1        2.778   3.612  -0.003  0.00  0.00    +0.260 C 
ATOM      8  C   LIG    1        3.235   4.381  -1.258  0.00  0.00    -0.290 C 
ATOM      9  S   LIG    1        1.934   3.974  -2.490  0.00  0.00    +2.380 S 
ATOM     10  C   LIG    1        0.577   3.946  -1.250  0.00  0.00    -0.290 C 
ATOM     11  O   LIG    1        2.147   2.666  -3.001  0.00  0.00    -0.910 OA
ATOM     12  O   LIG    1        1.752   5.069  -3.378  0.00  0.00    -0.920 OA
ATOM     13  O   LIG    1        2.566   0.159  -0.033  0.00  0.00    -0.510 OA
ATOM     14  C   LIG    1        1.264   3.364   0.008  0.00  0.00    +0.260 C 
ENDROOT
TORSDOF 0
ENDMDL
MODEL     1293
REMARK  Name = ZINC000004578654
REMARK                            x       y       z     vdW  Elec       q    Type
REMARK                         _______ _______ _______ _____ _____    ______ ____
ROOT
ATOM      1  C   LIG    1       -1.136  -2.159   0.001  0.00  0.00    +0.400 C 
ATOM      2  O   LIG    1       -1.260  -2.630  -1.342  0.00  0.00    -0.370 OA
ATOM      3  C   LIG    1       -1.226  -4.053  -1.467  0.00  0.00    +0.190 C 
ATOM      4  C   LIG    1       -2.398  -4.660  -0.691  0.00  0.00    +0.170 C 
ATOM      5  C   LIG    1       -2.312  -4.220   0.774  0.00  0.00    +0.170 C 
ATOM      6  C   LIG    1       -2.304  -2.690   0.837  0.00  0.00    +0.120 C 
ENDROOT
BRANCH   1  11
ATOM      7  N   LIG    1       -0.016   1.344   0.009  0.00  0.00    -0.860 N 
ATOM      8  H   LIG    1       -0.863   1.817   0.016  0.00  0.00    +0.400 HD
ATOM      9  H   LIG    1        0.817   1.840   0.004  0.00  0.00    +0.420 HD
ATOM     10  C   LIG    1        0.002  -0.004   0.002  0.00  0.00    +0.710 C 
ATOM     11  N   LIG    1       -1.156  -0.694   0.009  0.00  0.00    -0.730 N 
ATOM     12  H   LIG    1       -2.002  -0.220   0.020  0.00  0.00    +0.400 HD
ATOM     13  O   LIG    1        1.063  -0.598  -0.011  0.00  0.00    -0.580 OA
ENDBRANCH   1  11
BRANCH   5  14
ATOM     14  O   LIG    1       -3.440  -4.724   1.492  0.00  0.00    -0.550 OA
ATOM     15  H   LIG    1       -3.451  -4.483   2.428  0.00  0.00    +0.390 HD
ENDBRANCH   5  14
BRANCH   4  16
ATOM     16  O   LIG    1       -2.334  -6.085  -0.767  0.00  0.00    -0.560 OA
ATOM     17  H   LIG    1       -3.047  -6.537  -0.296  0.00  0.00    +0.390 HD
ENDBRANCH   4  16
BRANCH   6  18
ATOM     18  O   LIG    1       -3.534  -2.184   0.316  0.00  0.00    -0.540 OA
ATOM     19  H   LIG    1       -3.598  -1.219   0.325  0.00  0.00    +0.370 HD
ENDBRANCH   6  18
BRANCH   3  20
ATOM     20  C   LIG    1       -1.338  -4.438  -2.943  0.00  0.00    +0.230 C 
BRANCH  20  21
ATOM     21  O   LIG    1       -0.186  -3.969  -3.647  0.00  0.00    -0.570 OA
ATOM     22  H   LIG    1       -0.189  -4.179  -4.591  0.00  0.00    +0.380 HD
ENDBRANCH  20  21
ENDBRANCH   3  20
TORSDOF 6
ENDMDL
MODEL     1294
REMARK  Name = ZINC000013815072
REMARK                            x       y       z     vdW  Elec       q    Type
REMARK                         _______ _______ _______ _____ _____    ______ ____
ROOT
ATOM      1  C   LIG    1       -1.413  -2.063   0.004  0.00  0.00    +0.220 C 
ATOM      2  C   LIG    1       -2.845  -2.602  -0.130  0.00  0.00    +0.290 C 
ATOM      3  N   LIG    1       -3.374  -2.180  -1.435  0.00  0.00    -0.710 N 
ATOM      4  H   LIG    1       -4.269  -1.814  -1.507  0.00  0.00    +0.400 HD
ATOM      5  C   LIG    1       -2.580  -2.312  -2.557  0.00  0.00    +0.350 A 
ATOM      6  C   LIG    1       -1.232  -2.489  -2.431  0.00  0.00    -0.070 A 
ATOM      7  C   LIG    1       -0.446  -2.616  -3.594  0.00  0.00    +0.540 A 
ATOM      8  N   LIG    1       -1.038  -2.563  -4.799  0.00  0.00    -0.630 NA
ATOM      9  C   LIG    1       -2.338  -2.394  -4.909  0.00  0.00    +0.660 A 
ATOM     10  O   LIG    1        0.764  -2.772  -3.508  0.00  0.00    -0.530 OA
ATOM     11  N   LIG    1       -3.132  -2.266  -3.811  0.00  0.00    -0.640 N 
ATOM     12  H   LIG    1       -4.089  -2.143  -3.915  0.00  0.00    +0.410 HD
ATOM     13  N   LIG    1       -0.637  -2.545  -1.150  0.00  0.00    -0.730 N 
ATOM     14  H   LIG    1        0.261  -2.892  -1.036  0.00  0.00    +0.410 HD
ENDROOT
BRANCH   9  15
ATOM     15  N   LIG    1       -2.906  -2.346  -6.156  0.00  0.00    -0.820 N 
ATOM     16  H   LIG    1       -3.863  -2.222  -6.249  0.00  0.00    +0.410 HD
ATOM     17  H   LIG    1       -2.350  -2.436  -6.946  0.00  0.00    +0.430 HD
ENDBRANCH   9  15
BRANCH   1  18
ATOM     18  C   LIG    1       -1.433  -0.534   0.013  0.00  0.00    +0.220 C 
BRANCH  18  20
ATOM     19  C   LIG    1       -0.019   1.526   0.010  0.00  0.00    +0.010 C 
ATOM     20  C   LIG    1        0.002  -0.004   0.002  0.00  0.00    +0.130 C 
BRANCH  20  21
ATOM     21  O   LIG    1        0.693  -0.477   1.160  0.00  0.00    -0.560 OA
ATOM     22  H   LIG    1        1.611  -0.180   1.219  0.00  0.00    +0.380 HD
ENDBRANCH  20  21
ENDBRANCH  18  20
BRANCH  18  23
ATOM     23  O   LIG    1       -2.124  -0.060  -1.145  0.00  0.00    -0.550 OA
ATOM     24  H   LIG    1       -1.725  -0.336  -1.981  0.00  0.00    +0.370 HD
ENDBRANCH  18  23
ENDBRANCH   1  18
TORSDOF 5
ENDMDL
MODEL     1295
REMARK  Name = ZINC000017994680
REMARK                            x       y       z     vdW  Elec       q    Type
REMARK                         _______ _______ _______ _____ _____    ______ ____
ROOT
ATOM      1  C   LIG    1        0.632  -2.000  -1.327  0.00  0.00    +0.130 A 
ATOM      2  C   LIG    1        0.110  -2.607  -2.466  0.00  0.00    +0.210 A 
ATOM      3  N   LIG    1        0.026  -3.920  -2.546  0.00  0.00    -0.350 NA
ATOM      4  C   LIG    1        0.444  -4.666  -1.533  0.00  0.00    -0.070 A 
ATOM      5  C   LIG    1        0.374  -6.137  -1.572  0.00  0.00    +0.580 A 
ATOM      6  N   LIG    1        0.825  -6.813  -0.490  0.00  0.00    -0.660 N 
ATOM      7  H   LIG    1        0.793  -7.782  -0.480  0.00  0.00    +0.420 HD
ATOM      8  C   LIG    1        1.322  -6.140   0.587  0.00  0.00    +0.670 A 
ATOM      9  N   LIG    1        1.394  -4.833   0.643  0.00  0.00    -0.580 NA
ATOM     10  O   LIG    1       -0.073  -6.722  -2.541  0.00  0.00    -0.470 OA
ATOM     11  C   LIG    1        0.976  -4.056  -0.373  0.00  0.00    +0.370 A 
ATOM     12  N   LIG    1        1.056  -2.727  -0.312  0.00  0.00    -0.440 NA
ENDROOT
BRANCH   8  13
ATOM     13  N   LIG    1        1.768  -6.865   1.661  0.00  0.00    -0.810 N 
ATOM     14  H   LIG    1        2.126  -6.410   2.439  0.00  0.00    +0.430 HD
ATOM     15  H   LIG    1        1.725  -7.834   1.643  0.00  0.00    +0.420 HD
ENDBRANCH   8  13
BRANCH   1  16
ATOM     16  C   LIG    1        0.718  -0.497  -1.257  0.00  0.00    +0.310 C 
BRANCH  16  18
ATOM     17  C   LIG    1       -0.019   1.526   0.010  0.00  0.00    +0.020 C 
ATOM     18  C   LIG    1        0.002  -0.004   0.002  0.00  0.00    +0.160 C 
BRANCH  18  19
ATOM     19  O   LIG    1       -1.339  -0.499   0.012  0.00  0.00    -0.570 OA
ATOM     20  H   LIG    1       -1.853  -0.225   0.784  0.00  0.00    +0.390 HD
ENDBRANCH  18  19
ENDBRANCH  16  18
BRANCH  16  21
ATOM     21  O   LIG    1        0.097   0.070  -2.412  0.00  0.00    -0.540 OA
ATOM     22  H   LIG    1       -0.838  -0.158  -2.507  0.00  0.00    +0.390 HD
ENDBRANCH  16  21
ENDBRANCH   1  16
TORSDOF 5
ENDMDL
MODEL     1296
REMARK  Name = ZINC000409442446
REMARK                            x       y       z     vdW  Elec       q    Type
REMARK                         _______ _______ _______ _____ _____    ______ ____
ROOT
ATOM      1  C   LIG    1        0.679  -2.115   1.088  0.00  0.00    +0.200 C 
ATOM      2  C   LIG    1       -0.656  -2.674   1.626  0.00  0.00    +0.040 C 
ATOM      3  C   LIG    1       -0.204  -3.856   2.523  0.00  0.00    +0.210 C 
ATOM      4  C   LIG    1        1.116  -3.308   3.122  0.00  0.00    +0.230 C 
ATOM      5  N   LIG    1        1.740  -2.538   2.020  0.00  0.00    -0.650 NA
ATOM      6  H   LIG    1        2.443  -3.087   1.548  0.00  0.00    +0.350 HD
ENDROOT
BRANCH   3   7
ATOM      7  N   LIG    1       -1.187  -4.122   3.576  0.00  0.00    -0.560 N 
ATOM      8  C   LIG    1       -1.489  -3.155   4.461  0.00  0.00    +0.490 C 
ATOM      9  C   LIG    1       -2.511  -3.401   5.541  0.00  0.00    +0.300 C 
ATOM     10  O   LIG    1       -2.541  -4.798   5.848  0.00  0.00    -0.350 OA
ATOM     11  C   LIG    1       -2.803  -5.621   4.707  0.00  0.00    +0.300 C 
ATOM     12  O   LIG    1       -0.936  -2.078   4.389  0.00  0.00    -0.470 OA
ATOM     13  C   LIG    1       -1.779  -5.329   3.640  0.00  0.00    +0.500 C 
ATOM     14  O   LIG    1       -1.481  -6.189   2.839  0.00  0.00    -0.480 OA
ENDBRANCH   3   7
BRANCH   1  15
ATOM     15  C   LIG    1        0.618  -0.611   1.029  0.00  0.00    +0.460 C 
ATOM     16  O   LIG    1        1.124   0.049   1.905  0.00  0.00    -0.470 OA
BRANCH  15  18
ATOM     17  C   LIG    1       -0.018   1.448   0.010  0.00  0.00    +0.260 C 
ATOM     18  O   LIG    1        0.002  -0.004   0.002  0.00  0.00    -0.370 OA
ENDBRANCH  15  18
ENDBRANCH   1  15
TORSDOF 3
ENDMDL
MODEL     1297
REMARK  Name = ZINC000409442449
REMARK                            x       y       z     vdW  Elec       q    Type
REMARK                         _______ _______ _______ _____ _____    ______ ____
ROOT
ATOM      1  C   LIG    1        0.206  -1.974   1.076  0.00  0.00    +0.190 C 
ATOM      2  C   LIG    1       -0.904  -2.755   1.823  0.00  0.00    +0.080 C 
ATOM      3  C   LIG    1       -0.191  -4.063   2.233  0.00  0.00    +0.240 C 
ATOM      4  C   LIG    1        1.311  -3.723   2.221  0.00  0.00    +0.210 C 
ATOM      5  N   LIG    1        1.432  -2.295   1.851  0.00  0.00    -0.640 NA
ATOM      6  H   LIG    1        2.264  -2.133   1.303  0.00  0.00    +0.350 HD
ENDROOT
BRANCH   3   7
ATOM      7  N   LIG    1       -0.482  -5.126   1.268  0.00  0.00    -0.560 N 
ATOM      8  C   LIG    1       -1.230  -6.179   1.646  0.00  0.00    +0.490 C 
ATOM      9  C   LIG    1       -1.556  -7.274   0.664  0.00  0.00    +0.300 C 
ATOM     10  O   LIG    1       -0.519  -7.348  -0.319  0.00  0.00    -0.350 OA
ATOM     11  C   LIG    1       -0.299  -6.107  -0.999  0.00  0.00    +0.300 C 
ATOM     12  O   LIG    1       -1.643  -6.246   2.784  0.00  0.00    -0.480 OA
ATOM     13  C   LIG    1       -0.002  -5.032   0.014  0.00  0.00    +0.490 C 
ATOM     14  O   LIG    1        0.681  -4.080  -0.299  0.00  0.00    -0.480 OA
ENDBRANCH   3   7
BRANCH   1  15
ATOM     15  C   LIG    1       -0.071  -0.494   1.107  0.00  0.00    +0.460 C 
ATOM     16  O   LIG    1        0.472   0.205   1.930  0.00  0.00    -0.480 OA
BRANCH  15  18
ATOM     17  C   LIG    1       -1.140   1.482   0.311  0.00  0.00    +0.260 C 
ATOM     18  O   LIG    1       -0.921   0.049   0.222  0.00  0.00    -0.360 OA
ENDBRANCH  15  18
ENDBRANCH   1  15
TORSDOF 3
ENDMDL
MODEL     1298
REMARK  Name = ZINC000409442447
REMARK                            x       y       z     vdW  Elec       q    Type
REMARK                         _______ _______ _______ _____ _____    ______ ____
ROOT
ATOM      1  C   LIG    1        0.679  -2.115   1.088  0.00  0.00    +0.230 C 
ATOM      2  C   LIG    1        1.827  -2.644   0.201  0.00  0.00    +0.020 C 
ATOM      3  C   LIG    1        2.414  -3.841   0.977  0.00  0.00    +0.210 C 
ATOM      4  C   LIG    1        1.572  -3.935   2.268  0.00  0.00    +0.230 C 
ATOM      5  N   LIG    1        1.025  -2.566   2.461  0.00  0.00    -0.640 NA
ATOM      6  H   LIG    1        1.714  -1.957   2.877  0.00  0.00    +0.350 HD
ENDROOT
BRANCH   3   7
ATOM      7  N   LIG    1        2.284  -5.070   0.191  0.00  0.00    -0.560 N 
ATOM      8  C   LIG    1        1.061  -5.493  -0.179  0.00  0.00    +0.490 C 
ATOM      9  C   LIG    1        0.905  -6.745  -1.004  0.00  0.00    +0.300 C 
ATOM     10  O   LIG    1        2.004  -7.623  -0.737  0.00  0.00    -0.350 OA
ATOM     11  C   LIG    1        3.279  -7.016  -0.973  0.00  0.00    +0.300 C 
ATOM     12  O   LIG    1        0.080  -4.863   0.152  0.00  0.00    -0.470 OA
ATOM     13  C   LIG    1        3.389  -5.756  -0.155  0.00  0.00    +0.490 C 
ATOM     14  O   LIG    1        4.478  -5.362   0.202  0.00  0.00    -0.480 OA
ENDBRANCH   3   7
BRANCH   1  15
ATOM     15  C   LIG    1        0.618  -0.611   1.029  0.00  0.00    +0.470 C 
ATOM     16  O   LIG    1        1.124   0.049   1.905  0.00  0.00    -0.500 OA
BRANCH  15  18
ATOM     17  C   LIG    1       -0.018   1.448   0.010  0.00  0.00    +0.260 C 
ATOM     18  O   LIG    1        0.002  -0.004   0.002  0.00  0.00    -0.360 OA
ENDBRANCH  15  18
ENDBRANCH   1  15
TORSDOF 3
ENDMDL
MODEL     1299
REMARK  Name = ZINC000409442448
REMARK                            x       y       z     vdW  Elec       q    Type
REMARK                         _______ _______ _______ _____ _____    ______ ____
ROOT
ATOM      1  C   LIG    1        0.679  -2.115   1.088  0.00  0.00    +0.220 C 
ATOM      2  C   LIG    1        1.829  -2.645   0.196  0.00  0.00    +0.040 C 
ATOM      3  C   LIG    1        2.128  -4.018   0.853  0.00  0.00    +0.230 C 
ATOM      4  C   LIG    1        1.903  -3.742   2.354  0.00  0.00    +0.200 C 
ATOM      5  N   LIG    1        1.021  -2.563   2.455  0.00  0.00    -0.650 NA
ATOM      6  H   LIG    1        1.466  -1.822   2.976  0.00  0.00    +0.360 HD
ENDROOT
BRANCH   3   7
ATOM      7  N   LIG    1        3.513  -4.423   0.599  0.00  0.00    -0.560 N 
ATOM      8  C   LIG    1        4.521  -3.646   1.035  0.00  0.00    +0.490 C 
ATOM      9  C   LIG    1        5.954  -4.052   0.801  0.00  0.00    +0.300 C 
ATOM     10  O   LIG    1        6.025  -4.861  -0.378  0.00  0.00    -0.350 OA
ATOM     11  C   LIG    1        5.175  -6.011  -0.324  0.00  0.00    +0.300 C 
ATOM     12  O   LIG    1        4.276  -2.613   1.621  0.00  0.00    -0.480 OA
ATOM     13  C   LIG    1        3.758  -5.569  -0.062  0.00  0.00    +0.500 C 
ATOM     14  O   LIG    1        2.833  -6.246  -0.458  0.00  0.00    -0.480 OA
ENDBRANCH   3   7
BRANCH   1  15
ATOM     15  C   LIG    1        0.618  -0.611   1.029  0.00  0.00    +0.460 C 
ATOM     16  O   LIG    1        1.124   0.049   1.905  0.00  0.00    -0.500 OA
BRANCH  15  18
ATOM     17  C   LIG    1       -0.018   1.448   0.010  0.00  0.00    +0.270 C 
ATOM     18  O   LIG    1        0.002  -0.004   0.002  0.00  0.00    -0.350 OA
ENDBRANCH  15  18
ENDBRANCH   1  15
TORSDOF 3
ENDMDL
MODEL     1300
REMARK  Name = ZINC000409443591
REMARK                            x       y       z     vdW  Elec       q    Type
REMARK                         _______ _______ _______ _____ _____    ______ ____
ROOT
ATOM      1  C   LIG    1       -0.018   1.461   0.010  0.00  0.00    +0.350 C 
ATOM      2  N   LIG    1        0.002  -0.004   0.002  0.00  0.00    -0.520 N 
ATOM      3  C   LIG    1       -1.176  -0.685   0.004  0.00  0.00    +0.440 A 
ATOM      4  C   LIG    1       -1.162  -2.055  -0.004  0.00  0.00    -0.200 A 
ATOM      5  C   LIG    1        0.141  -2.737  -0.013  0.00  0.00    +0.560 A 
ATOM      6  N   LIG    1        1.263  -1.986  -0.015  0.00  0.00    -0.650 N 
ATOM      7  H   LIG    1        2.132  -2.417  -0.021  0.00  0.00    +0.440 HD
ATOM      8  O   LIG    1        0.207  -3.952  -0.021  0.00  0.00    -0.460 OA
ATOM      9  C   LIG    1        1.182  -0.644  -0.013  0.00  0.00    +0.700 A 
ATOM     10  O   LIG    1        2.208   0.009  -0.014  0.00  0.00    -0.520 OA
ENDROOT
BRANCH   4  11
ATOM     11  C   LIG    1       -2.418  -2.824  -0.002  0.00  0.00    +0.250 A 
ATOM     12  N   LIG    1       -2.539  -4.142  -0.003  0.00  0.00    -0.440 NA
ATOM     13  C   LIG    1       -3.859  -4.382  -0.000  0.00  0.00    +0.170 A 
ATOM     14  N   LIG    1       -4.468  -3.233   0.003  0.00  0.00    -0.360 NA
ATOM     15  O   LIG    1       -3.665  -2.325   0.007  0.00  0.00    +0.080 OA
BRANCH  13  16
ATOM     16  C   LIG    1       -4.517  -5.737   0.000  0.00  0.00    +0.320 C 
BRANCH  16  17
ATOM     17  N   LIG    1       -4.727  -6.179   1.385  0.00  0.00    -0.840 NA
ATOM     18  H   LIG    1       -3.859  -6.183   1.899  0.00  0.00    +0.350 HD
ATOM     19  H   LIG    1       -5.167  -7.087   1.413  0.00  0.00    +0.360 HD
ENDBRANCH  16  17
ENDBRANCH  13  16
ENDBRANCH   4  11
TORSDOF 3
ENDMDL
MODEL     1301
REMARK  Name = ZINC000005908895
REMARK                            x       y       z     vdW  Elec       q    Type
REMARK                         _______ _______ _______ _____ _____    ______ ____
ROOT
ATOM      1  O   LIG    1        0.002  -0.004   0.002  0.00  0.00    -0.490 OA
ATOM      2  C   LIG    1       -0.014   1.211   0.009  0.00  0.00    +0.650 C 
ATOM      3  N   LIG    1       -1.153   1.955   0.029  0.00  0.00    -0.720 N 
ATOM      4  H   LIG    1       -2.062   1.618   0.057  0.00  0.00    +0.440 HD
ATOM      5  C   LIG    1       -0.749   3.347   0.002  0.00  0.00    +0.180 C 
ATOM      6  C   LIG    1        0.686   3.232  -0.585  0.00  0.00    +0.340 C 
ATOM      7  O   LIG    1        1.344   4.440  -0.290  0.00  0.00    -0.330 OA
ATOM      8  C   LIG    1        0.752   5.526  -1.032  0.00  0.00    +0.150 C 
ATOM      9  C   LIG    1       -0.737   5.678  -0.734  0.00  0.00    +0.140 C 
ATOM     10  C   LIG    1       -1.489   4.325  -0.884  0.00  0.00    +0.210 C 
ATOM     11  O   LIG    1        1.106   1.987   0.002  0.00  0.00    -0.310 OA
ENDROOT
BRANCH   9  12
ATOM     12  O   LIG    1       -0.897   6.165   0.600  0.00  0.00    -0.540 OA
ATOM     13  H   LIG    1       -0.481   7.024   0.758  0.00  0.00    +0.380 HD
ENDBRANCH   9  12
BRANCH  10  14
ATOM     14  O   LIG    1       -2.839   4.463  -0.436  0.00  0.00    -0.540 OA
ATOM     15  H   LIG    1       -3.350   5.123  -0.924  0.00  0.00    +0.390 HD
ENDBRANCH  10  14
BRANCH   8  16
ATOM     16  C   LIG    1        1.467   6.827  -0.664  0.00  0.00    +0.220 C 
BRANCH  16  17
ATOM     17  O   LIG    1        2.827   6.763  -1.098  0.00  0.00    -0.560 OA
ATOM     18  H   LIG    1        3.342   7.556  -0.897  0.00  0.00    +0.390 HD
ENDBRANCH  16  17
ENDBRANCH   8  16
TORSDOF 4
ENDMDL
MODEL     1302
REMARK  Name = ZINC000004761958
REMARK                            x       y       z     vdW  Elec       q    Type
REMARK                         _______ _______ _______ _____ _____    ______ ____
ROOT
ATOM      1  C   UNK A  1       -1.414  -2.036   0.129  0.00  0.00    +0.490 C 
ATOM      2  N   THR A  2       -1.226  -2.617   1.330  0.00  0.00    -0.660 N 
ATOM      3  H   THR A  2       -1.103  -2.068   2.120  0.00  0.00    +0.400 HD
ATOM      4  O   UNK A  1       -1.567  -2.722  -0.860  0.00  0.00    -0.540 OA
ENDROOT
BRANCH   1   5
ATOM      5  C   UNK A  1       -1.433  -0.534   0.013  0.00  0.00    +0.170 C 
BRANCH   5   6
ATOM      6  N   UNK A  1       -2.107  -0.147  -1.234  0.00  0.00    -0.620 N 
ATOM      7  H   UNK A  1       -1.610  -0.539  -2.020  0.00  0.00    +0.440 HD
ATOM      8  H   UNK A  1       -2.120   0.859  -1.311  0.00  0.00    +0.430 HD
ATOM      9  H   UNK A  1       -3.054  -0.496  -1.227  0.00  0.00    +0.440 HD
ENDBRANCH   5   6
BRANCH   5  11
ATOM     10  C   UNK A  1       -0.019   1.526   0.010  0.00  0.00    +0.040 C 
ATOM     11  C   UNK A  1        0.002  -0.004   0.002  0.00  0.00    +0.080 C 
ENDBRANCH   5  11
ENDBRANCH   1   5
BRANCH   2  12
ATOM     12  CA  THR A  2       -1.207  -4.078   1.442  0.00  0.00    +0.130 C 
BRANCH  12  13
ATOM     13  C   THR A  2        0.179  -4.587   1.141  0.00  0.00    +0.490 C 
ATOM     14  OXT THR A  2        0.373  -5.782   1.000  0.00  0.00    -0.670 OA
ATOM     15  O   THR A  2        1.108  -3.803   1.039  0.00  0.00    -0.680 OA
ENDBRANCH  12  13
BRANCH  12  16
ATOM     16  CB  THR A  2       -1.602  -4.485   2.863  0.00  0.00    +0.200 C 
ATOM     17  CG2 THR A  2       -1.703  -6.010   2.947  0.00  0.00    +0.020 C 
BRANCH  16  18
ATOM     18  OG1 THR A  2       -0.612  -4.022   3.784  0.00  0.00    -0.570 OA
ATOM     19  HG1 THR A  2        0.273  -4.376   3.622  0.00  0.00    +0.390 HD
ENDBRANCH  16  18
ENDBRANCH  12  16
ENDBRANCH   2  12
TORSDOF 7
ENDMDL
MODEL     1303
REMARK  Name = ZINC000003636934
REMARK                            x       y       z     vdW  Elec       q    Type
REMARK                         _______ _______ _______ _____ _____    ______ ____
ROOT
ATOM      1  C   LIG    1        0.002  -0.004   0.002  0.00  0.00    +0.540 A 
ATOM      2  C   LIG    1       -1.199  -0.741   0.004  0.00  0.00    -0.170 A 
ATOM      3  N   LIG    1       -2.502  -0.410   0.012  0.00  0.00    -0.190 NA
ATOM      4  N   LIG    1       -3.229  -1.472   0.010  0.00  0.00    +0.000 NA
ATOM      5  N   LIG    1       -2.399  -2.604  -0.000  0.00  0.00    -0.370 N 
ATOM      6  C   LIG    1       -1.112  -2.145  -0.004  0.00  0.00    +0.340 A 
ATOM      7  N   LIG    1        0.088  -2.719  -0.013  0.00  0.00    -0.570 NA
ATOM      8  C   LIG    1        1.182  -1.988  -0.014  0.00  0.00    +0.610 A 
ATOM      9  N   LIG    1        1.152  -0.668  -0.013  0.00  0.00    -0.600 NA
ENDROOT
BRANCH   1  10
ATOM     10  N   LIG    1       -0.017   1.378   0.010  0.00  0.00    -0.800 N 
ATOM     11  H   LIG    1       -0.863   1.851   0.016  0.00  0.00    +0.420 HD
ATOM     12  H   LIG    1        0.817   1.874   0.004  0.00  0.00    +0.420 HD
ENDBRANCH   1  10
BRANCH   5  13
ATOM     13  C   LIG    1       -2.829  -4.004  -0.007  0.00  0.00    +0.330 C 
BRANCH  13  14
ATOM     14  C   LIG    1       -2.986  -4.483  -1.451  0.00  0.00    +0.200 C 
BRANCH  14  15
ATOM     15  O   LIG    1       -4.045  -3.760  -2.081  0.00  0.00    -0.540 OA
ATOM     16  H   LIG    1       -4.904  -3.866  -1.650  0.00  0.00    +0.380 HD
ENDBRANCH  14  15
BRANCH  14  17
ATOM     17  C   LIG    1       -3.313  -5.978  -1.460  0.00  0.00    +0.170 C 
BRANCH  17  18
ATOM     18  O   LIG    1       -3.345  -6.450  -2.809  0.00  0.00    -0.560 OA
ATOM     19  H   LIG    1       -3.547  -7.392  -2.891  0.00  0.00    +0.380 HD
ENDBRANCH  17  18
ENDBRANCH  14  17
ENDBRANCH  13  14
ENDBRANCH   5  13
TORSDOF 6
ENDMDL
MODEL     1304
REMARK  Name = ZINC000253495436
REMARK                            x       y       z     vdW  Elec       q    Type
REMARK                         _______ _______ _______ _____ _____    ______ ____
ROOT
ATOM      1  O   LIG    1        0.002  -0.004   0.002  0.00  0.00    -0.530 OA
ATOM      2  C   LIG    1       -0.014   1.209   0.009  0.00  0.00    +0.550 C 
ATOM      3  N   LIG    1       -1.191   1.867   0.018  0.00  0.00    -0.600 N 
ATOM      4  C   LIG    1       -1.222   3.337   0.020  0.00  0.00    +0.240 C 
ATOM      5  C   LIG    1       -2.165   3.792  -1.101  0.00  0.00    +0.230 C 
ATOM      6  N   LIG    1       -3.477   3.164  -0.903  0.00  0.00    -0.680 NA
ATOM      7  H   LIG    1       -3.876   3.433  -0.016  0.00  0.00    +0.340 HD
ATOM      8  C   LIG    1       -3.411   1.702  -1.030  0.00  0.00    +0.210 C 
ATOM      9  C   LIG    1       -4.822   1.131  -0.767  0.00  0.00    -0.280 C 
ATOM     10  S   LIG    1       -4.873   0.799   1.031  0.00  0.00    +2.390 S 
ATOM     11  C   LIG    1       -3.146   1.293   1.399  0.00  0.00    -0.320 C 
ATOM     12  O   LIG    1       -5.023  -0.597   1.248  0.00  0.00    -0.920 OA
ATOM     13  O   LIG    1       -5.767   1.712   1.654  0.00  0.00    -0.930 OA
ATOM     14  C   LIG    1       -2.453   1.128   0.020  0.00  0.00    +0.240 C 
ENDROOT
BRANCH   2  15
ATOM     15  C   LIG    1        1.280   1.980   0.001  0.00  0.00    -0.070 C 
ATOM     16  C   LIG    1        2.152   1.909   1.256  0.00  0.00    +0.060 C 
ATOM     17  C   LIG    1        2.582   1.175  -0.016  0.00  0.00    +0.080 C 
ENDBRANCH   2  15
TORSDOF 1
ENDMDL
MODEL     1305
REMARK  Name = ZINC000308552786
REMARK                            x       y       z     vdW  Elec       q    Type
REMARK                         _______ _______ _______ _____ _____    ______ ____
ROOT
ATOM      1  S   UNK    1        0.982   3.636   1.212  0.00  0.00    +1.210 S 
ATOM      2  O   UNK    1        1.621   3.248   0.003  0.00  0.00    -0.880 OA
ENDROOT
BRANCH   1   3
ATOM      3  C   UNK    1       -0.720   3.008   1.225  0.00  0.00    -0.160 C 
BRANCH   3   4
ATOM      4  C   UNK    1       -0.699   1.479   1.216  0.00  0.00    +0.120 C 
BRANCH   4   5
ATOM      5  N   UNK    1       -0.012   1.005   0.008  0.00  0.00    -0.620 N 
ATOM      6  H   UNK    1       -0.500   1.339  -0.810  0.00  0.00    +0.430 HD
ATOM      7  H   UNK    1        0.935   1.354   0.000  0.00  0.00    +0.420 HD
ATOM      8  H   UNK    1        0.002  -0.004   0.002  0.00  0.00    +0.440 HD
ENDBRANCH   4   5
BRANCH   4   9
ATOM      9  C   UNK    1       -2.113   0.957   1.227  0.00  0.00    +0.490 C 
ATOM     10  O   UNK    1       -2.569   0.412   0.236  0.00  0.00    -0.670 OA
ATOM     11  O   UNK    1       -2.800   1.079   2.226  0.00  0.00    -0.630 OA
ENDBRANCH   4   9
ENDBRANCH   3   4
ENDBRANCH   1   3
BRANCH   1  12
ATOM     12  C   UNK    1        0.753   5.436   1.224  0.00  0.00    -0.150 C 
BRANCH  12  13
ATOM     13  C   UNK    1        2.120   6.124   1.214  0.00  0.00    +0.120 C 
BRANCH  13  14
ATOM     14  N   UNK    1        2.808   5.828  -0.049  0.00  0.00    -0.620 N 
ATOM     15  H   UNK    1        2.255   6.168  -0.821  0.00  0.00    +0.430 HD
ATOM     16  H   UNK    1        2.933   4.831  -0.139  0.00  0.00    +0.420 HD
ATOM     17  H   UNK    1        3.709   6.282  -0.055  0.00  0.00    +0.440 HD
ENDBRANCH  13  14
BRANCH  13  18
ATOM     18  C   UNK    1        1.933   7.613   1.348  0.00  0.00    +0.490 C 
ATOM     19  O   UNK    1        1.806   8.303   0.351  0.00  0.00    -0.660 OA
ATOM     20  O   UNK    1        1.909   8.128   2.453  0.00  0.00    -0.630 OA
ENDBRANCH  13  18
ENDBRANCH  12  13
ENDBRANCH   1  12
TORSDOF 8
ENDMDL
MODEL     1306
REMARK  Name = ZINC000409442720
REMARK                            x       y       z     vdW  Elec       q    Type
REMARK                         _______ _______ _______ _____ _____    ______ ____
ROOT
ATOM      1  C   LIG    1       -1.308   1.957  -0.220  0.00  0.00    -0.200 A 
ATOM      2  C   LIG    1       -2.509   1.269  -0.212  0.00  0.00    +0.240 A 
ATOM      3  N   LIG    1       -3.659   1.944   0.036  0.00  0.00    -0.530 N 
ATOM      4  C   LIG    1       -3.660   3.265   0.275  0.00  0.00    +0.710 A 
ATOM      5  N   LIG    1       -2.530   3.992   0.282  0.00  0.00    -0.660 N 
ATOM      6  H   LIG    1       -2.571   4.945   0.458  0.00  0.00    +0.430 HD
ATOM      7  O   LIG    1       -4.718   3.822   0.491  0.00  0.00    -0.550 OA
ATOM      8  C   LIG    1       -1.337   3.405   0.050  0.00  0.00    +0.530 A 
ATOM      9  O   LIG    1       -0.310   4.057   0.055  0.00  0.00    -0.440 OA
ENDROOT
BRANCH   3  10
ATOM     10  C   LIG    1       -4.929   1.215   0.045  0.00  0.00    +0.270 C 
ATOM     11  C   LIG    1       -4.950  -0.005  -0.894  0.00  0.00    +0.330 C 
ATOM     12  N   LIG    1       -4.467  -0.783   0.267  0.00  0.00    -0.540 N 
ATOM     13  H   LIG    1       -3.460  -0.823   0.323  0.00  0.00    +0.440 HD
ATOM     14  H   LIG    1       -4.895  -1.694   0.337  0.00  0.00    +0.430 HD
ATOM     15  C   LIG    1       -5.056   0.204   1.199  0.00  0.00    +0.320 C 
ENDBRANCH   3  10
BRANCH   1  17
ATOM     16  O   LIG    1       -0.040   0.060  -0.707  0.00  0.00    -0.690 OA
ATOM     17  C   LIG    1       -0.043   1.264  -0.484  0.00  0.00    +0.530 C 
ATOM     18  O   LIG    1        1.009   1.890  -0.487  0.00  0.00    -0.630 OA
ENDBRANCH   1  17
TORSDOF 2
ENDMDL
MODEL     1307
REMARK  Name = ZINC000013212543
REMARK                            x       y       z     vdW  Elec       q    Type
REMARK                         _______ _______ _______ _____ _____    ______ ____
ROOT
ATOM      1  C   LIG    1       -0.018   1.461   0.010  0.00  0.00    +0.360 C 
ATOM      2  N   LIG    1        0.002  -0.004   0.002  0.00  0.00    -0.410 N 
ATOM      3  C   LIG    1        0.009  -0.800  -1.085  0.00  0.00    +0.490 A 
ATOM      4  N   LIG    1        0.028  -2.054  -0.714  0.00  0.00    -0.480 NA
ATOM      5  C   LIG    1        0.034  -2.132   0.619  0.00  0.00    +0.330 A 
ATOM      6  N   LIG    1        0.053  -3.184   1.520  0.00  0.00    -0.500 N 
ATOM      7  C   LIG    1        0.052  -2.939   2.844  0.00  0.00    +0.710 A 
ATOM      8  O   LIG    1        0.064  -3.876   3.620  0.00  0.00    -0.540 OA
ATOM      9  N   LIG    1        0.042  -1.686   3.330  0.00  0.00    -0.550 N 
ATOM     10  C   LIG    1        0.046  -1.474   4.780  0.00  0.00    +0.340 C 
ATOM     11  C   LIG    1        0.028  -0.620   2.503  0.00  0.00    +0.600 A 
ATOM     12  O   LIG    1        0.019   0.510   2.955  0.00  0.00    -0.520 OA
ATOM     13  C   LIG    1        0.024  -0.831   1.107  0.00  0.00    -0.160 A 
ENDROOT
BRANCH   6  14
ATOM     14  C   LIG    1        0.063  -4.565   1.032  0.00  0.00    +0.340 C 
BRANCH  14  15
ATOM     15  C   LIG    1       -1.375  -5.058   0.863  0.00  0.00    +0.180 C 
BRANCH  15  16
ATOM     16  O   LIG    1       -2.021  -4.299  -0.162  0.00  0.00    -0.560 OA
ATOM     17  H   LIG    1       -2.939  -4.558  -0.323  0.00  0.00    +0.380 HD
ENDBRANCH  15  16
ENDBRANCH  14  15
ENDBRANCH   6  14
TORSDOF 3
ENDMDL
MODEL     1308
REMARK  Name = ZINC000013304560
REMARK                            x       y       z     vdW  Elec       q    Type
REMARK                         _______ _______ _______ _____ _____    ______ ____
ROOT
ATOM      1  C   LIG    1        0.673  -0.582   1.123  0.00  0.00    +0.180 C 
ATOM      2  C   LIG    1       -0.330  -0.815   2.257  0.00  0.00    +0.140 C 
ATOM      3  C   LIG    1       -1.387  -1.820   1.794  0.00  0.00    +0.150 C 
ATOM      4  O   LIG    1       -0.747  -3.036   1.401  0.00  0.00    -0.390 OA
ATOM      5  C   LIG    1        0.167  -2.888   0.313  0.00  0.00    +0.320 C 
ATOM      6  C   LIG    1        1.289  -1.925   0.715  0.00  0.00    +0.260 C 
ENDROOT
BRANCH   6   7
ATOM      7  N   LIG    1        2.195  -1.727  -0.419  0.00  0.00    -0.720 N 
ATOM      8  H   LIG    1        2.072  -0.969  -1.011  0.00  0.00    +0.400 HD
ATOM      9  C   LIG    1        3.199  -2.599  -0.638  0.00  0.00    +0.510 C 
ATOM     10  O   LIG    1        3.353  -3.546   0.102  0.00  0.00    -0.520 OA
ATOM     11  C   LIG    1        4.132  -2.396  -1.805  0.00  0.00    +0.090 C 
ENDBRANCH   6   7
BRANCH   1  13
ATOM     12  C   LIG    1       -0.017   1.425   0.010  0.00  0.00    +0.220 C 
ATOM     13  O   LIG    1        0.002  -0.004   0.002  0.00  0.00    -0.380 OA
ENDBRANCH   1  13
BRANCH   5  14
ATOM     14  O   LIG    1        0.727  -4.161  -0.015  0.00  0.00    -0.520 OA
ATOM     15  H   LIG    1        0.073  -4.822  -0.280  0.00  0.00    +0.380 HD
ENDBRANCH   5  14
BRANCH   2  16
ATOM     16  O   LIG    1        0.354  -1.331   3.401  0.00  0.00    -0.550 OA
ATOM     17  H   LIG    1       -0.222  -1.502   4.159  0.00  0.00    +0.380 HD
ENDBRANCH   2  16
BRANCH   3  18
ATOM     18  C   LIG    1       -2.359  -2.103   2.942  0.00  0.00    +0.200 C 
BRANCH  18  19
ATOM     19  O   LIG    1       -3.412  -2.950   2.476  0.00  0.00    -0.560 OA
ATOM     20  H   LIG    1       -4.067  -3.171   3.153  0.00  0.00    +0.380 HD
ENDBRANCH  18  19
ENDBRANCH   3  18
TORSDOF 6
ENDMDL
MODEL     1309
REMARK  Name = ZINC000014592707
REMARK                            x       y       z     vdW  Elec       q    Type
REMARK                         _______ _______ _______ _____ _____    ______ ____
ROOT
ATOM      1  C   LIG    1        3.820  -2.573  -0.843  0.00  0.00    +0.300 C 
ENDROOT
BRANCH   1   2
ATOM      2  N   LIG    1        2.715  -1.838  -1.462  0.00  0.00    -0.690 N 
ATOM      3  H   LIG    1        2.640  -1.798  -2.429  0.00  0.00    +0.410 HD
BRANCH   2   7
ATOM      4  C   LIG    1       -0.019   1.526   0.010  0.00  0.00    +0.070 C 
ATOM      5  C   LIG    1        0.002  -0.004   0.002  0.00  0.00    +0.160 C 
ATOM      6  N   LIG    1        0.735  -0.508  -1.174  0.00  0.00    -0.730 N 
ATOM      7  C   LIG    1        1.792  -1.211  -0.681  0.00  0.00    +0.660 C 
ATOM      8  N   LIG    1        1.820  -1.217   0.635  0.00  0.00    -0.660 NA
ATOM      9  H   LIG    1        0.511  -0.367  -2.107  0.00  0.00    +0.420 HD
ATOM     10  C   LIG    1        0.808  -0.535   1.171  0.00  0.00    +0.520 C 
ATOM     11  O   LIG    1        0.582  -0.371   2.354  0.00  0.00    -0.480 OA
ENDBRANCH   2   7
ENDBRANCH   1   2
BRANCH   1  12
ATOM     12  C   LIG    1        4.706  -3.178  -1.935  0.00  0.00    -0.010 C 
BRANCH  12  13
ATOM     13  C   LIG    1        5.860  -3.946  -1.288  0.00  0.00    +0.080 C 
BRANCH  13  14
ATOM     14  CA  LIG    1        6.746  -4.550  -2.379  0.00  0.00    +0.080 C 
BRANCH  14  15
ATOM     15  N   LIG    1        5.981  -5.557  -3.128  0.00  0.00    -0.620 N 
ATOM     16  H1  LIG    1        6.565  -5.955  -3.848  0.00  0.00    +0.430 HD
ATOM     17  H2  LIG    1        5.176  -5.121  -3.551  0.00  0.00    +0.410 HD
ATOM     18  H3  LIG    1        5.678  -6.285  -2.499  0.00  0.00    +0.430 HD
ENDBRANCH  14  15
BRANCH  14  19
ATOM     19  C   LIG    1        7.949  -5.202  -1.747  0.00  0.00    +0.490 C 
ATOM     20  OXT LIG    1        8.966  -4.555  -1.564  0.00  0.00    -0.630 OA
ATOM     21  O   LIG    1        7.904  -6.375  -1.417  0.00  0.00    -0.670 OA
ENDBRANCH  14  19
ENDBRANCH  13  14
ENDBRANCH  12  13
ENDBRANCH   1  12
TORSDOF 7
ENDMDL
MODEL     1310
REMARK  Name = ZINC000575621924
REMARK                            x       y       z     vdW  Elec       q    Type
REMARK                         _______ _______ _______ _____ _____    ______ ____
ROOT
ATOM      1  N   LIG    1        1.398  -2.528   2.296  0.00  0.00    -0.380 N 
ATOM      2  N   LIG    1        2.787  -2.701   2.256  0.00  0.00    -0.240 NA
ATOM      3  C   LIG    1        3.447  -3.069   3.326  0.00  0.00    +0.360 A 
ATOM      4  C   LIG    1        2.770  -3.298   4.539  0.00  0.00    +0.090 A 
ATOM      5  C   LIG    1        1.421  -3.136   4.600  0.00  0.00    +0.050 A 
ATOM      6  C   LIG    1        0.722  -2.734   3.444  0.00  0.00    +0.500 A 
ATOM      7  O   LIG    1       -0.489  -2.582   3.479  0.00  0.00    -0.510 OA
ENDROOT
BRANCH   3   8
ATOM      8  N   LIG    1        4.836  -3.236   3.263  0.00  0.00    -0.330 N 
ATOM      9  C   LIG    1        5.624  -3.051   2.185  0.00  0.00    +0.530 A 
ATOM     10  N   LIG    1        6.857  -3.308   2.537  0.00  0.00    -0.530 NA
ATOM     11  C   LIG    1        6.898  -3.658   3.822  0.00  0.00    +0.460 A 
ATOM     12  N   LIG    1        5.686  -3.623   4.311  0.00  0.00    -0.300 NA
ENDBRANCH   3   8
BRANCH   1  13
ATOM     13  C   LIG    1        0.679  -2.115   1.088  0.00  0.00    +0.440 C 
BRANCH  13  14
ATOM     14  C   LIG    1        0.618  -0.611   1.029  0.00  0.00    +0.450 C 
ATOM     15  O   LIG    1        1.124   0.049   1.905  0.00  0.00    -0.490 OA
BRANCH  14  17
ATOM     16  C   LIG    1       -0.018   1.448   0.010  0.00  0.00    +0.290 C 
ATOM     17  O   LIG    1        0.002  -0.004   0.002  0.00  0.00    -0.350 OA
ENDBRANCH  14  17
ENDBRANCH  13  14
ENDBRANCH   1  13
TORSDOF 4
ENDMDL
MODEL     1311
REMARK  Name = ZINC000013900818
REMARK                            x       y       z     vdW  Elec       q    Type
REMARK                         _______ _______ _______ _____ _____    ______ ____
ROOT
ATOM      1  C   LIG    1        0.673  -0.582   1.123  0.00  0.00    +0.180 C 
ATOM      2  C   LIG    1       -0.330  -0.815   2.257  0.00  0.00    +0.130 C 
ATOM      3  C   LIG    1        0.381  -1.506   3.423  0.00  0.00    +0.150 C 
ATOM      4  O   LIG    1        0.956  -2.733   2.969  0.00  0.00    -0.370 OA
ATOM      5  C   LIG    1        1.936  -2.574   1.942  0.00  0.00    +0.370 C 
ATOM      6  C   LIG    1        1.289  -1.925   0.715  0.00  0.00    +0.260 C 
ENDROOT
BRANCH   6   7
ATOM      7  N   LIG    1        0.240  -2.804   0.192  0.00  0.00    -0.710 N 
ATOM      8  H   LIG    1       -0.682  -2.671   0.460  0.00  0.00    +0.410 HD
ATOM      9  C   LIG    1        0.558  -3.796  -0.663  0.00  0.00    +0.510 C 
ATOM     10  O   LIG    1        1.712  -3.962  -0.998  0.00  0.00    -0.540 OA
ATOM     11  C   LIG    1       -0.520  -4.700  -1.202  0.00  0.00    +0.110 C 
ENDBRANCH   6   7
BRANCH   1  13
ATOM     12  C   LIG    1       -0.017   1.425   0.010  0.00  0.00    +0.220 C 
ATOM     13  O   LIG    1        0.002  -0.004   0.002  0.00  0.00    -0.370 OA
ENDBRANCH   1  13
BRANCH   5  14
ATOM     14  O   LIG    1        2.994  -1.740   2.418  0.00  0.00    -0.570 OA
ATOM     15  H   LIG    1        3.450  -2.090   3.196  0.00  0.00    +0.390 HD
ENDBRANCH   5  14
BRANCH   2  16
ATOM     16  O   LIG    1       -0.856   0.440   2.693  0.00  0.00    -0.550 OA
ATOM     17  H   LIG    1       -1.500   0.368   3.412  0.00  0.00    +0.380 HD
ENDBRANCH   2  16
BRANCH   3  18
ATOM     18  C   LIG    1       -0.628  -1.796   4.537  0.00  0.00    +0.200 C 
BRANCH  18  19
ATOM     19  O   LIG    1        0.056  -2.334   5.670  0.00  0.00    -0.560 OA
ATOM     20  H   LIG    1       -0.523  -2.542   6.416  0.00  0.00    +0.380 HD
ENDBRANCH  18  19
ENDBRANCH   3  18
TORSDOF 6
ENDMDL
MODEL     1312
REMARK  Name = ZINC000225765577
REMARK                            x       y       z     vdW  Elec       q    Type
REMARK                         _______ _______ _______ _____ _____    ______ ____
ROOT
ATOM      1  C   LIG    1       -0.051  -4.226   2.647  0.00  0.00    +0.170 C 
ATOM      2  C   LIG    1        1.247  -4.842   2.066  0.00  0.00    +0.090 C 
ATOM      3  C   LIG    1        1.657  -5.868   3.148  0.00  0.00    +0.090 C 
ATOM      4  CA  LIG    1        0.363  -6.173   3.925  0.00  0.00    +0.090 C 
ATOM      5  N   LIG    1       -0.720  -5.383   3.296  0.00  0.00    -0.480 N 
ATOM      6  H1  LIG    1       -1.198  -5.939   2.603  0.00  0.00    +0.440 HD
ATOM      7  H2  LIG    1       -1.371  -5.065   3.998  0.00  0.00    +0.420 HD
ENDROOT
BRANCH   1  14
ATOM      8  C   LIG    1       -0.018   1.465   0.010  0.00  0.00    +0.190 C 
ATOM      9  N   LIG    1        0.002  -0.004   0.002  0.00  0.00    -0.540 NA
ATOM     10  C   LIG    1       -1.359  -0.548  -0.091  0.00  0.00    +0.180 C 
ATOM     11  C   LIG    1       -1.286  -2.068  -0.279  0.00  0.00    +0.300 C 
ATOM     12  N   LIG    1       -0.463  -2.633   0.801  0.00  0.00    -0.590 N 
ATOM     13  C   LIG    1        0.864  -2.046   1.044  0.00  0.00    +0.280 C 
ATOM     14  C   LIG    1       -0.911  -3.662   1.546  0.00  0.00    +0.510 C 
ATOM     15  O   LIG    1       -2.007  -4.135   1.331  0.00  0.00    -0.520 OA
ATOM     16  C   LIG    1        0.706  -0.527   1.180  0.00  0.00    +0.180 C 
ENDBRANCH   1  14
BRANCH   4  17
ATOM     17  C   LIG    1        0.049  -7.644   3.841  0.00  0.00    +0.490 C 
ATOM     18  OXT LIG    1       -0.890  -8.029   3.164  0.00  0.00    -0.660 OA
ATOM     19  O   LIG    1        0.732  -8.449   4.450  0.00  0.00    -0.630 OA
ENDBRANCH   4  17
TORSDOF 2
ENDMDL
MODEL     1313
REMARK  Name = ZINC000011847567
REMARK                            x       y       z     vdW  Elec       q    Type
REMARK                         _______ _______ _______ _____ _____    ______ ____
ROOT
ATOM      1  C1* LIG    1        0.139  -4.130  -0.024  0.00  0.00    +0.470 C 
ATOM      2  O4* LIG    1        0.531  -4.603  -1.324  0.00  0.00    -0.330 OA
ATOM      3  C4* LIG    1        1.963  -4.784  -1.292  0.00  0.00    +0.180 C 
ATOM      4  C3* LIG    1        2.220  -5.392   0.110  0.00  0.00    +0.140 C 
ATOM      5  C2* LIG    1        1.185  -4.640   0.987  0.00  0.00    +0.150 C 
ENDROOT
BRANCH   1   9
ATOM      6  C   LIG    1        0.002  -0.004   0.002  0.00  0.00    +0.470 A 
ATOM      7  N   LIG    1       -1.131  -0.697   0.004  0.00  0.00    -0.580 NA
ATOM      8  C   LIG    1       -1.076  -2.031  -0.004  0.00  0.00    +0.630 A 
ATOM      9  N   LIG    1        0.110  -2.666  -0.014  0.00  0.00    -0.390 N 
ATOM     10  N   LIG    1        1.219  -2.014  -0.016  0.00  0.00    -0.160 NA
ATOM     11  O   LIG    1       -2.110  -2.680  -0.003  0.00  0.00    -0.520 OA
ATOM     12  C   LIG    1        1.229  -0.709  -0.013  0.00  0.00    +0.170 A 
BRANCH   6  13
ATOM     13  N   LIG    1       -0.017   1.371   0.010  0.00  0.00    -0.790 N 
ATOM     14  H   LIG    1       -0.863   1.845   0.016  0.00  0.00    +0.420 HD
ATOM     15  H   LIG    1        0.817   1.867   0.004  0.00  0.00    +0.420 HD
ENDBRANCH   6  13
ENDBRANCH   1   9
BRANCH   4  16
ATOM     16  O3* LIG    1        3.553  -5.121   0.547  0.00  0.00    -0.540 OA
ATOM     17  H3* LIG    1        3.762  -5.482   1.420  0.00  0.00    +0.390 HD
ENDBRANCH   4  16
BRANCH   5  18
ATOM     18  O2* LIG    1        0.586  -5.532   1.929  0.00  0.00    -0.550 OA
ATOM     19  H2* LIG    1        1.212  -5.926   2.551  0.00  0.00    +0.390 HD
ENDBRANCH   5  18
BRANCH   3  20
ATOM     20  C5* LIG    1        2.409  -5.750  -2.392  0.00  0.00    +0.220 C 
BRANCH  20  21
ATOM     21  O5* LIG    1        2.173  -5.157  -3.671  0.00  0.00    -0.570 OA
ATOM     22  H5* LIG    1        2.432  -5.714  -4.417  0.00  0.00    +0.390 HD
ENDBRANCH  20  21
ENDBRANCH   3  20
TORSDOF 6
ENDMDL
MODEL     1314
REMARK  Name = ZINC000036118986
REMARK                            x       y       z     vdW  Elec       q    Type
REMARK                         _______ _______ _______ _____ _____    ______ ____
ROOT
ATOM      1  O   LIG    1        0.002  -0.004   0.002  0.00  0.00    -0.450 OA
ATOM      2  C   LIG    1       -0.014   1.208   0.009  0.00  0.00    +0.540 C 
ATOM      3  C   LIG    1       -1.260   2.063   0.032  0.00  0.00    +0.040 C 
ATOM      4  C   LIG    1       -1.907   1.950   1.447  0.00  0.00    +0.270 C 
ATOM      5  C   LIG    1       -0.729   1.919   2.423  0.00  0.00    -0.030 C 
ATOM      6  C   LIG    1       -0.234   3.144   2.453  0.00  0.00    -0.030 C 
ATOM      7  C   LIG    1       -1.086   3.981   1.496  0.00  0.00    +0.270 C 
ATOM      8  O   LIG    1       -2.406   3.317   1.640  0.00  0.00    -0.330 OA
ATOM      9  C   LIG    1       -0.694   3.518   0.032  0.00  0.00    +0.040 C 
ATOM     10  C   LIG    1        0.802   3.307  -0.016  0.00  0.00    +0.540 C 
ATOM     11  O   LIG    1        1.633   4.189  -0.009  0.00  0.00    -0.440 OA
ATOM     12  N   LIG    1        1.067   1.994   0.003  0.00  0.00    -0.370 N 
ENDROOT
BRANCH  12  13
ATOM     13  N   LIG    1        2.372   1.486  -0.031  0.00  0.00    -0.290 N 
ATOM     14  C   LIG    1        3.524   2.198  -0.080  0.00  0.00    +0.410 A 
ATOM     15  N   LIG    1        4.509   1.342  -0.097  0.00  0.00    -0.270 NA
ATOM     16  N   LIG    1        4.043   0.144  -0.063  0.00  0.00    -0.270 NA
ATOM     17  C   LIG    1        2.739   0.181  -0.017  0.00  0.00    +0.410 A 
ENDBRANCH  12  13
TORSDOF 1
ENDMDL
MODEL     1315
REMARK  Name = ZINC000225765510
REMARK                            x       y       z     vdW  Elec       q    Type
REMARK                         _______ _______ _______ _____ _____    ______ ____
ROOT
ATOM      1  C   LIG    1       -0.009  -4.300   2.571  0.00  0.00    +0.160 C 
ATOM      2  C   LIG    1       -0.155  -3.585   3.938  0.00  0.00    +0.090 C 
ATOM      3  C   LIG    1        0.295  -4.696   4.922  0.00  0.00    +0.100 C 
ATOM      4  CA  LIG    1       -0.240  -5.984   4.262  0.00  0.00    +0.090 C 
ATOM      5  N   LIG    1       -0.424  -5.695   2.826  0.00  0.00    -0.480 N 
ATOM      6  H1  LIG    1        0.142  -6.325   2.278  0.00  0.00    +0.430 HD
ATOM      7  H2  LIG    1       -1.396  -5.809   2.579  0.00  0.00    +0.420 HD
ENDROOT
BRANCH   1  14
ATOM      8  C   LIG    1       -0.021   1.464   0.006  0.00  0.00    +0.190 C 
ATOM      9  N   LIG    1        0.001  -0.005  -0.000  0.00  0.00    -0.540 NA
ATOM     10  C   LIG    1       -1.360  -0.551  -0.095  0.00  0.00    +0.180 C 
ATOM     11  C   LIG    1       -1.285  -2.070  -0.281  0.00  0.00    +0.300 C 
ATOM     12  N   LIG    1       -0.463  -2.633   0.800  0.00  0.00    -0.590 N 
ATOM     13  C   LIG    1        0.863  -2.044   1.046  0.00  0.00    +0.280 C 
ATOM     14  C   LIG    1       -0.911  -3.662   1.546  0.00  0.00    +0.510 C 
ATOM     15  O   LIG    1       -2.041  -4.075   1.393  0.00  0.00    -0.530 OA
ATOM     16  C   LIG    1        0.704  -0.526   1.180  0.00  0.00    +0.180 C 
ENDBRANCH   1  14
BRANCH   4  17
ATOM     17  C   LIG    1        0.755  -7.102   4.438  0.00  0.00    +0.490 C 
ATOM     18  OXT LIG    1        1.395  -7.504   3.482  0.00  0.00    -0.670 OA
ATOM     19  O   LIG    1        0.920  -7.604   5.537  0.00  0.00    -0.630 OA
ENDBRANCH   4  17
TORSDOF 2
ENDMDL
MODEL     1316
REMARK  Name = ZINC000000895332
REMARK                            x       y       z     vdW  Elec       q    Type
REMARK                         _______ _______ _______ _____ _____    ______ ____
ROOT
ATOM      1  C   LIG    1       -1.136  -2.159   0.001  0.00  0.00    +0.260 C 
ATOM      2  C   LIG    1       -0.993  -2.676   1.435  0.00  0.00    +0.320 C 
ATOM      3  O   LIG    1       -2.124  -2.264   2.204  0.00  0.00    -0.390 OA
ATOM      4  C   LIG    1       -3.372  -2.765   1.721  0.00  0.00    +0.150 C 
ATOM      5  C   LIG    1       -3.611  -2.252   0.299  0.00  0.00    +0.120 C 
ATOM      6  C   LIG    1       -2.444  -2.685  -0.596  0.00  0.00    +0.190 C 
ENDROOT
BRANCH   1   9
ATOM      7  C   LIG    1       -0.018   1.503   0.010  0.00  0.00    +0.100 C 
ATOM      8  C   LIG    1        0.002  -0.004   0.002  0.00  0.00    +0.520 C 
ATOM      9  N   LIG    1       -1.156  -0.694   0.009  0.00  0.00    -0.710 N 
ATOM     10  H   LIG    1       -2.002  -0.220   0.020  0.00  0.00    +0.400 HD
ATOM     11  O   LIG    1        1.060  -0.596  -0.011  0.00  0.00    -0.530 OA
ENDBRANCH   1   9
BRANCH   5  12
ATOM     12  O   LIG    1       -4.831  -2.797  -0.207  0.00  0.00    -0.550 OA
ATOM     13  H   LIG    1       -5.612  -2.565   0.314  0.00  0.00    +0.390 HD
ENDBRANCH   5  12
BRANCH   2  14
ATOM     14  O   LIG    1        0.199  -2.144   2.017  0.00  0.00    -0.520 OA
ATOM     15  H   LIG    1        0.354  -2.431   2.927  0.00  0.00    +0.390 HD
ENDBRANCH   2  14
BRANCH   6  16
ATOM     16  O   LIG    1       -2.624  -2.149  -1.909  0.00  0.00    -0.550 OA
ATOM     17  H   LIG    1       -3.439  -2.437  -2.343  0.00  0.00    +0.390 HD
ENDBRANCH   6  16
BRANCH   4  18
ATOM     18  C   LIG    1       -4.503  -2.286   2.634  0.00  0.00    +0.200 C 
BRANCH  18  19
ATOM     19  O   LIG    1       -4.342  -2.860   3.933  0.00  0.00    -0.560 OA
ATOM     20  H   LIG    1       -5.025  -2.598   4.565  0.00  0.00    +0.390 HD
ENDBRANCH  18  19
ENDBRANCH   4  18
TORSDOF 6
ENDMDL
MODEL     1317
REMARK  Name = ZINC000014638265
REMARK                            x       y       z     vdW  Elec       q    Type
REMARK                         _______ _______ _______ _____ _____    ______ ____
ROOT
ATOM      1  C   LIG    1        0.051  -2.753   2.437  0.00  0.00    +0.270 C 
ENDROOT
BRANCH   1   7
ATOM      2  C   LIG    1       -0.018   1.503   0.010  0.00  0.00    +0.140 C 
ATOM      3  C   LIG    1        0.002  -0.004   0.002  0.00  0.00    +0.090 A 
ATOM      4  C   LIG    1        0.006  -0.689  -1.200  0.00  0.00    +0.220 A 
ATOM      5  N   LIG    1        0.024  -2.011  -1.207  0.00  0.00    -0.430 NA
ATOM      6  C   LIG    1        0.038  -2.677  -0.067  0.00  0.00    +0.220 A 
ATOM      7  C   LIG    1        0.034  -1.992   1.136  0.00  0.00    +0.060 A 
ATOM      8  N   LIG    1        0.022  -0.671   1.143  0.00  0.00    -0.430 NA
ENDBRANCH   1   7
BRANCH   1   9
ATOM      9  O   LIG    1       -0.706  -3.956   2.294  0.00  0.00    -0.520 OA
ATOM     10  H   LIG    1       -0.372  -4.553   1.611  0.00  0.00    +0.370 HD
ENDBRANCH   1   9
BRANCH   1  11
ATOM     11  C   LIG    1        1.494  -3.099   2.807  0.00  0.00    +0.170 C 
BRANCH  11  12
ATOM     12  O   LIG    1        2.107  -3.805   1.726  0.00  0.00    -0.550 OA
ATOM     13  H   LIG    1        1.664  -4.634   1.497  0.00  0.00    +0.370 HD
ENDBRANCH  11  12
BRANCH  11  14
ATOM     14  C   LIG    1        1.503  -3.977   4.060  0.00  0.00    +0.200 C 
BRANCH  14  15
ATOM     15  O   LIG    1        0.680  -5.124   3.843  0.00  0.00    -0.530 OA
ATOM     16  H   LIG    1        0.964  -5.679   3.104  0.00  0.00    +0.360 HD
ENDBRANCH  14  15
BRANCH  14  17
ATOM     17  C   LIG    1        2.935  -4.426   4.358  0.00  0.00    +0.160 C 
BRANCH  17  18
ATOM     18  O   LIG    1        2.961  -5.148   5.591  0.00  0.00    -0.560 OA
ATOM     19  H   LIG    1        3.839  -5.464   5.843  0.00  0.00    +0.380 HD
ENDBRANCH  17  18
ENDBRANCH  14  17
ENDBRANCH  11  14
ENDBRANCH   1  11
TORSDOF 8
ENDMDL
MODEL     1318
REMARK  Name = ZINC000014638262
REMARK                            x       y       z     vdW  Elec       q    Type
REMARK                         _______ _______ _______ _____ _____    ______ ____
ROOT
ATOM      1  C   LIG    1        0.051  -2.753   2.437  0.00  0.00    +0.260 C 
ENDROOT
BRANCH   1   7
ATOM      2  C   LIG    1       -0.018   1.503   0.010  0.00  0.00    +0.150 C 
ATOM      3  C   LIG    1        0.002  -0.004   0.002  0.00  0.00    +0.090 A 
ATOM      4  C   LIG    1        0.006  -0.689  -1.200  0.00  0.00    +0.220 A 
ATOM      5  N   LIG    1        0.024  -2.011  -1.207  0.00  0.00    -0.430 NA
ATOM      6  C   LIG    1        0.038  -2.677  -0.067  0.00  0.00    +0.200 A 
ATOM      7  C   LIG    1        0.034  -1.992   1.136  0.00  0.00    +0.060 A 
ATOM      8  N   LIG    1        0.022  -0.671   1.143  0.00  0.00    -0.420 NA
ENDBRANCH   1   7
BRANCH   1   9
ATOM      9  O   LIG    1       -0.706  -3.956   2.294  0.00  0.00    -0.520 OA
ATOM     10  H   LIG    1       -0.372  -4.553   1.611  0.00  0.00    +0.370 HD
ENDBRANCH   1   9
BRANCH   1  11
ATOM     11  C   LIG    1        1.494  -3.099   2.807  0.00  0.00    +0.160 C 
BRANCH  11  12
ATOM     12  O   LIG    1        2.252  -1.895   2.949  0.00  0.00    -0.540 OA
ATOM     13  H   LIG    1        1.917  -1.299   3.632  0.00  0.00    +0.380 HD
ENDBRANCH  11  12
BRANCH  11  14
ATOM     14  C   LIG    1        1.511  -3.871   4.127  0.00  0.00    +0.200 C 
BRANCH  14  15
ATOM     15  O   LIG    1        0.754  -5.075   3.985  0.00  0.00    -0.530 OA
ATOM     16  H   LIG    1        1.089  -5.671   3.301  0.00  0.00    +0.370 HD
ENDBRANCH  14  15
BRANCH  14  17
ATOM     17  C   LIG    1        2.955  -4.217   4.497  0.00  0.00    +0.160 C 
BRANCH  17  18
ATOM     18  O   LIG    1        2.981  -4.835   5.786  0.00  0.00    -0.560 OA
ATOM     19  H   LIG    1        3.867  -5.082   6.085  0.00  0.00    +0.380 HD
ENDBRANCH  17  18
ENDBRANCH  14  17
ENDBRANCH  11  14
ENDBRANCH   1  11
TORSDOF 8
ENDMDL
MODEL     1319
REMARK  Name = ZINC000000968143
REMARK                            x       y       z     vdW  Elec       q    Type
REMARK                         _______ _______ _______ _____ _____    ______ ____
ROOT
ATOM      1  C   LIG    1       -1.136  -2.159   0.001  0.00  0.00    +0.280 C 
ATOM      2  C   LIG    1       -1.020  -2.661  -1.440  0.00  0.00    +0.350 C 
ATOM      3  O   LIG    1       -1.059  -4.089  -1.450  0.00  0.00    -0.370 OA
ATOM      4  C   LIG    1       -2.269  -4.644  -0.930  0.00  0.00    +0.150 C 
ATOM      5  C   LIG    1       -2.435  -4.221   0.532  0.00  0.00    +0.130 C 
ATOM      6  C   LIG    1       -2.433  -2.692   0.618  0.00  0.00    +0.190 C 
ENDROOT
BRANCH   1   9
ATOM      7  C   LIG    1       -0.018   1.503   0.010  0.00  0.00    +0.100 C 
ATOM      8  C   LIG    1        0.002  -0.004   0.002  0.00  0.00    +0.510 C 
ATOM      9  N   LIG    1       -1.156  -0.694   0.009  0.00  0.00    -0.710 N 
ATOM     10  H   LIG    1       -2.002  -0.220   0.020  0.00  0.00    +0.410 HD
ATOM     11  O   LIG    1        1.060  -0.596  -0.011  0.00  0.00    -0.550 OA
ENDBRANCH   1   9
BRANCH   5  12
ATOM     12  O   LIG    1       -1.354  -4.745   1.306  0.00  0.00    -0.550 OA
ATOM     13  H   LIG    1       -1.293  -5.710   1.294  0.00  0.00    +0.380 HD
ENDBRANCH   5  12
BRANCH   2  14
ATOM     14  O   LIG    1       -2.108  -2.149  -2.212  0.00  0.00    -0.550 OA
ATOM     15  H   LIG    1       -2.099  -2.427  -3.138  0.00  0.00    +0.380 HD
ENDBRANCH   2  14
BRANCH   6  16
ATOM     16  O   LIG    1       -3.553  -2.170  -0.100  0.00  0.00    -0.530 OA
ATOM     17  H   LIG    1       -4.409  -2.473   0.233  0.00  0.00    +0.380 HD
ENDBRANCH   6  16
BRANCH   4  18
ATOM     18  C   LIG    1       -2.210  -6.170  -1.017  0.00  0.00    +0.200 C 
BRANCH  18  19
ATOM     19  O   LIG    1       -2.171  -6.568  -2.389  0.00  0.00    -0.560 OA
ATOM     20  H   LIG    1       -2.133  -7.525  -2.520  0.00  0.00    +0.380 HD
ENDBRANCH  18  19
ENDBRANCH   4  18
TORSDOF 6
ENDMDL
MODEL     1320
REMARK  Name = ZINC000015249261
REMARK                            x       y       z     vdW  Elec       q    Type
REMARK                         _______ _______ _______ _____ _____    ______ ____
ROOT
ATOM      1  C   LIG    1       -0.642  -2.676   1.301  0.00  0.00    +0.170 C 
ENDROOT
BRANCH   1   2
ATOM      2  O   LIG    1        0.719  -2.252   1.408  0.00  0.00    -0.520 OA
ATOM      3  H   LIG    1        1.283  -2.556   0.684  0.00  0.00    +0.380 HD
ENDBRANCH   1   2
BRANCH   1   4
ATOM      4  C   LIG    1       -1.244  -2.135   0.003  0.00  0.00    +0.230 C 
BRANCH   4   5
ATOM      5  C   LIG    1       -1.185  -0.630   0.010  0.00  0.00    +0.430 C 
ATOM      6  O   LIG    1       -2.208   0.015   0.023  0.00  0.00    -0.500 OA
BRANCH   5   8
ATOM      7  C   LIG    1       -0.018   1.448   0.010  0.00  0.00    +0.250 C 
ATOM      8  O   LIG    1        0.002  -0.004   0.002  0.00  0.00    -0.340 OA
ENDBRANCH   5   8
ENDBRANCH   4   5
BRANCH   4   9
ATOM      9  O   LIG    1       -2.605  -2.559  -0.104  0.00  0.00    -0.510 OA
ATOM     10  H   LIG    1       -3.169  -2.255   0.620  0.00  0.00    +0.380 HD
ENDBRANCH   4   9
ENDBRANCH   1   4
BRANCH   1  11
ATOM     11  C   LIG    1       -0.701  -4.205   1.294  0.00  0.00    +0.170 C 
BRANCH  11  12
ATOM     12  O   LIG    1       -2.062  -4.628   1.187  0.00  0.00    -0.520 OA
ATOM     13  H   LIG    1       -2.627  -4.324   1.911  0.00  0.00    +0.380 HD
ENDBRANCH  11  12
BRANCH  11  14
ATOM     14  C   LIG    1       -0.100  -4.745   2.592  0.00  0.00    +0.230 C 
BRANCH  14  15
ATOM     15  C   LIG    1       -0.158  -6.251   2.585  0.00  0.00    +0.430 C 
ATOM     16  O   LIG    1        0.864  -6.895   2.572  0.00  0.00    -0.500 OA
BRANCH  15  17
ATOM     17  O   LIG    1       -1.346  -6.876   2.593  0.00  0.00    -0.340 OA
ATOM     18  C   LIG    1       -1.326  -8.328   2.585  0.00  0.00    +0.250 C 
ENDBRANCH  15  17
ENDBRANCH  14  15
BRANCH  14  19
ATOM     19  O   LIG    1        1.261  -4.322   2.699  0.00  0.00    -0.510 OA
ATOM     20  H   LIG    1        1.825  -4.625   1.975  0.00  0.00    +0.380 HD
ENDBRANCH  14  19
ENDBRANCH  11  14
ENDBRANCH   1  11
TORSDOF 11
ENDMDL
MODEL     1321
REMARK  Name = ZINC000012358678
REMARK                            x       y       z     vdW  Elec       q    Type
REMARK                         _______ _______ _______ _____ _____    ______ ____
ROOT
ATOM      1  C   LIG    1        0.531   1.752   0.204  0.00  0.00    +0.020 C 
ATOM      2  C   LIG    1        0.247   0.260   0.017  0.00  0.00    +0.090 C 
ATOM      3  C   LIG    1       -1.260   0.042  -0.140  0.00  0.00    +0.330 C 
ATOM      4  O   LIG    1       -1.528  -1.357  -0.257  0.00  0.00    -0.370 OA
ATOM      5  C   LIG    1       -1.129  -2.124   0.881  0.00  0.00    +0.150 C 
ATOM      6  C   LIG    1        0.384  -1.993   1.078  0.00  0.00    +0.130 C 
ATOM      7  C   LIG    1        0.804  -2.763   2.332  0.00  0.00    +0.030 C 
ATOM      8  C   LIG    1        0.743  -0.513   1.243  0.00  0.00    +0.170 C 
ATOM      9  C   LIG    1        0.072   0.040   2.502  0.00  0.00    +0.050 C 
ENDROOT
BRANCH   6  10
ATOM     10  O   LIG    1        1.062  -2.527  -0.060  0.00  0.00    -0.520 OA
ATOM     11  H   LIG    1        0.877  -3.461  -0.226  0.00  0.00    +0.360 HD
ENDBRANCH   6  10
BRANCH   3  12
ATOM     12  O   LIG    1       -1.938   0.563   1.004  0.00  0.00    -0.570 OA
ATOM     13  H   LIG    1       -2.899   0.459   0.973  0.00  0.00    +0.390 HD
ENDBRANCH   3  12
BRANCH   2  14
ATOM     14  O   LIG    1        0.923  -0.211  -1.151  0.00  0.00    -0.510 OA
ATOM     15  H   LIG    1        0.657   0.234  -1.967  0.00  0.00    +0.370 HD
ENDBRANCH   2  14
BRANCH   8  16
ATOM     16  O   LIG    1        2.161  -0.374   1.354  0.00  0.00    -0.530 OA
ATOM     17  H   LIG    1        2.459   0.539   1.461  0.00  0.00    +0.370 HD
ENDBRANCH   8  16
BRANCH   5  18
ATOM     18  C   LIG    1       -1.488  -3.594   0.656  0.00  0.00    +0.210 C 
BRANCH  18  19
ATOM     19  O   LIG    1       -2.909  -3.732   0.587  0.00  0.00    -0.560 OA
ATOM     20  H   LIG    1       -3.210  -4.640   0.445  0.00  0.00    +0.380 HD
ENDBRANCH  18  19
ENDBRANCH   5  18
TORSDOF 6
ENDMDL
MODEL     1322
REMARK  Name = ZINC000012358950
REMARK                            x       y       z     vdW  Elec       q    Type
REMARK                         _______ _______ _______ _____ _____    ______ ____
ROOT
ATOM      1  C   LIG    1       -0.019   1.526   0.010  0.00  0.00    +0.060 C 
ATOM      2  C   LIG    1        0.002  -0.004   0.002  0.00  0.00    +0.150 C 
ATOM      3  O   LIG    1       -1.339  -0.499   0.013  0.00  0.00    -0.370 OA
ATOM      4  C   LIG    1       -1.435  -1.924  -0.020  0.00  0.00    +0.270 C 
ATOM      5  C   LIG    1       -0.753  -2.509   1.220  0.00  0.00    +0.150 C 
ATOM      6  C   LIG    1        0.706  -2.043   1.258  0.00  0.00    +0.170 C 
ATOM      7  C   LIG    1        1.374  -2.557   2.535  0.00  0.00    +0.040 C 
ATOM      8  C   LIG    1       -0.800  -4.037   1.157  0.00  0.00    +0.040 C 
ATOM      9  C   LIG    1        0.742  -0.511   1.242  0.00  0.00    +0.080 C 
ATOM     10  C   LIG    1        2.195  -0.035   1.202  0.00  0.00    +0.020 C 
ENDROOT
BRANCH   6  11
ATOM     11  O   LIG    1        1.400  -2.550   0.117  0.00  0.00    -0.530 OA
ATOM     12  H   LIG    1        2.332  -2.293   0.077  0.00  0.00    +0.380 HD
ENDBRANCH   6  11
BRANCH   5  13
ATOM     13  O   LIG    1       -1.430  -2.058   2.394  0.00  0.00    -0.520 OA
ATOM     14  H   LIG    1       -2.362  -2.315   2.434  0.00  0.00    +0.370 HD
ENDBRANCH   5  13
BRANCH   4  15
ATOM     15  O   LIG    1       -0.790  -2.419  -1.196  0.00  0.00    -0.540 OA
ATOM     16  H   LIG    1       -1.171  -2.088  -2.021  0.00  0.00    +0.380 HD
ENDBRANCH   4  15
BRANCH   9  17
ATOM     17  O   LIG    1        0.105  -0.007   2.418  0.00  0.00    -0.520 OA
ATOM     18  H   LIG    1        0.091   0.959   2.474  0.00  0.00    +0.370 HD
ENDBRANCH   9  17
BRANCH   4  19
ATOM     19  C   LIG    1       -2.908  -2.336  -0.034  0.00  0.00    +0.190 C 
BRANCH  19  20
ATOM     20  O   LIG    1       -3.544  -1.790  -1.191  0.00  0.00    -0.560 OA
ATOM     21  H   LIG    1       -4.483  -2.011  -1.265  0.00  0.00    +0.390 HD
ENDBRANCH  19  20
ENDBRANCH   4  19
TORSDOF 6
ENDMDL
MODEL     1323
REMARK  Name = ZINC000012358809
REMARK                            x       y       z     vdW  Elec       q    Type
REMARK                         _______ _______ _______ _____ _____    ______ ____
ROOT
ATOM      1  C   LIG    1       -0.019   1.528   0.010  0.00  0.00    +0.020 C 
ATOM      2  C   LIG    1        0.002  -0.004   0.002  0.00  0.00    +0.280 C 
ATOM      3  O   LIG    1        0.546  -0.482  -1.218  0.00  0.00    -0.370 OA
ATOM      4  C   LIG    1        1.947  -0.303  -1.393  0.00  0.00    +0.160 C 
ATOM      5  C   LIG    1        2.684  -1.096  -0.314  0.00  0.00    +0.080 C 
ATOM      6  C   LIG    1        2.242  -0.651   1.075  0.00  0.00    +0.170 C 
ATOM      7  C   LIG    1        2.918   0.679   1.431  0.00  0.00    +0.040 C 
ATOM      8  C   LIG    1        2.409  -2.591  -0.501  0.00  0.00    +0.040 C 
ATOM      9  C   LIG    1        0.733  -0.534   1.226  0.00  0.00    +0.140 C 
ATOM     10  C   LIG    1        0.437   0.409   2.410  0.00  0.00    +0.040 C 
ENDROOT
BRANCH   6  11
ATOM     11  O   LIG    1        2.709  -1.636   2.023  0.00  0.00    -0.540 OA
ATOM     12  H   LIG    1        3.670  -1.746   2.034  0.00  0.00    +0.380 HD
ENDBRANCH   6  11
BRANCH   5  13
ATOM     13  O   LIG    1        4.094  -0.869  -0.453  0.00  0.00    -0.550 OA
ATOM     14  H   LIG    1        4.453  -1.139  -1.309  0.00  0.00    +0.380 HD
ENDBRANCH   5  13
BRANCH   2  15
ATOM     15  O   LIG    1       -1.368  -0.454   0.076  0.00  0.00    -0.540 OA
ATOM     16  H   LIG    1       -1.921  -0.153  -0.658  0.00  0.00    +0.390 HD
ENDBRANCH   2  15
BRANCH   9  17
ATOM     17  O   LIG    1        0.193  -1.824   1.565  0.00  0.00    -0.530 OA
ATOM     18  H   LIG    1       -0.767  -1.830   1.678  0.00  0.00    +0.380 HD
ENDBRANCH   9  17
BRANCH   4  19
ATOM     19  C   LIG    1        2.357  -0.832  -2.773  0.00  0.00    +0.200 C 
BRANCH  19  20
ATOM     20  O   LIG    1        1.742  -0.038  -3.790  0.00  0.00    -0.560 OA
ATOM     21  H   LIG    1        1.958  -0.316  -4.690  0.00  0.00    +0.380 HD
ENDBRANCH  19  20
ENDBRANCH   4  19
TORSDOF 6
ENDMDL
MODEL     1324
REMARK  Name = ZINC000012358948
REMARK                            x       y       z     vdW  Elec       q    Type
REMARK                         _______ _______ _______ _____ _____    ______ ____
ROOT
ATOM      1  C   LIG    1        0.887   1.388   0.585  0.00  0.00    +0.070 C 
ATOM      2  C   LIG    1        0.600  -0.101   0.383  0.00  0.00    +0.150 C 
ATOM      3  O   LIG    1       -0.808  -0.300   0.241  0.00  0.00    -0.370 OA
ATOM      4  C   LIG    1       -1.186  -1.660   0.022  0.00  0.00    +0.270 C 
ATOM      5  C   LIG    1       -0.753  -2.509   1.220  0.00  0.00    +0.150 C 
ATOM      6  C   LIG    1        0.760  -2.368   1.415  0.00  0.00    +0.170 C 
ATOM      7  C   LIG    1        1.191  -3.150   2.657  0.00  0.00    +0.030 C 
ATOM      8  C   LIG    1       -1.477  -2.025   2.478  0.00  0.00    +0.070 C 
ATOM      9  C   LIG    1        1.105  -0.887   1.596  0.00  0.00    +0.080 C 
ATOM     10  C   LIG    1        2.622  -0.726   1.714  0.00  0.00    +0.020 C 
ENDROOT
BRANCH   6  11
ATOM     11  O   LIG    1        1.440  -2.882   0.267  0.00  0.00    -0.520 OA
ATOM     12  H   LIG    1        2.403  -2.824   0.322  0.00  0.00    +0.370 HD
ENDBRANCH   6  11
BRANCH   5  13
ATOM     13  O   LIG    1       -1.079  -3.879   0.978  0.00  0.00    -0.530 OA
ATOM     14  H   LIG    1       -2.022  -4.040   0.841  0.00  0.00    +0.370 HD
ENDBRANCH   5  13
BRANCH   4  15
ATOM     15  O   LIG    1       -0.550  -2.146  -1.162  0.00  0.00    -0.530 OA
ATOM     16  H   LIG    1       -0.778  -1.654  -1.962  0.00  0.00    +0.380 HD
ENDBRANCH   4  15
BRANCH   9  17
ATOM     17  O   LIG    1        0.478  -0.392   2.781  0.00  0.00    -0.540 OA
ATOM     18  H   LIG    1        0.654   0.542   2.958  0.00  0.00    +0.380 HD
ENDBRANCH   9  17
BRANCH   4  19
ATOM     19  C   LIG    1       -2.705  -1.748  -0.143  0.00  0.00    +0.200 C 
BRANCH  19  20
ATOM     20  O   LIG    1       -3.109  -0.955  -1.261  0.00  0.00    -0.560 OA
ATOM     21  H   LIG    1       -4.062  -0.963  -1.425  0.00  0.00    +0.390 HD
ENDBRANCH  19  20
ENDBRANCH   4  19
TORSDOF 6
ENDMDL
MODEL     1325
REMARK  Name = ZINC000012358834
REMARK                            x       y       z     vdW  Elec       q    Type
REMARK                         _______ _______ _______ _____ _____    ______ ____
ROOT
ATOM      1  C   LIG    1        0.289   1.619   0.152  0.00  0.00    +0.040 C 
ATOM      2  C   LIG    1        0.198   0.094   0.075  0.00  0.00    +0.090 C 
ATOM      3  C   LIG    1       -1.272  -0.329   0.024  0.00  0.00    +0.300 C 
ATOM      4  O   LIG    1       -1.356  -1.755   0.010  0.00  0.00    -0.380 OA
ATOM      5  C   LIG    1       -0.800  -2.384   1.167  0.00  0.00    +0.160 C 
ATOM      6  C   LIG    1        0.690  -2.043   1.264  0.00  0.00    +0.120 C 
ATOM      7  C   LIG    1        1.421  -2.597   0.039  0.00  0.00    +0.060 C 
ATOM      8  C   LIG    1        0.856  -0.522   1.314  0.00  0.00    +0.170 C 
ATOM      9  C   LIG    1        0.183   0.025   2.575  0.00  0.00    +0.040 C 
ENDROOT
BRANCH   6  10
ATOM     10  O   LIG    1        1.236  -2.624   2.450  0.00  0.00    -0.540 OA
ATOM     11  H   LIG    1        1.160  -3.587   2.486  0.00  0.00    +0.380 HD
ENDBRANCH   6  10
BRANCH   3  12
ATOM     12  O   LIG    1       -1.878   0.196  -1.159  0.00  0.00    -0.540 OA
ATOM     13  H   LIG    1       -2.812  -0.033  -1.258  0.00  0.00    +0.390 HD
ENDBRANCH   3  12
BRANCH   2  14
ATOM     14  O   LIG    1        0.870  -0.365  -1.100  0.00  0.00    -0.530 OA
ATOM     15  H   LIG    1        0.504  -0.016  -1.924  0.00  0.00    +0.380 HD
ENDBRANCH   2  14
BRANCH   8  16
ATOM     16  O   LIG    1        2.246  -0.193   1.331  0.00  0.00    -0.530 OA
ATOM     17  H   LIG    1        2.425   0.757   1.362  0.00  0.00    +0.380 HD
ENDBRANCH   8  16
BRANCH   5  18
ATOM     18  C   LIG    1       -0.971  -3.900   1.055  0.00  0.00    +0.200 C 
BRANCH  18  19
ATOM     19  O   LIG    1       -2.362  -4.225   1.081  0.00  0.00    -0.560 OA
ATOM     20  H   LIG    1       -2.546  -5.173   1.014  0.00  0.00    +0.380 HD
ENDBRANCH  18  19
ENDBRANCH   5  18
TORSDOF 6
ENDMDL
MODEL     1326
REMARK  Name = ZINC000001529866
REMARK                            x       y       z     vdW  Elec       q    Type
REMARK                         _______ _______ _______ _____ _____    ______ ____
ROOT
ATOM      1  CA  ARG A  1       -1.968  -0.335  -1.325  0.00  0.00    +0.090 C 
ENDROOT
BRANCH   1   2
ATOM      2  N   ARG A  1       -1.720  -0.634   0.091  0.00  0.00    -0.460 N 
ATOM      3  H1  ARG A  1       -2.438  -0.206   0.656  0.00  0.00    +0.410 HD
ATOM      4  H2  ARG A  1       -1.733  -1.633   0.231  0.00  0.00    +0.400 HD
BRANCH   2   6
ATOM      5  CB  ARG A  1       -0.211  -0.283   1.988  0.00  0.00    +0.070 C 
ATOM      6  CA  ARG A  1       -0.407  -0.102   0.481  0.00  0.00    +0.090 C 
BRANCH   6   7
ATOM      7  C   ARG A  1        0.675  -0.844  -0.259  0.00  0.00    +0.500 C 
ATOM      8  OXT ARG A  1        1.721  -0.281  -0.534  0.00  0.00    -0.640 OA
ATOM      9  O   ARG A  1        0.506  -2.007  -0.583  0.00  0.00    -0.690 OA
ENDBRANCH   6   7
ENDBRANCH   2   6
ENDBRANCH   1   2
BRANCH   1  10
ATOM     10  C   ARG A  1       -2.095   1.156  -1.509  0.00  0.00    +0.500 C 
ATOM     11  OXT ARG A  1       -2.319   1.872  -0.548  0.00  0.00    -0.670 OA
ATOM     12  O   ARG A  1       -1.973   1.646  -2.619  0.00  0.00    -0.640 OA
ENDBRANCH   1  10
BRANCH   1  13
ATOM     13  CB  ARG A  1       -3.264  -1.015  -1.771  0.00  0.00    +0.070 C 
BRANCH  13  14
ATOM     14  CG  ARG A  1       -3.093  -2.534  -1.702  0.00  0.00    +0.030 C 
BRANCH  14  15
ATOM     15  CD  ARG A  1       -4.389  -3.214  -2.148  0.00  0.00    +0.280 C 
BRANCH  15  16
ATOM     16  NE  ARG A  1       -4.224  -4.668  -2.082  0.00  0.00    -0.690 N 
ATOM     17  HE  ARG A  1       -3.382  -5.048  -1.788  0.00  0.00    +0.440 HD
ATOM     18  CZ  ARG A  1       -5.259  -5.490  -2.436  0.00  0.00    +0.740 C 
BRANCH  18  19
ATOM     19  NH2 ARG A  1       -5.109  -6.812  -2.377  0.00  0.00    -0.800 N 
ATOM     20 HH21 ARG A  1       -5.843  -7.395  -2.628  0.00  0.00    +0.440 HD
ATOM     21 HH22 ARG A  1       -4.267  -7.192  -2.083  0.00  0.00    +0.440 HD
ENDBRANCH  18  19
BRANCH  18  22
ATOM     22  NH1 ARG A  1       -6.416  -4.968  -2.840  0.00  0.00    -0.790 N 
ATOM     23 HH11 ARG A  1       -7.149  -5.551  -3.091  0.00  0.00    +0.440 HD
ATOM     24 HH12 ARG A  1       -6.525  -4.005  -2.884  0.00  0.00    +0.440 HD
ENDBRANCH  18  22
ENDBRANCH  15  16
ENDBRANCH  14  15
ENDBRANCH  13  14
ENDBRANCH   1  13
TORSDOF 10
ENDMDL
MODEL     1327
REMARK  Name = ZINC000238857040
REMARK                            x       y       z     vdW  Elec       q    Type
REMARK                         _______ _______ _______ _____ _____    ______ ____
ROOT
ATOM      1  C   LIG    1       -1.247  -2.105   0.003  0.00  0.00    -0.080 A 
ATOM      2  C   LIG    1       -2.386  -2.860   0.004  0.00  0.00    +0.310 A 
ATOM      3  N   LIG    1       -1.998  -4.151  -0.005  0.00  0.00    -0.350 N 
ATOM      4  N   LIG    1       -0.596  -4.154  -0.012  0.00  0.00    -0.040 NA
ATOM      5  N   LIG    1       -0.188  -2.933  -0.012  0.00  0.00    -0.180 NA
ENDROOT
BRANCH   3   6
ATOM      6  C   LIG    1       -2.874  -5.326  -0.008  0.00  0.00    +0.270 C 
ATOM      7  C   LIG    1       -4.188  -5.020  -0.760  0.00  0.00    +0.240 C 
ATOM      8  O   LIG    1       -5.210  -5.717  -0.016  0.00  0.00    -0.350 OA
ATOM      9  C   LIG    1       -4.870  -5.520   1.374  0.00  0.00    +0.200 C 
ATOM     10  C   LIG    1       -3.330  -5.664   1.429  0.00  0.00    +0.140 C 
BRANCH  10  11
ATOM     11  O   LIG    1       -2.965  -7.002   1.775  0.00  0.00    -0.550 OA
ATOM     12  H   LIG    1       -3.281  -7.283   2.644  0.00  0.00    +0.390 HD
ENDBRANCH  10  11
ENDBRANCH   3   6
BRANCH   1  13
ATOM     13  C   LIG    1       -1.190  -0.632   0.010  0.00  0.00    +0.560 C 
ATOM     14  O   LIG    1       -2.218   0.016   0.023  0.00  0.00    -0.500 OA
BRANCH  13  16
ATOM     15  C   LIG    1       -0.018   1.448   0.010  0.00  0.00    +0.290 C 
ATOM     16  O   LIG    1        0.002  -0.004   0.002  0.00  0.00    -0.340 OA
ENDBRANCH  13  16
ENDBRANCH   1  13
TORSDOF 4
ENDMDL
MODEL     1328
REMARK  Name = ZINC000005022257
REMARK                            x       y       z     vdW  Elec       q    Type
REMARK                         _______ _______ _______ _____ _____    ______ ____
ROOT
ATOM      1  C   LIG    1       -0.117   5.440   0.035  0.00  0.00    +0.250 C 
ATOM      2  O   LIG    1        0.721   5.952   1.093  0.00  0.00    -0.330 OA
ATOM      3  C   LIG    1        1.017   7.315   0.718  0.00  0.00    +0.130 C 
ATOM      4  C   LIG    1        1.267   7.260  -0.805  0.00  0.00    +0.130 C 
ATOM      5  C   LIG    1        0.501   5.998  -1.267  0.00  0.00    +0.170 C 
ENDROOT
BRANCH   1  11
ATOM      6  O   LIG    1        0.002  -0.004   0.002  0.00  0.00    -0.550 OA
ATOM      7  C   LIG    1       -0.014   1.212   0.009  0.00  0.00    +0.700 A 
ATOM      8  N   LIG    1       -1.194   1.859   0.029  0.00  0.00    -0.640 N 
ATOM      9  H   LIG    1       -2.020   1.351   0.037  0.00  0.00    +0.440 HD
ATOM     10  C   LIG    1       -1.238   3.226   0.037  0.00  0.00    +0.350 A 
ATOM     11  C   LIG    1       -0.088   3.933   0.025  0.00  0.00    -0.230 A 
ATOM     12  C   LIG    1        1.146   3.239   0.004  0.00  0.00    +0.560 A 
ATOM     13  O   LIG    1        2.197   3.855  -0.008  0.00  0.00    -0.450 OA
ATOM     14  N   LIG    1        1.147   1.891   0.001  0.00  0.00    -0.660 N 
ATOM     15  H   LIG    1        1.989   1.409  -0.013  0.00  0.00    +0.430 HD
ENDBRANCH   1  11
BRANCH   4  16
ATOM     16  O   LIG    1        2.664   7.131  -1.079  0.00  0.00    -0.540 OA
ATOM     17  H   LIG    1        3.198   7.871  -0.757  0.00  0.00    +0.380 HD
ENDBRANCH   4  16
BRANCH   5  18
ATOM     18  O   LIG    1        1.401   5.048  -1.842  0.00  0.00    -0.520 OA
ATOM     19  H   LIG    1        1.864   5.370  -2.628  0.00  0.00    +0.380 HD
ENDBRANCH   5  18
BRANCH   3  20
ATOM     20  C   LIG    1        2.268   7.808   1.448  0.00  0.00    +0.210 C 
BRANCH  20  21
ATOM     21  O   LIG    1        2.000   7.893   2.849  0.00  0.00    -0.560 OA
ATOM     22  H   LIG    1        2.751   8.200   3.376  0.00  0.00    +0.380 HD
ENDBRANCH  20  21
ENDBRANCH   3  20
TORSDOF 5
ENDMDL
MODEL     1329
REMARK  Name = ZINC000005022259
REMARK                            x       y       z     vdW  Elec       q    Type
REMARK                         _______ _______ _______ _____ _____    ______ ____
ROOT
ATOM      1  C   LIG    1       -0.117   5.440   0.035  0.00  0.00    +0.260 C 
ATOM      2  O   LIG    1        0.697   5.938   1.110  0.00  0.00    -0.330 OA
ATOM      3  C   LIG    1        1.291   7.171   0.652  0.00  0.00    +0.140 C 
ATOM      4  C   LIG    1        1.662   6.869  -0.822  0.00  0.00    +0.130 C 
ATOM      5  C   LIG    1        0.474   5.983  -1.281  0.00  0.00    +0.180 C 
ENDROOT
BRANCH   1  11
ATOM      6  O   LIG    1        0.002  -0.004   0.002  0.00  0.00    -0.540 OA
ATOM      7  C   LIG    1       -0.014   1.212   0.009  0.00  0.00    +0.700 A 
ATOM      8  N   LIG    1       -1.194   1.859   0.029  0.00  0.00    -0.640 N 
ATOM      9  H   LIG    1       -2.020   1.351   0.037  0.00  0.00    +0.440 HD
ATOM     10  C   LIG    1       -1.238   3.226   0.037  0.00  0.00    +0.370 A 
ATOM     11  C   LIG    1       -0.088   3.933   0.025  0.00  0.00    -0.270 A 
ATOM     12  C   LIG    1        1.146   3.239   0.004  0.00  0.00    +0.550 A 
ATOM     13  O   LIG    1        2.197   3.855  -0.008  0.00  0.00    -0.460 OA
ATOM     14  N   LIG    1        1.147   1.891   0.001  0.00  0.00    -0.660 N 
ATOM     15  H   LIG    1        1.989   1.409  -0.013  0.00  0.00    +0.430 HD
ENDBRANCH   1  11
BRANCH   4  16
ATOM     16  O   LIG    1        2.896   6.152  -0.902  0.00  0.00    -0.520 OA
ATOM     17  H   LIG    1        3.654   6.634  -0.543  0.00  0.00    +0.380 HD
ENDBRANCH   4  16
BRANCH   5  18
ATOM     18  O   LIG    1       -0.492   6.767  -1.984  0.00  0.00    -0.550 OA
ATOM     19  H   LIG    1       -0.153   7.180  -2.790  0.00  0.00    +0.390 HD
ENDBRANCH   5  18
BRANCH   3  20
ATOM     20  C   LIG    1        2.542   7.502   1.468  0.00  0.00    +0.210 C 
BRANCH  20  21
ATOM     21  O   LIG    1        2.169   7.789   2.817  0.00  0.00    -0.560 OA
ATOM     22  H   LIG    1        2.914   8.008   3.394  0.00  0.00    +0.380 HD
ENDBRANCH  20  21
ENDBRANCH   3  20
TORSDOF 5
ENDMDL
MODEL     1330
REMARK  Name = ZINC000238857038
REMARK                            x       y       z     vdW  Elec       q    Type
REMARK                         _______ _______ _______ _____ _____    ______ ____
ROOT
ATOM      1  C   LIG    1       -1.247  -2.105   0.003  0.00  0.00    -0.090 A 
ATOM      2  C   LIG    1       -2.386  -2.860   0.004  0.00  0.00    +0.320 A 
ATOM      3  N   LIG    1       -1.998  -4.151  -0.005  0.00  0.00    -0.350 N 
ATOM      4  N   LIG    1       -0.596  -4.154  -0.012  0.00  0.00    -0.050 NA
ATOM      5  N   LIG    1       -0.188  -2.933  -0.012  0.00  0.00    -0.180 NA
ENDROOT
BRANCH   3   6
ATOM      6  C   LIG    1       -2.874  -5.326  -0.008  0.00  0.00    +0.270 C 
ATOM      7  C   LIG    1       -4.181  -5.029   0.760  0.00  0.00    +0.250 C 
ATOM      8  O   LIG    1       -5.121  -4.619  -0.257  0.00  0.00    -0.360 OA
ATOM      9  C   LIG    1       -4.883  -5.504  -1.374  0.00  0.00    +0.200 C 
ATOM     10  C   LIG    1       -3.343  -5.648  -1.444  0.00  0.00    +0.150 C 
BRANCH  10  11
ATOM     11  O   LIG    1       -2.981  -6.981  -1.810  0.00  0.00    -0.550 OA
ATOM     12  H   LIG    1       -3.306  -7.253  -2.679  0.00  0.00    +0.390 HD
ENDBRANCH  10  11
ENDBRANCH   3   6
BRANCH   1  13
ATOM     13  C   LIG    1       -1.190  -0.632   0.010  0.00  0.00    +0.560 C 
ATOM     14  O   LIG    1       -2.218   0.016   0.023  0.00  0.00    -0.500 OA
BRANCH  13  16
ATOM     15  C   LIG    1       -0.018   1.448   0.010  0.00  0.00    +0.290 C 
ATOM     16  O   LIG    1        0.002  -0.004   0.002  0.00  0.00    -0.340 OA
ENDBRANCH  13  16
ENDBRANCH   1  13
TORSDOF 4
ENDMDL
MODEL     1331
REMARK  Name = ZINC000012175529
REMARK                            x       y       z     vdW  Elec       q    Type
REMARK                         _______ _______ _______ _____ _____    ______ ____
ROOT
ATOM      1  N   LIG    1        1.221   4.468   0.555  0.00  0.00    -0.690 N 
ATOM      2  H   LIG    1        0.757   4.520  -0.295  0.00  0.00    +0.410 HD
ENDROOT
BRANCH   1   7
ATOM      3  O   LIG    1        0.002  -0.004   0.002  0.00  0.00    -0.920 OA
ATOM      4  S   LIG    1       -0.017   1.417   0.010  0.00  0.00    +2.440 S 
ATOM      5  C   LIG    1       -0.428   1.879   1.677  0.00  0.00    -0.450 C 
ATOM      6  C   LIG    1        0.457   2.750   2.073  0.00  0.00    +0.100 C 
ATOM      7  C   LIG    1        1.546   3.162   1.133  0.00  0.00    +0.320 C 
ATOM      8  O   LIG    1       -0.896   2.162  -0.822  0.00  0.00    -0.930 OA
ATOM      9  C   LIG    1        1.682   2.116  -0.003  0.00  0.00    -0.260 C 
ENDBRANCH   1   7
BRANCH   1  10
ATOM     10  C   LIG    1        1.569   5.597   1.204  0.00  0.00    +0.560 C 
ATOM     11  S   LIG    1        2.389   5.505   2.704  0.00  0.00    -0.620 S 
BRANCH  10  12
ATOM     12  N   LIG    1        1.270   6.799   0.672  0.00  0.00    -0.670 N 
ATOM     13  H   LIG    1        0.805   6.851  -0.178  0.00  0.00    +0.400 HD
BRANCH  12  14
ATOM     14  C   LIG    1        1.648   8.026   1.377  0.00  0.00    +0.330 C 
BRANCH  14  15
ATOM     15  C   LIG    1        1.196   9.241   0.564  0.00  0.00    +0.190 C 
BRANCH  15  16
ATOM     16  O   LIG    1       -0.232   9.266   0.499  0.00  0.00    -0.570 OA
ATOM     17  H   LIG    1       -0.589  10.012  -0.003  0.00  0.00    +0.390 HD
ENDBRANCH  15  16
ENDBRANCH  14  15
ENDBRANCH  12  14
ENDBRANCH  10  12
ENDBRANCH   1  10
TORSDOF 6
ENDMDL
MODEL     1332
REMARK  Name = ZINC000012175531
REMARK                            x       y       z     vdW  Elec       q    Type
REMARK                         _______ _______ _______ _____ _____    ______ ____
ROOT
ATOM      1  N   LIG    1        2.812   3.252   1.864  0.00  0.00    -0.680 N 
ATOM      2  H   LIG    1        3.412   2.491   1.891  0.00  0.00    +0.400 HD
ENDROOT
BRANCH   1   7
ATOM      3  O   LIG    1        0.002  -0.004   0.002  0.00  0.00    -0.920 OA
ATOM      4  S   LIG    1       -0.017   1.417   0.010  0.00  0.00    +2.450 S 
ATOM      5  C   LIG    1       -0.428   1.879   1.677  0.00  0.00    -0.460 C 
ATOM      6  C   LIG    1        0.457   2.750   2.073  0.00  0.00    +0.090 C 
ATOM      7  C   LIG    1        1.546   3.162   1.133  0.00  0.00    +0.320 C 
ATOM      8  O   LIG    1       -0.896   2.162  -0.822  0.00  0.00    -0.910 OA
ATOM      9  C   LIG    1        1.682   2.116  -0.003  0.00  0.00    -0.290 C 
ENDBRANCH   1   7
BRANCH   1  10
ATOM     10  C   LIG    1        3.143   4.394   2.500  0.00  0.00    +0.560 C 
ATOM     11  S   LIG    1        2.083   5.738   2.452  0.00  0.00    -0.620 S 
BRANCH  10  12
ATOM     12  N   LIG    1        4.308   4.478   3.172  0.00  0.00    -0.670 N 
ATOM     13  H   LIG    1        4.908   3.716   3.199  0.00  0.00    +0.400 HD
BRANCH  12  14
ATOM     14  C   LIG    1        4.668   5.719   3.863  0.00  0.00    +0.330 C 
BRANCH  14  15
ATOM     15  C   LIG    1        6.028   5.548   4.542  0.00  0.00    +0.190 C 
BRANCH  15  16
ATOM     16  O   LIG    1        7.037   5.363   3.547  0.00  0.00    -0.570 OA
ATOM     17  H   LIG    1        7.927   5.249   3.907  0.00  0.00    +0.390 HD
ENDBRANCH  15  16
ENDBRANCH  14  15
ENDBRANCH  12  14
ENDBRANCH  10  12
ENDBRANCH   1  10
TORSDOF 6
ENDMDL
MODEL     1333
REMARK  Name = ZINC000004994677
REMARK                            x       y       z     vdW  Elec       q    Type
REMARK                         _______ _______ _______ _____ _____    ______ ____
ROOT
ATOM      1  C   LIG    1       -1.101  -0.542  -0.064  0.00  0.00    +0.290 C 
ATOM      2  O   LIG    1       -1.544  -0.384  -1.422  0.00  0.00    -0.360 OA
ATOM      3  C   LIG    1       -1.241  -1.616  -2.110  0.00  0.00    +0.180 C 
ATOM      4  C   LIG    1       -1.591  -2.708  -1.067  0.00  0.00    +0.260 C 
ATOM      5  C   LIG    1       -1.137  -2.048   0.261  0.00  0.00    +0.170 C 
ENDROOT
BRANCH   4   6
ATOM      6  N   LIG    1       -3.031  -2.975  -1.052  0.00  0.00    -0.610 N 
ATOM      7  C   LIG    1       -3.490  -4.211  -1.332  0.00  0.00    +0.510 C 
ATOM      8  O   LIG    1       -2.710  -5.124  -1.503  0.00  0.00    -0.530 OA
ATOM      9  C   LIG    1       -4.973  -4.459  -1.433  0.00  0.00    +0.120 C 
ATOM     10  C   LIG    1       -3.972  -1.899  -0.733  0.00  0.00    +0.290 C 
ENDBRANCH   4   6
BRANCH   1  12
ATOM     11  C   LIG    1        0.335   1.376   0.006  0.00  0.00    +0.210 C 
ATOM     12  O   LIG    1        0.233  -0.048   0.073  0.00  0.00    -0.380 OA
ENDBRANCH   1  12
BRANCH   5  13
ATOM     13  O   LIG    1        0.162  -2.513   0.634  0.00  0.00    -0.540 OA
ATOM     14  H   LIG    1        0.495  -2.132   1.458  0.00  0.00    +0.390 HD
ENDBRANCH   5  13
BRANCH   3  15
ATOM     15  C   LIG    1       -2.111  -1.763  -3.360  0.00  0.00    +0.210 C 
BRANCH  15  16
ATOM     16  O   LIG    1       -1.757  -0.753  -4.308  0.00  0.00    -0.560 OA
ATOM     17  H   LIG    1       -2.270  -0.786  -5.127  0.00  0.00    +0.380 HD
ENDBRANCH  15  16
ENDBRANCH   3  15
TORSDOF 5
ENDMDL
MODEL     1334
REMARK  Name = ZINC000004994675
REMARK                            x       y       z     vdW  Elec       q    Type
REMARK                         _______ _______ _______ _____ _____    ______ ____
ROOT
ATOM      1  C   LIG    1       -1.149  -0.547  -0.082  0.00  0.00    +0.280 C 
ATOM      2  O   LIG    1       -1.596  -0.448  -1.451  0.00  0.00    -0.370 OA
ATOM      3  C   LIG    1       -2.671  -1.405  -1.570  0.00  0.00    +0.170 C 
ATOM      4  C   LIG    1       -2.193  -2.637  -0.770  0.00  0.00    +0.250 C 
ATOM      5  C   LIG    1       -1.169  -2.059   0.235  0.00  0.00    +0.170 C 
ENDROOT
BRANCH   4   6
ATOM      6  N   LIG    1       -3.316  -3.256  -0.061  0.00  0.00    -0.610 N 
ATOM      7  C   LIG    1       -3.652  -4.536  -0.319  0.00  0.00    +0.510 C 
ATOM      8  O   LIG    1       -2.969  -5.204  -1.065  0.00  0.00    -0.530 OA
ATOM      9  C   LIG    1       -4.878  -5.136   0.321  0.00  0.00    +0.120 C 
ATOM     10  C   LIG    1       -4.073  -2.485   0.927  0.00  0.00    +0.290 C 
ENDBRANCH   4   6
BRANCH   1  12
ATOM     11  C   LIG    1        0.256   1.394  -0.041  0.00  0.00    +0.210 C 
ATOM     12  O   LIG    1        0.177  -0.030   0.047  0.00  0.00    -0.360 OA
ENDBRANCH   1  12
BRANCH   5  13
ATOM     13  O   LIG    1        0.122  -2.634   0.021  0.00  0.00    -0.540 OA
ATOM     14  H   LIG    1        0.803  -2.306   0.624  0.00  0.00    +0.390 HD
ENDBRANCH   5  13
BRANCH   3  15
ATOM     15  C   LIG    1       -2.895  -1.775  -3.038  0.00  0.00    +0.210 C 
BRANCH  15  16
ATOM     16  O   LIG    1       -3.378  -0.633  -3.748  0.00  0.00    -0.570 OA
ATOM     17  H   LIG    1       -3.543  -0.794  -4.688  0.00  0.00    +0.380 HD
ENDBRANCH  15  16
ENDBRANCH   3  15
TORSDOF 5
ENDMDL
MODEL     1335
REMARK  Name = ZINC000005181596
REMARK                            x       y       z     vdW  Elec       q    Type
REMARK                         _______ _______ _______ _____ _____    ______ ____
ROOT
ATOM      1  C   LIG    1       -1.295  -0.603   0.011  0.00  0.00    +0.280 C 
ATOM      2  O   LIG    1       -1.931  -0.446  -1.276  0.00  0.00    -0.370 OA
ATOM      3  C   LIG    1       -2.952  -1.466  -1.323  0.00  0.00    +0.180 C 
ATOM      4  C   LIG    1       -2.296  -2.712  -0.686  0.00  0.00    +0.280 C 
ATOM      5  C   LIG    1       -1.181  -2.130   0.215  0.00  0.00    +0.160 C 
ENDROOT
BRANCH   4   6
ATOM      6  N   LIG    1       -1.726  -3.578  -1.721  0.00  0.00    -0.740 N 
ATOM      7  H   LIG    1       -1.464  -3.203  -2.577  0.00  0.00    +0.400 HD
ATOM      8  C   LIG    1       -1.567  -4.895  -1.485  0.00  0.00    +0.700 C 
ATOM      9  O   LIG    1       -1.896  -5.364  -0.413  0.00  0.00    -0.580 OA
ATOM     10  N   LIG    1       -1.042  -5.692  -2.437  0.00  0.00    -0.860 N 
ATOM     11  H   LIG    1       -0.928  -6.640  -2.267  0.00  0.00    +0.420 HD
ATOM     12  H   LIG    1       -0.780  -5.317  -3.293  0.00  0.00    +0.400 HD
ENDBRANCH   4   6
BRANCH   1  14
ATOM     13  C   LIG    1       -0.017   1.425   0.010  0.00  0.00    +0.220 C 
ATOM     14  O   LIG    1        0.002  -0.004   0.002  0.00  0.00    -0.370 OA
ENDBRANCH   1  14
BRANCH   5  15
ATOM     15  O   LIG    1       -1.410  -2.478   1.582  0.00  0.00    -0.540 OA
ATOM     16  H   LIG    1       -0.740  -2.139   2.191  0.00  0.00    +0.390 HD
ENDBRANCH   5  15
BRANCH   3  17
ATOM     17  C   LIG    1       -3.351  -1.754  -2.772  0.00  0.00    +0.210 C 
BRANCH  17  18
ATOM     18  O   LIG    1       -3.994  -0.605  -3.326  0.00  0.00    -0.560 OA
ATOM     19  H   LIG    1       -4.275  -0.716  -4.245  0.00  0.00    +0.390 HD
ENDBRANCH  17  18
ENDBRANCH   3  17
TORSDOF 5
ENDMDL
MODEL     1336
REMARK  Name = ZINC000004887001
REMARK                            x       y       z     vdW  Elec       q    Type
REMARK                         _______ _______ _______ _____ _____    ______ ____
ROOT
ATOM      1  C   LIG    1        0.673  -0.582   1.123  0.00  0.00    +0.300 C 
ATOM      2  O   LIG    1       -0.128  -0.442   2.316  0.00  0.00    -0.370 OA
ATOM      3  C   LIG    1        0.367  -1.446   3.228  0.00  0.00    +0.140 C 
ATOM      4  C   LIG    1        0.622  -2.689   2.346  0.00  0.00    +0.170 C 
ATOM      5  C   LIG    1        0.831  -2.107   0.928  0.00  0.00    +0.260 C 
ENDROOT
BRANCH   5   6
ATOM      6  N   LIG    1        2.171  -2.432   0.432  0.00  0.00    -0.720 N 
ATOM      7  H   LIG    1        2.890  -2.608   1.058  0.00  0.00    +0.400 HD
ATOM      8  C   LIG    1        2.403  -2.486  -0.895  0.00  0.00    +0.510 C 
ATOM      9  O   LIG    1        1.503  -2.266  -1.678  0.00  0.00    -0.520 OA
ATOM     10  C   LIG    1        3.781  -2.820  -1.405  0.00  0.00    +0.110 C 
ENDBRANCH   5   6
BRANCH   1  12
ATOM     11  C   LIG    1       -0.017   1.425   0.010  0.00  0.00    +0.210 C 
ATOM     12  O   LIG    1        0.002  -0.004   0.002  0.00  0.00    -0.350 OA
ENDBRANCH   1  12
BRANCH   4  13
ATOM     13  O   LIG    1       -0.508  -3.562   2.372  0.00  0.00    -0.540 OA
ATOM     14  H   LIG    1       -0.718  -3.908   3.251  0.00  0.00    +0.380 HD
ENDBRANCH   4  13
BRANCH   3  15
ATOM     15  C   LIG    1       -0.680  -1.757   4.299  0.00  0.00    +0.210 C 
BRANCH  15  16
ATOM     16  O   LIG    1       -0.867  -0.609   5.129  0.00  0.00    -0.560 OA
ATOM     17  H   LIG    1       -1.519  -0.734   5.832  0.00  0.00    +0.390 HD
ENDBRANCH  15  16
ENDBRANCH   3  15
TORSDOF 5
ENDMDL
MODEL     1337
REMARK  Name = ZINC000005124769
REMARK                            x       y       z     vdW  Elec       q    Type
REMARK                         _______ _______ _______ _____ _____    ______ ____
ROOT
ATOM      1  C   LIG    1       -1.354  -0.434  -0.020  0.00  0.00    +0.330 C 
ATOM      2  O   LIG    1       -1.964  -0.271  -1.296  0.00  0.00    -0.360 OA
ATOM      3  C   LIG    1       -1.371  -0.981  -2.402  0.00  0.00    +0.250 C 
ATOM      4  C   LIG    1       -1.405  -2.444  -2.021  0.00  0.00    +0.140 C 
ATOM      5  O   LIG    1       -0.824  -3.438  -2.884  0.00  0.00    -0.310 OA
ATOM      6  C   LIG    1       -0.463  -4.453  -2.047  0.00  0.00    +0.650 C 
ATOM      7  N   LIG    1       -0.231  -4.013  -0.779  0.00  0.00    -0.720 N 
ATOM      8  H   LIG    1        0.047  -4.552  -0.022  0.00  0.00    +0.440 HD
ATOM      9  O   LIG    1       -0.361  -5.613  -2.392  0.00  0.00    -0.490 OA
ATOM     10  C   LIG    1       -0.479  -2.588  -0.778  0.00  0.00    +0.190 C 
ATOM     11  C   LIG    1       -1.198  -1.918   0.366  0.00  0.00    +0.190 C 
ENDROOT
BRANCH   1  13
ATOM     12  C   LIG    1       -0.095   1.602  -0.136  0.00  0.00    +0.230 C 
ATOM     13  O   LIG    1       -0.062   0.177  -0.043  0.00  0.00    -0.390 OA
ENDBRANCH   1  13
BRANCH  11  14
ATOM     14  O   LIG    1       -0.427  -2.034   1.563  0.00  0.00    -0.540 OA
ATOM     15  H   LIG    1       -0.836  -1.623   2.336  0.00  0.00    +0.390 HD
ENDBRANCH  11  14
BRANCH   3  16
ATOM     16  C   LIG    1        0.074  -0.522  -2.611  0.00  0.00    +0.180 C 
BRANCH  16  17
ATOM     17  O   LIG    1        0.084   0.847  -3.021  0.00  0.00    -0.560 OA
ATOM     18  H   LIG    1        0.969   1.206  -3.171  0.00  0.00    +0.380 HD
ENDBRANCH  16  17
ENDBRANCH   3  16
TORSDOF 4
ENDMDL
MODEL     1338
REMARK  Name = ZINC000004994673
REMARK                            x       y       z     vdW  Elec       q    Type
REMARK                         _______ _______ _______ _____ _____    ______ ____
ROOT
ATOM      1  C   LIG    1       -1.570  -0.592   0.254  0.00  0.00    +0.280 C 
ATOM      2  O   LIG    1       -1.975  -0.445  -1.124  0.00  0.00    -0.370 OA
ATOM      3  C   LIG    1       -2.946  -1.491  -1.348  0.00  0.00    +0.160 C 
ATOM      4  C   LIG    1       -2.378  -2.722  -0.607  0.00  0.00    +0.250 C 
ATOM      5  C   LIG    1       -1.452  -2.116   0.474  0.00  0.00    +0.170 C 
ENDROOT
BRANCH   4   6
ATOM      6  N   LIG    1       -1.614  -3.568  -1.528  0.00  0.00    -0.590 N 
ATOM      7  C   LIG    1       -1.986  -4.847  -1.734  0.00  0.00    +0.510 C 
ATOM      8  O   LIG    1       -3.012  -5.267  -1.241  0.00  0.00    -0.550 OA
ATOM      9  C   LIG    1       -1.129  -5.755  -2.578  0.00  0.00    +0.100 C 
ATOM     10  C   LIG    1       -0.445  -3.024  -2.224  0.00  0.00    +0.290 C 
ENDBRANCH   4   6
BRANCH   1  12
ATOM     11  C   LIG    1       -0.365   1.469   0.475  0.00  0.00    +0.210 C 
ATOM     12  O   LIG    1       -0.307   0.041   0.471  0.00  0.00    -0.360 OA
ENDBRANCH   1  12
BRANCH   5  13
ATOM     13  O   LIG    1       -0.104  -2.549   0.279  0.00  0.00    -0.530 OA
ATOM     14  H   LIG    1        0.519  -2.198   0.930  0.00  0.00    +0.380 HD
ENDBRANCH   5  13
BRANCH   3  15
ATOM     15  C   LIG    1       -3.079  -1.782  -2.844  0.00  0.00    +0.200 C 
BRANCH  15  16
ATOM     16  O   LIG    1       -3.647  -0.647  -3.502  0.00  0.00    -0.570 OA
ATOM     17  H   LIG    1       -3.761  -0.761  -4.455  0.00  0.00    +0.380 HD
ENDBRANCH  15  16
ENDBRANCH   3  15
TORSDOF 5
ENDMDL
MODEL     1339
REMARK  Name = ZINC000005202045
REMARK                            x       y       z     vdW  Elec       q    Type
REMARK                         _______ _______ _______ _____ _____    ______ ____
ROOT
ATOM      1  C   LIG    1        0.652  -0.570  -1.138  0.00  0.00    +0.290 C 
ATOM      2  O   LIG    1        2.059  -0.319  -1.057  0.00  0.00    -0.380 OA
ATOM      3  C   LIG    1        2.790  -0.837  -2.165  0.00  0.00    +0.120 C 
ATOM      4  C   LIG    1        4.278  -0.500  -2.053  0.00  0.00    +0.250 C 
ATOM      5  O   LIG    1        4.966  -1.136  -3.138  0.00  0.00    -0.390 OA
ATOM      6  C   LIG    1        4.794  -2.553  -3.196  0.00  0.00    +0.410 C 
ATOM      7  O   LIG    1        3.401  -2.876  -3.284  0.00  0.00    -0.370 OA
ATOM      8  C   LIG    1        2.640  -2.363  -2.191  0.00  0.00    +0.150 C 
ATOM      9  C   LIG    1        1.158  -2.703  -2.343  0.00  0.00    +0.200 C 
ATOM     10  C   LIG    1        0.393  -2.078  -1.173  0.00  0.00    +0.140 C 
ENDROOT
BRANCH   1  12
ATOM     11  C   LIG    1       -0.017   1.425   0.010  0.00  0.00    +0.230 C 
ATOM     12  O   LIG    1        0.002  -0.004   0.002  0.00  0.00    -0.370 OA
ENDBRANCH   1  12
BRANCH   9  13
ATOM     13  O   LIG    1        0.986  -4.121  -2.328  0.00  0.00    -0.540 OA
ATOM     14  H   LIG    1        0.067  -4.407  -2.420  0.00  0.00    +0.380 HD
ENDBRANCH   9  13
BRANCH  10  15
ATOM     15  O   LIG    1        0.832  -2.669   0.052  0.00  0.00    -0.540 OA
ATOM     16  H   LIG    1        0.389  -2.320   0.838  0.00  0.00    +0.390 HD
ENDBRANCH  10  15
TORSDOF 3
ENDMDL
MODEL     1340
REMARK  Name = ZINC000012176031
REMARK                            x       y       z     vdW  Elec       q    Type
REMARK                         _______ _______ _______ _____ _____    ______ ____
ROOT
ATOM      1  N   LIG    1        3.340   2.325   1.913  0.00  0.00    -0.640 N 
ATOM      2  H   LIG    1        4.074   2.263   1.282  0.00  0.00    +0.410 HD
ENDROOT
BRANCH   1   7
ATOM      3  O   LIG    1       -0.087   3.469  -0.763  0.00  0.00    -0.920 OA
ATOM      4  S   LIG    1       -0.324   2.848   0.492  0.00  0.00    +2.400 S 
ATOM      5  C   LIG    1        0.175   1.082   0.421  0.00  0.00    -0.240 C 
ATOM      6  C   LIG    1        1.622   1.119   0.861  0.00  0.00    +0.010 C 
ATOM      7  C   LIG    1        2.027   2.193   1.469  0.00  0.00    +0.130 C 
ATOM      8  O   LIG    1       -1.591   2.969   1.125  0.00  0.00    -0.920 OA
ATOM      9  C   LIG    1        1.010   3.294   1.673  0.00  0.00    -0.240 C 
ENDBRANCH   1   7
BRANCH   1  10
ATOM     10  C   LIG    1        3.591   2.538   3.220  0.00  0.00    +0.560 C 
ATOM     11  S   LIG    1        2.307   2.520   4.352  0.00  0.00    -0.610 S 
BRANCH  10  12
ATOM     12  N   LIG    1        4.853   2.765   3.635  0.00  0.00    -0.670 N 
ATOM     13  H   LIG    1        5.580   2.776   2.994  0.00  0.00    +0.400 HD
BRANCH  12  14
ATOM     14  C   LIG    1        5.125   2.997   5.056  0.00  0.00    +0.330 C 
BRANCH  14  15
ATOM     15  C   LIG    1        6.625   3.227   5.256  0.00  0.00    +0.190 C 
BRANCH  15  16
ATOM     16  O   LIG    1        7.014   4.433   4.595  0.00  0.00    -0.570 OA
ATOM     17  H   LIG    1        7.955   4.642   4.680  0.00  0.00    +0.390 HD
ENDBRANCH  15  16
ENDBRANCH  14  15
ENDBRANCH  12  14
ENDBRANCH  10  12
ENDBRANCH   1  10
TORSDOF 6
ENDMDL
MODEL     1341
REMARK  Name = ZINC000001574901
REMARK                            x       y       z     vdW  Elec       q    Type
REMARK                         _______ _______ _______ _____ _____    ______ ____
ROOT
ATOM      1  C   LIG    1        0.002  -0.004   0.002  0.00  0.00    +0.510 A 
ATOM      2  C   LIG    1       -1.195  -0.739   0.004  0.00  0.00    -0.100 A 
ATOM      3  N   LIG    1       -2.511  -0.417   0.012  0.00  0.00    -0.470 NA
ATOM      4  C   LIG    1       -3.224  -1.506   0.010  0.00  0.00    +0.510 A 
ATOM      5  N   LIG    1       -2.407  -2.597  -0.001  0.00  0.00    -0.460 N 
ATOM      6  C   LIG    1       -1.113  -2.142  -0.005  0.00  0.00    +0.310 A 
ATOM      7  N   LIG    1        0.085  -2.718  -0.015  0.00  0.00    -0.560 NA
ATOM      8  C   LIG    1        1.181  -1.989  -0.016  0.00  0.00    +0.560 A 
ATOM      9  N   LIG    1        1.153  -0.668  -0.013  0.00  0.00    -0.590 NA
ENDROOT
BRANCH   5  10
ATOM     10  C   LIG    1       -2.833  -3.999  -0.007  0.00  0.00    +0.430 C 
ATOM     11  O   LIG    1       -4.177  -4.118   0.508  0.00  0.00    -0.360 OA
ATOM     12  C   LIG    1       -4.664  -5.384   0.010  0.00  0.00    +0.210 C 
ATOM     13  C   LIG    1       -4.149  -5.461  -1.444  0.00  0.00    +0.130 C 
ATOM     14  C   LIG    1       -2.913  -4.530  -1.456  0.00  0.00    +0.160 C 
BRANCH  13  15
ATOM     15  O   LIG    1       -5.145  -4.990  -2.354  0.00  0.00    -0.550 OA
ATOM     16  H   LIG    1       -5.963  -5.506  -2.342  0.00  0.00    +0.390 HD
ENDBRANCH  13  15
BRANCH  14  17
ATOM     17  O   LIG    1       -3.107  -3.453  -2.375  0.00  0.00    -0.530 OA
ATOM     18  H   LIG    1       -3.225  -3.735  -3.292  0.00  0.00    +0.390 HD
ENDBRANCH  14  17
ENDBRANCH   5  10
BRANCH   1  19
ATOM     19  N   LIG    1       -0.017   1.380   0.010  0.00  0.00    -0.820 N 
ATOM     20  H   LIG    1       -0.863   1.853   0.016  0.00  0.00    +0.420 HD
ATOM     21  H   LIG    1        0.817   1.876   0.004  0.00  0.00    +0.410 HD
ENDBRANCH   1  19
TORSDOF 4
ENDMDL
MODEL     1342
REMARK  Name = ZINC000001576025
REMARK                            x       y       z     vdW  Elec       q    Type
REMARK                         _______ _______ _______ _____ _____    ______ ____
ROOT
ATOM      1  CA  SER A  2       -3.465  -1.164  -1.134  0.00  0.00    +0.250 C 
ENDROOT
BRANCH   1   4
ATOM      2  N   ALA A  3       -1.372  -0.511   0.012  0.00  0.00    -0.680 N 
ATOM      3  H   ALA A  3       -1.794  -0.752   0.852  0.00  0.00    +0.410 HD
ATOM      4  C   SER A  2       -2.051  -0.643  -1.145  0.00  0.00    +0.510 C 
ATOM      5  O   SER A  2       -1.524  -0.341  -2.194  0.00  0.00    -0.550 OA
BRANCH   2   7
ATOM      6  CB  ALA A  3       -0.019   1.526   0.010  0.00  0.00    +0.030 C 
ATOM      7  CA  ALA A  3        0.002  -0.004   0.002  0.00  0.00    +0.160 C 
BRANCH   7   8
ATOM      8  C   ALA A  3        0.731  -0.503   1.223  0.00  0.00    +0.500 C 
ATOM      9  OXT ALA A  3        1.935  -0.690   1.180  0.00  0.00    -0.680 OA
ATOM     10  O   ALA A  3        0.117  -0.721   2.253  0.00  0.00    -0.690 OA
ENDBRANCH   7   8
ENDBRANCH   2   7
ENDBRANCH   1   4
BRANCH   1  11
ATOM     11  N   SER A  2       -3.978  -1.213  -2.505  0.00  0.00    -0.670 N 
ATOM     12  H   SER A  2       -3.362  -1.290  -3.251  0.00  0.00    +0.420 HD
ATOM     13  C   GLY A  1       -5.305  -1.151  -2.731  0.00  0.00    +0.490 C 
ATOM     14  O   GLY A  1       -6.075  -1.054  -1.799  0.00  0.00    -0.540 OA
BRANCH  13  15
ATOM     15  CA  GLY A  1       -5.832  -1.201  -4.142  0.00  0.00    +0.320 C 
BRANCH  15  16
ATOM     16  N   GLY A  1       -7.299  -1.116  -4.119  0.00  0.00    -0.620 N 
ATOM     17  H1  GLY A  1       -7.652  -1.150  -5.064  0.00  0.00    +0.440 HD
ATOM     18  H2  GLY A  1       -7.579  -0.249  -3.686  0.00  0.00    +0.440 HD
ATOM     19  H3  GLY A  1       -7.672  -1.892  -3.593  0.00  0.00    +0.440 HD
ENDBRANCH  15  16
ENDBRANCH  13  15
ENDBRANCH   1  11
BRANCH   1  20
ATOM     20  CB  SER A  2       -3.485  -2.571  -0.532  0.00  0.00    +0.210 C 
BRANCH  20  21
ATOM     21  OG  SER A  2       -2.574  -3.408  -1.246  0.00  0.00    -0.560 OA
ATOM     22  H   SER A  2       -2.535  -4.317  -0.918  0.00  0.00    +0.390 HD
ENDBRANCH  20  21
ENDBRANCH   1  20
TORSDOF 8
ENDMDL
MODEL     1343
REMARK  Name = ZINC000003851429
REMARK                            x       y       z     vdW  Elec       q    Type
REMARK                         _______ _______ _______ _____ _____    ______ ____
ROOT
ATOM      1  C   LIG    1        0.725  -0.591  -1.250  0.00  0.00    +0.180 C 
ATOM      2  C   LIG    1        2.208  -0.818  -0.941  0.00  0.00    +0.190 C 
ATOM      3  C   LIG    1        2.841  -1.613  -2.087  0.00  0.00    +0.130 C 
ATOM      4  C   LIG    1        2.078  -2.927  -2.269  0.00  0.00    +0.160 C 
ATOM      5  O   LIG    1        0.700  -2.645  -2.522  0.00  0.00    -0.380 OA
ATOM      6  C   LIG    1        0.042  -1.944  -1.465  0.00  0.00    +0.430 C 
ENDROOT
BRANCH   1   8
ATOM      7  C   LIG    1        0.144   1.512  -0.257  0.00  0.00    +0.220 C 
ATOM      8  O   LIG    1        0.107   0.087  -0.154  0.00  0.00    -0.360 OA
ENDBRANCH   1   8
BRANCH   3   9
ATOM      9  O   LIG    1        2.774  -0.849  -3.292  0.00  0.00    -0.540 OA
ATOM     10  H   LIG    1        3.157  -1.293  -4.061  0.00  0.00    +0.380 HD
ENDBRANCH   3   9
BRANCH   2  11
ATOM     11  O   LIG    1        2.868   0.443  -0.809  0.00  0.00    -0.550 OA
ATOM     12  H   LIG    1        3.812   0.374  -0.613  0.00  0.00    +0.380 HD
ENDBRANCH   2  11
BRANCH   6  13
ATOM     13  O   LIG    1       -1.329  -1.738  -1.810  0.00  0.00    -0.360 OA
ATOM     14  C   LIG    1       -1.520  -1.081  -3.065  0.00  0.00    +0.240 C 
ENDBRANCH   6  13
BRANCH   6  15
ATOM     15  O   LIG    1        0.121  -2.712  -0.263  0.00  0.00    -0.360 OA
ATOM     16  C   LIG    1       -0.579  -3.956  -0.321  0.00  0.00    +0.230 C 
ENDBRANCH   6  15
BRANCH   4  17
ATOM     17  C   LIG    1        2.666  -3.700  -3.450  0.00  0.00    +0.210 C 
BRANCH  17  18
ATOM     18  O   LIG    1        2.032  -4.977  -3.548  0.00  0.00    -0.560 OA
ATOM     19  H   LIG    1        2.357  -5.522  -4.278  0.00  0.00    +0.390 HD
ENDBRANCH  17  18
ENDBRANCH   4  17
TORSDOF 7
ENDMDL
MODEL     1344
REMARK  Name = ZINC000001591018
REMARK                            x       y       z     vdW  Elec       q    Type
REMARK                         _______ _______ _______ _____ _____    ______ ____
ROOT
ATOM      1  N   LIG    1       -2.790  -2.554  -0.231  0.00  0.00    -0.470 N 
ATOM      2  C   LIG    1       -3.567  -3.008   0.793  0.00  0.00    +0.490 A 
ATOM      3  N   LIG    1       -4.732  -3.372   0.339  0.00  0.00    -0.470 NA
ATOM      4  C   LIG    1       -4.775  -3.174  -1.001  0.00  0.00    -0.110 A 
ATOM      5  C   LIG    1       -5.743  -3.378  -1.998  0.00  0.00    +0.530 A 
ATOM      6  N   LIG    1       -5.436  -3.063  -3.253  0.00  0.00    -0.570 NA
ATOM      7  C   LIG    1       -4.251  -2.571  -3.563  0.00  0.00    +0.580 A 
ATOM      8  N   LIG    1       -3.313  -2.364  -2.663  0.00  0.00    -0.560 NA
ATOM      9  C   LIG    1       -3.532  -2.642  -1.381  0.00  0.00    +0.310 A 
ENDROOT
BRANCH   5  10
ATOM     10  N   LIG    1       -6.988  -3.893  -1.683  0.00  0.00    -0.560 N 
ATOM     11  H   LIG    1       -7.201  -4.119  -0.763  0.00  0.00    +0.430 HD
BRANCH  10  12
ATOM     12  O   LIG    1       -7.951  -4.092  -2.701  0.00  0.00    -0.310 OA
ATOM     13  H   LIG    1       -8.790  -4.456  -2.384  0.00  0.00    +0.390 HD
ENDBRANCH  10  12
ENDBRANCH   5  10
BRANCH   1  14
ATOM     14  C   LIG    1       -1.416  -2.058  -0.121  0.00  0.00    +0.300 C 
BRANCH  14  15
ATOM     15  C   LIG    1       -1.433  -0.534   0.013  0.00  0.00    +0.200 C 
BRANCH  15  16
ATOM     16  O   LIG    1       -2.066  -0.171   1.242  0.00  0.00    -0.540 OA
ATOM     17  H   LIG    1       -1.626  -0.521   2.029  0.00  0.00    +0.370 HD
ENDBRANCH  15  16
BRANCH  15  18
ATOM     18  C   LIG    1        0.002  -0.004   0.002  0.00  0.00    +0.160 C 
BRANCH  18  19
ATOM     19  O   LIG    1       -0.017   1.425   0.010  0.00  0.00    -0.560 OA
ATOM     20  H   LIG    1        0.861   1.830   0.004  0.00  0.00    +0.380 HD
ENDBRANCH  18  19
ENDBRANCH  15  18
ENDBRANCH  14  15
ENDBRANCH   1  14
TORSDOF 7
ENDMDL
MODEL     1345
REMARK  Name = ZINC000001591036
REMARK                            x       y       z     vdW  Elec       q    Type
REMARK                         _______ _______ _______ _____ _____    ______ ____
ROOT
ATOM      1  N   UNK A  3       -0.605  -2.548   1.364  0.00  0.00    -0.680 N 
ATOM      2  H   UNK A  3       -1.286  -2.004   1.789  0.00  0.00    +0.400 HD
ATOM      3  C   GLY A  2       -0.918  -3.772   0.893  0.00  0.00    +0.500 C 
ATOM      4  O   GLY A  2       -0.066  -4.453   0.362  0.00  0.00    -0.550 OA
ENDROOT
BRANCH   1   5
ATOM      5  C   UNK A  3        0.763  -2.041   1.233  0.00  0.00    +0.160 C 
BRANCH   5   6
ATOM      6  C   UNK A  3        1.596  -2.538   2.386  0.00  0.00    +0.490 C 
ATOM      7  O   UNK A  3        2.805  -2.384   2.376  0.00  0.00    -0.690 OA
ATOM      8  O   UNK A  3        1.060  -3.094   3.330  0.00  0.00    -0.690 OA
ENDBRANCH   5   6
BRANCH   5   9
ATOM      9  C   UNK A  3        0.742  -0.511   1.242  0.00  0.00    +0.030 C 
BRANCH   9  11
ATOM     10  C   UNK A  3       -0.019   1.526   0.010  0.00  0.00    +0.010 C 
ATOM     11  C   UNK A  3        0.002  -0.004   0.002  0.00  0.00    -0.010 C 
ENDBRANCH   9  11
ENDBRANCH   5   9
ENDBRANCH   1   5
BRANCH   3  12
ATOM     12  CA  GLY A  2       -2.325  -4.294   1.028  0.00  0.00    +0.320 C 
BRANCH  12  13
ATOM     13  N   GLY A  2       -2.406  -5.635   0.444  0.00  0.00    -0.680 N 
ATOM     14  H   GLY A  2       -1.617  -6.043   0.052  0.00  0.00    +0.420 HD
ATOM     15  C   GLY A  1       -3.576  -6.303   0.450  0.00  0.00    +0.490 C 
ATOM     16  O   GLY A  1       -4.563  -5.795   0.939  0.00  0.00    -0.540 OA
BRANCH  15  17
ATOM     17  CA  GLY A  1       -3.660  -7.683  -0.151  0.00  0.00    +0.300 C 
BRANCH  17  18
ATOM     18  N   GLY A  1       -5.032  -8.192  -0.020  0.00  0.00    -0.620 N 
ATOM     19  H1  GLY A  1       -5.088  -9.116  -0.422  0.00  0.00    +0.440 HD
ATOM     20  H2  GLY A  1       -5.667  -7.575  -0.504  0.00  0.00    +0.440 HD
ATOM     21  H3  GLY A  1       -5.283  -8.235   0.957  0.00  0.00    +0.440 HD
ENDBRANCH  17  18
ENDBRANCH  15  17
ENDBRANCH  12  13
ENDBRANCH   3  12
TORSDOF 8
ENDMDL
MODEL     1346
REMARK  Name = ZINC000014638267
REMARK                            x       y       z     vdW  Elec       q    Type
REMARK                         _______ _______ _______ _____ _____    ______ ____
ROOT
ATOM      1  C   LIG    1        0.051  -2.753   2.437  0.00  0.00    +0.270 C 
ENDROOT
BRANCH   1   7
ATOM      2  C   LIG    1       -0.018   1.503   0.010  0.00  0.00    +0.140 C 
ATOM      3  C   LIG    1        0.002  -0.004   0.002  0.00  0.00    +0.090 A 
ATOM      4  C   LIG    1        0.006  -0.689  -1.200  0.00  0.00    +0.220 A 
ATOM      5  N   LIG    1        0.024  -2.011  -1.207  0.00  0.00    -0.430 NA
ATOM      6  C   LIG    1        0.038  -2.677  -0.067  0.00  0.00    +0.230 A 
ATOM      7  C   LIG    1        0.034  -1.992   1.136  0.00  0.00    +0.050 A 
ATOM      8  N   LIG    1        0.022  -0.671   1.143  0.00  0.00    -0.430 NA
ENDBRANCH   1   7
BRANCH   1   9
ATOM      9  O   LIG    1       -0.525  -1.947   3.467  0.00  0.00    -0.530 OA
ATOM     10  H   LIG    1       -0.061  -1.112   3.618  0.00  0.00    +0.380 HD
ENDBRANCH   1   9
BRANCH   1  11
ATOM     11  C   LIG    1        1.494  -3.099   2.807  0.00  0.00    +0.160 C 
BRANCH  11  12
ATOM     12  O   LIG    1        2.070  -3.905   1.776  0.00  0.00    -0.550 OA
ATOM     13  H   LIG    1        1.606  -4.740   1.625  0.00  0.00    +0.380 HD
ENDBRANCH  11  12
BRANCH  11  14
ATOM     14  C   LIG    1        1.511  -3.871   4.127  0.00  0.00    +0.200 C 
BRANCH  14  15
ATOM     15  O   LIG    1        0.660  -5.014   4.022  0.00  0.00    -0.540 OA
ATOM     16  H   LIG    1        0.918  -5.634   3.326  0.00  0.00    +0.370 HD
ENDBRANCH  14  15
BRANCH  14  17
ATOM     17  C   LIG    1        2.940  -4.325   4.434  0.00  0.00    +0.160 C 
BRANCH  17  18
ATOM     18  O   LIG    1        2.976  -4.944   5.722  0.00  0.00    -0.560 OA
ATOM     19  H   LIG    1        3.853  -5.258   5.983  0.00  0.00    +0.380 HD
ENDBRANCH  17  18
ENDBRANCH  14  17
ENDBRANCH  11  14
ENDBRANCH   1  11
TORSDOF 8
ENDMDL
MODEL     1347
REMARK  Name = ZINC000001591511
REMARK                            x       y       z     vdW  Elec       q    Type
REMARK                         _______ _______ _______ _____ _____    ______ ____
ROOT
ATOM      1  C   LIG    1        1.347  -2.620   2.206  0.00  0.00    +0.290 C 
ATOM      2  C   LIG    1        0.382  -2.768   3.361  0.00  0.00    +0.340 C 
ATOM      3  C   LIG    1        0.827  -3.528   4.589  0.00  0.00    +0.060 C 
ATOM      4  C   LIG    1        1.291  -4.925   4.158  0.00  0.00    +0.070 C 
ATOM      5  C   LIG    1        2.256  -4.778   3.003  0.00  0.00    +0.370 C 
ATOM      6  O   LIG    1        3.361  -5.260   3.061  0.00  0.00    -0.420 OA
ATOM      7  O   LIG    1       -0.724  -2.286   3.303  0.00  0.00    -0.420 OA
ATOM      8  C   LIG    1        1.815  -4.016   1.773  0.00  0.00    -0.020 C 
ENDROOT
BRANCH   8   9
ATOM      9  C   LIG    1        2.968  -3.898   0.811  0.00  0.00    +0.530 C 
ATOM     10  O   LIG    1        3.376  -2.803   0.484  0.00  0.00    -0.520 OA
ATOM     11  N   LIG    1        3.547  -5.008   0.313  0.00  0.00    -0.840 N 
ATOM     12  H   LIG    1        4.289  -4.932  -0.307  0.00  0.00    +0.410 HD
ATOM     13  H   LIG    1        3.221  -5.884   0.574  0.00  0.00    +0.400 HD
ENDBRANCH   8   9
BRANCH   1  15
ATOM     14  C   LIG    1        0.620  -0.613   1.032  0.00  0.00    +0.660 C 
ATOM     15  N   LIG    1        0.674  -1.958   1.085  0.00  0.00    -0.690 N 
ATOM     16  H   LIG    1        0.268  -2.488   0.382  0.00  0.00    +0.410 HD
ATOM     17  O   LIG    1        1.129   0.051   1.913  0.00  0.00    -0.570 OA
BRANCH  14  19
ATOM     18  C   LIG    1       -0.018   1.448   0.010  0.00  0.00    +0.300 C 
ATOM     19  O   LIG    1        0.002  -0.004   0.002  0.00  0.00    -0.370 OA
ENDBRANCH  14  19
ENDBRANCH   1  15
TORSDOF 3
ENDMDL
MODEL     1348
REMARK  Name = ZINC000001586283
REMARK                            x       y       z     vdW  Elec       q    Type
REMARK                         _______ _______ _______ _____ _____    ______ ____
ROOT
ATOM      1  C   LIG    1       -1.244  -2.135   0.003  0.00  0.00    +0.120 C 
ATOM      2  C   LIG    1       -0.571  -2.660  -1.241  0.00  0.00    +0.520 C 
ATOM      3  N   LIG    1       -0.924  -3.858  -1.742  0.00  0.00    -0.660 N 
ATOM      4  H   LIG    1       -0.444  -4.217  -2.504  0.00  0.00    +0.440 HD
ATOM      5  C   LIG    1       -1.933  -4.563  -1.203  0.00  0.00    +0.720 C 
ATOM      6  N   LIG    1       -2.776  -4.016  -0.312  0.00  0.00    -0.730 N 
ATOM      7  H   LIG    1       -3.441  -4.573   0.121  0.00  0.00    +0.430 HD
ATOM      8  O   LIG    1       -2.085  -5.724  -1.529  0.00  0.00    -0.530 OA
ATOM      9  O   LIG    1        0.287  -2.002  -1.790  0.00  0.00    -0.440 OA
ATOM     10  F   LIG    1       -0.590  -2.634   1.134  0.00  0.00    -0.140 F 
ATOM     11  C   LIG    1       -2.705  -2.591   0.014  0.00  0.00    +0.420 C 
ENDROOT
BRANCH   1  12
ATOM     12  C   LIG    1       -1.185  -0.630   0.010  0.00  0.00    +0.470 C 
ATOM     13  O   LIG    1       -2.208   0.015   0.023  0.00  0.00    -0.450 OA
BRANCH  12  15
ATOM     14  C   LIG    1       -0.018   1.448   0.010  0.00  0.00    +0.290 C 
ATOM     15  O   LIG    1        0.002  -0.004   0.002  0.00  0.00    -0.330 OA
ENDBRANCH  12  15
ENDBRANCH   1  12
BRANCH  11  16
ATOM     16  O   LIG    1       -3.445  -1.843  -0.954  0.00  0.00    -0.370 OA
ATOM     17  C   LIG    1       -4.862  -1.936  -0.800  0.00  0.00    +0.240 C 
ENDBRANCH  11  16
TORSDOF 3
ENDMDL
MODEL     1349
REMARK  Name = ZINC000001591513
REMARK                            x       y       z     vdW  Elec       q    Type
REMARK                         _______ _______ _______ _____ _____    ______ ____
ROOT
ATOM      1  C   LIG    1        1.347  -2.620   2.206  0.00  0.00    +0.280 C 
ATOM      2  C   LIG    1        0.382  -2.768   3.361  0.00  0.00    +0.340 C 
ATOM      3  C   LIG    1        0.827  -3.528   4.589  0.00  0.00    +0.060 C 
ATOM      4  C   LIG    1        1.291  -4.925   4.158  0.00  0.00    +0.070 C 
ATOM      5  C   LIG    1        2.256  -4.778   3.003  0.00  0.00    +0.370 C 
ATOM      6  O   LIG    1        3.361  -5.260   3.061  0.00  0.00    -0.410 OA
ATOM      7  O   LIG    1       -0.724  -2.286   3.303  0.00  0.00    -0.410 OA
ATOM      8  C   LIG    1        1.815  -4.016   1.773  0.00  0.00    -0.020 C 
ENDROOT
BRANCH   8   9
ATOM      9  C   LIG    1        0.677  -4.745   1.107  0.00  0.00    +0.530 C 
ATOM     10  O   LIG    1       -0.397  -4.199   0.972  0.00  0.00    -0.510 OA
ATOM     11  N   LIG    1        0.853  -6.005   0.661  0.00  0.00    -0.840 N 
ATOM     12  H   LIG    1        0.121  -6.474   0.231  0.00  0.00    +0.410 HD
ATOM     13  H   LIG    1        1.713  -6.442   0.769  0.00  0.00    +0.410 HD
ENDBRANCH   8   9
BRANCH   1  15
ATOM     14  C   LIG    1        0.620  -0.613   1.032  0.00  0.00    +0.650 C 
ATOM     15  N   LIG    1        0.674  -1.958   1.085  0.00  0.00    -0.690 N 
ATOM     16  H   LIG    1        0.268  -2.488   0.382  0.00  0.00    +0.420 HD
ATOM     17  O   LIG    1        1.129   0.051   1.913  0.00  0.00    -0.570 OA
BRANCH  14  19
ATOM     18  C   LIG    1       -0.018   1.448   0.010  0.00  0.00    +0.290 C 
ATOM     19  O   LIG    1        0.002  -0.004   0.002  0.00  0.00    -0.370 OA
ENDBRANCH  14  19
ENDBRANCH   1  15
TORSDOF 3
ENDMDL
MODEL     1350
REMARK  Name = ZINC000083831644
REMARK                            x       y       z     vdW  Elec       q    Type
REMARK                         _______ _______ _______ _____ _____    ______ ____
ROOT
ATOM      1  C   LIG    1        0.657  -2.104  -1.120  0.00  0.00    +0.290 C 
ENDROOT
BRANCH   1   2
ATOM      2  N   LIG    1        0.902  -2.512  -2.505  0.00  0.00    -0.720 N 
ATOM      3  H   LIG    1        0.258  -3.073  -2.966  0.00  0.00    +0.410 HD
ATOM      4  C   LIG    1        2.021  -2.110  -3.139  0.00  0.00    +0.520 C 
ATOM      5  O   LIG    1        2.825  -1.409  -2.563  0.00  0.00    -0.520 OA
ATOM      6  C   LIG    1        2.272  -2.530  -4.564  0.00  0.00    +0.110 C 
ENDBRANCH   1   2
BRANCH   1   7
ATOM      7  C   LIG    1        0.598  -0.600  -1.043  0.00  0.00    +0.450 C 
ATOM      8  O   LIG    1        1.088   0.070  -1.921  0.00  0.00    -0.470 OA
BRANCH   7  10
ATOM      9  C   LIG    1       -0.018   1.448   0.010  0.00  0.00    +0.280 C 
ATOM     10  O   LIG    1        0.002  -0.004   0.002  0.00  0.00    -0.360 OA
ENDBRANCH   7  10
ENDBRANCH   1   7
BRANCH   1  11
ATOM     11  C   LIG    1        1.792  -2.615  -0.229  0.00  0.00    +0.360 C 
BRANCH  11  12
ATOM     12  N   LIG    1        1.774  -4.080  -0.210  0.00  0.00    -0.380 N 
ATOM     13  C   LIG    1        2.794  -4.902  -0.513  0.00  0.00    +0.480 A 
ATOM     14  N   LIG    1        2.377  -6.135  -0.373  0.00  0.00    -0.540 NA
ATOM     15  C   LIG    1        1.102  -6.139   0.016  0.00  0.00    +0.420 A 
ATOM     16  N   LIG    1        0.690  -4.905   0.134  0.00  0.00    -0.320 NA
ENDBRANCH  11  12
ENDBRANCH   1  11
TORSDOF 5
ENDMDL
MODEL     1351
REMARK  Name = ZINC000001608200
REMARK                            x       y       z     vdW  Elec       q    Type
REMARK                         _______ _______ _______ _____ _____    ______ ____
ROOT
ATOM      1  C   LIG    1        0.657  -2.104  -1.120  0.00  0.00    +0.120 C 
ATOM      2  C   LIG    1        1.407  -2.640   0.074  0.00  0.00    +0.520 C 
ATOM      3  N   LIG    1        2.036  -3.827  -0.005  0.00  0.00    -0.660 N 
ATOM      4  H   LIG    1        2.461  -4.196   0.785  0.00  0.00    +0.440 HD
ATOM      5  C   LIG    1        2.083  -4.509  -1.162  0.00  0.00    +0.720 C 
ATOM      6  N   LIG    1        1.725  -3.944  -2.326  0.00  0.00    -0.730 N 
ATOM      7  H   LIG    1        1.691  -4.486  -3.130  0.00  0.00    +0.430 HD
ATOM      8  O   LIG    1        2.460  -5.664  -1.154  0.00  0.00    -0.530 OA
ATOM      9  O   LIG    1        1.442  -2.002   1.105  0.00  0.00    -0.440 OA
ATOM     10  F   LIG    1       -0.642  -2.623  -1.129  0.00  0.00    -0.140 F 
ATOM     11  C   LIG    1        1.385  -2.522  -2.400  0.00  0.00    +0.440 C 
ENDROOT
BRANCH   1  12
ATOM     12  C   LIG    1        0.598  -0.600  -1.043  0.00  0.00    +0.470 C 
ATOM     13  O   LIG    1        1.088   0.070  -1.921  0.00  0.00    -0.440 OA
BRANCH  12  15
ATOM     14  C   LIG    1       -0.018   1.448   0.010  0.00  0.00    +0.290 C 
ATOM     15  O   LIG    1        0.002  -0.004   0.002  0.00  0.00    -0.330 OA
ENDBRANCH  12  15
ENDBRANCH   1  12
BRANCH  11  16
ATOM     16  O   LIG    1        2.581  -1.753  -2.541  0.00  0.00    -0.540 OA
ATOM     17  H   LIG    1        3.093  -1.965  -3.333  0.00  0.00    +0.400 HD
ENDBRANCH  11  16
TORSDOF 3
ENDMDL
MODEL     1352
REMARK  Name = ZINC000001608034
REMARK                            x       y       z     vdW  Elec       q    Type
REMARK                         _______ _______ _______ _____ _____    ______ ____
ROOT
ATOM      1  N   LIG    1       -5.374  -2.069  -0.524  0.00  0.00    -0.510 N 
ATOM      2  C   LIG    1       -5.849  -2.479   0.684  0.00  0.00    +0.430 A 
ATOM      3  C   LIG    1       -6.691  -1.661   1.369  0.00  0.00    -0.090 A 
ATOM      4  N   LIG    1       -7.038  -0.482   0.855  0.00  0.00    +0.160 N 
ATOM      5  N   LIG    1       -6.589  -0.096  -0.287  0.00  0.00    -0.290 NA
ATOM      6  O   LIG    1       -7.917   0.361   1.578  0.00  0.00    -0.390 OA
ATOM      7  C   LIG    1       -7.232  -2.088   2.710  0.00  0.00    +0.190 C 
ATOM      8  C   LIG    1       -5.752  -0.864  -0.999  0.00  0.00    +0.610 A 
ATOM      9  O   LIG    1       -5.340  -0.476  -2.079  0.00  0.00    -0.470 OA
ENDROOT
BRANCH   1  10
ATOM     10  C   LIG    1       -4.464  -2.920  -1.294  0.00  0.00    +0.520 C 
BRANCH  10  11
ATOM     11  O   LIG    1       -3.135  -2.402  -1.202  0.00  0.00    -0.350 OA
BRANCH  11  12
ATOM     12  C   LIG    1       -2.461  -2.744   0.011  0.00  0.00    +0.200 C 
BRANCH  12  13
ATOM     13  C   LIG    1       -1.056  -2.140   0.001  0.00  0.00    +0.250 C 
BRANCH  13  14
ATOM     14  O   LIG    1       -1.151  -0.691   0.009  0.00  0.00    -0.350 OA
BRANCH  14  16
ATOM     15  C   LIG    1       -0.018   1.503   0.010  0.00  0.00    +0.150 C 
ATOM     16  C   LIG    1        0.002  -0.004   0.002  0.00  0.00    +0.460 C 
ATOM     17  O   LIG    1        1.056  -0.594  -0.011  0.00  0.00    -0.510 OA
ENDBRANCH  14  16
ENDBRANCH  13  14
ENDBRANCH  12  13
ENDBRANCH  11  12
ENDBRANCH  10  11
ENDBRANCH   1  10
TORSDOF 6
ENDMDL
MODEL     1353
REMARK  Name = ZINC000001608202
REMARK                            x       y       z     vdW  Elec       q    Type
REMARK                         _______ _______ _______ _____ _____    ______ ____
ROOT
ATOM      1  C   LIG    1        0.657  -2.104  -1.120  0.00  0.00    +0.130 C 
ATOM      2  C   LIG    1        1.407  -2.640   0.074  0.00  0.00    +0.510 C 
ATOM      3  N   LIG    1        2.749  -2.728   0.041  0.00  0.00    -0.660 N 
ATOM      4  H   LIG    1        3.229  -3.012   0.835  0.00  0.00    +0.440 HD
ATOM      5  C   LIG    1        3.435  -2.427  -1.074  0.00  0.00    +0.710 C 
ATOM      6  N   LIG    1        2.818  -2.261  -2.256  0.00  0.00    -0.730 N 
ATOM      7  H   LIG    1        3.330  -1.963  -3.024  0.00  0.00    +0.440 HD
ATOM      8  O   LIG    1        4.642  -2.302  -1.013  0.00  0.00    -0.530 OA
ATOM      9  O   LIG    1        0.800  -2.993   1.063  0.00  0.00    -0.440 OA
ATOM     10  F   LIG    1       -0.642  -2.623  -1.129  0.00  0.00    -0.120 F 
ATOM     11  C   LIG    1        1.385  -2.522  -2.400  0.00  0.00    +0.440 C 
ENDROOT
BRANCH   1  12
ATOM     12  C   LIG    1        0.598  -0.600  -1.043  0.00  0.00    +0.460 C 
ATOM     13  O   LIG    1        1.088   0.070  -1.921  0.00  0.00    -0.460 OA
BRANCH  12  15
ATOM     14  C   LIG    1       -0.018   1.448   0.010  0.00  0.00    +0.290 C 
ATOM     15  O   LIG    1        0.002  -0.004   0.002  0.00  0.00    -0.330 OA
ENDBRANCH  12  15
ENDBRANCH   1  12
BRANCH  11  16
ATOM     16  O   LIG    1        1.176  -3.917  -2.630  0.00  0.00    -0.550 OA
ATOM     17  H   LIG    1        1.609  -4.253  -3.427  0.00  0.00    +0.400 HD
ENDBRANCH  11  16
TORSDOF 3
ENDMDL
MODEL     1354
REMARK  Name = ZINC000001605278
REMARK                            x       y       z     vdW  Elec       q    Type
REMARK                         _______ _______ _______ _____ _____    ______ ____
ROOT
ATOM      1  CA  HIS A  1       -3.465  -1.164  -1.134  0.00  0.00    +0.180 C 
ENDROOT
BRANCH   1   4
ATOM      2  N   ALA A  2       -1.372  -0.511   0.012  0.00  0.00    -0.650 N 
ATOM      3  H   ALA A  2       -1.794  -0.752   0.852  0.00  0.00    +0.420 HD
ATOM      4  C   HIS A  1       -2.051  -0.643  -1.145  0.00  0.00    +0.490 C 
ATOM      5  O   HIS A  1       -1.524  -0.341  -2.194  0.00  0.00    -0.550 OA
BRANCH   2   7
ATOM      6  CB  ALA A  2       -0.019   1.526   0.010  0.00  0.00    +0.040 C 
ATOM      7  CA  ALA A  2        0.002  -0.004   0.002  0.00  0.00    +0.150 C 
BRANCH   7   8
ATOM      8  C   ALA A  2        0.731  -0.503   1.223  0.00  0.00    +0.490 C 
ATOM      9  OXT ALA A  2        1.937  -0.350   1.318  0.00  0.00    -0.670 OA
ATOM     10  O   ALA A  2        0.115  -1.060   2.115  0.00  0.00    -0.690 OA
ENDBRANCH   7   8
ENDBRANCH   2   7
ENDBRANCH   1   4
BRANCH   1  11
ATOM     11  N   HIS A  1       -4.139  -0.778  -2.381  0.00  0.00    -0.620 N 
ATOM     12  H1  HIS A  1       -3.642  -1.169  -3.167  0.00  0.00    +0.440 HD
ATOM     13  H2  HIS A  1       -4.152   0.228  -2.458  0.00  0.00    +0.440 HD
ATOM     14  H3  HIS A  1       -5.085  -1.127  -2.374  0.00  0.00    +0.430 HD
ENDBRANCH   1  11
BRANCH   1  15
ATOM     15  CB  HIS A  1       -3.445  -2.690  -1.017  0.00  0.00    +0.190 C 
BRANCH  15  16
ATOM     16  CG  HIS A  1       -4.856  -3.202  -0.882  0.00  0.00    -0.090 A 
ATOM     17  CD2 HIS A  1       -5.570  -3.297   0.255  0.00  0.00    +0.200 A 
ATOM     18  NE2 HIS A  1       -6.775  -3.799  -0.053  0.00  0.00    -0.490 NA
ATOM     19  CE1 HIS A  1       -6.835  -4.019  -1.338  0.00  0.00    +0.430 A 
ATOM     20  ND1 HIS A  1       -5.659  -3.654  -1.894  0.00  0.00    -0.580 N 
ATOM     21  HD1 HIS A  1       -5.426  -3.708  -2.834  0.00  0.00    +0.420 HD
ENDBRANCH  15  16
ENDBRANCH   1  15
TORSDOF 6
ENDMDL
MODEL     1355
REMARK  Name = ZINC000040168068
REMARK                            x       y       z     vdW  Elec       q    Type
REMARK                         _______ _______ _______ _____ _____    ______ ____
ROOT
ATOM      1  O   LIG    1        0.002  -0.004   0.002  0.00  0.00    -0.910 OA
ATOM      2  S   LIG    1       -0.017   1.417   0.010  0.00  0.00    +2.410 S 
ATOM      3  C   LIG    1       -0.458   2.011   1.693  0.00  0.00    -0.270 C 
ATOM      4  C   LIG    1        0.925   2.125   2.358  0.00  0.00    +0.170 C 
ATOM      5  N   LIG    1        0.933   2.949   3.564  0.00  0.00    -0.420 NA
ATOM      6  H   LIG    1        0.514   3.851   3.389  0.00  0.00    +0.360 HD
ATOM      7  N   LIG    1        2.220   3.084   4.015  0.00  0.00    -0.510 N 
ATOM      8  H   LIG    1        2.361   3.263   4.958  0.00  0.00    +0.460 HD
ATOM      9  C   LIG    1        3.293   2.982   3.216  0.00  0.00    +0.550 C 
ATOM     10  N   LIG    1        3.185   2.828   1.874  0.00  0.00    -0.670 N 
ATOM     11  H   LIG    1        3.968   2.732   1.309  0.00  0.00    +0.440 HD
ATOM     12  S   LIG    1        4.854   3.047   3.918  0.00  0.00    -0.600 S 
ATOM     13  C   LIG    1        1.838   2.810   1.317  0.00  0.00    +0.200 C 
ATOM     14  O   LIG    1       -0.784   2.120  -0.958  0.00  0.00    -0.910 OA
ATOM     15  C   LIG    1        1.705   2.049  -0.003  0.00  0.00    -0.290 C 
ENDROOT
TORSDOF 0
ENDMDL
MODEL     1356
REMARK  Name = ZINC000001629456
REMARK                            x       y       z     vdW  Elec       q    Type
REMARK                         _______ _______ _______ _____ _____    ______ ____
ROOT
ATOM      1  C1* LIG    1       -0.250  -3.059  -0.007  0.00  0.00    +0.470 C 
ATOM      2  O4* LIG    1       -0.578  -4.137  -0.910  0.00  0.00    -0.320 OA
ATOM      3  C4* LIG    1       -1.521  -4.961  -0.191  0.00  0.00    +0.140 C 
ATOM      4  C3* LIG    1       -0.981  -5.009   1.256  0.00  0.00    +0.140 C 
ATOM      5  C2* LIG    1       -0.123  -3.726   1.380  0.00  0.00    +0.180 C 
ENDROOT
BRANCH   1  10
ATOM      6  C   LIG    1       -1.187  -0.712   0.010  0.00  0.00    +0.510 A 
ATOM      7  N   LIG    1       -2.399  -0.203   0.018  0.00  0.00    -0.370 NA
ATOM      8  N   LIG    1       -3.280  -1.138   0.023  0.00  0.00    -0.010 NA
ATOM      9  N   LIG    1       -2.707  -2.293   0.018  0.00  0.00    -0.090 NA
ATOM     10  N   LIG    1       -1.320  -2.059   0.004  0.00  0.00    -0.430 N 
BRANCH   6  12
ATOM     11  C   LIG    1       -0.018   1.461   0.010  0.00  0.00    +0.330 C 
ATOM     12  N   LIG    1        0.002  -0.004   0.002  0.00  0.00    -0.700 N 
ATOM     13  H   LIG    1        0.849  -0.478  -0.009  0.00  0.00    +0.420 HD
ENDBRANCH   6  12
ENDBRANCH   1  10
BRANCH   4  14
ATOM     14  O3* LIG    1       -0.176  -6.173   1.452  0.00  0.00    -0.540 OA
ATOM     15  H3* LIG    1       -0.652  -7.006   1.327  0.00  0.00    +0.390 HD
ENDBRANCH   4  14
BRANCH   5  16
ATOM     16  O2* LIG    1        1.238  -4.059   1.659  0.00  0.00    -0.540 OA
ATOM     17  H2* LIG    1        1.364  -4.535   2.491  0.00  0.00    +0.400 HD
ENDBRANCH   5  16
BRANCH   3  18
ATOM     18  C5* LIG    1       -1.566  -6.368  -0.791  0.00  0.00    +0.210 C 
BRANCH  18  19
ATOM     19  O5* LIG    1       -2.109  -6.305  -2.112  0.00  0.00    -0.560 OA
ATOM     20  H5* LIG    1       -2.167  -7.162  -2.554  0.00  0.00    +0.390 HD
ENDBRANCH  18  19
ENDBRANCH   3  18
TORSDOF 6
ENDMDL
MODEL     1357
REMARK  Name = ZINC000001637993
REMARK                            x       y       z     vdW  Elec       q    Type
REMARK                         _______ _______ _______ _____ _____    ______ ____
ROOT
ATOM      1  CA  PRO A  2        0.712  -1.094  -3.598  0.00  0.00    +0.230 C 
ATOM      2  CB  PRO A  2        1.834  -0.108  -3.984  0.00  0.00    +0.060 C 
ATOM      3  CG  PRO A  2        1.759  -0.086  -5.534  0.00  0.00    +0.060 C 
ATOM      4  CD  PRO A  2        0.235  -0.219  -5.774  0.00  0.00    +0.250 C 
ATOM      5  N   PRO A  2       -0.234  -1.147  -4.723  0.00  0.00    -0.580 N 
ATOM      6  C   GLY A  1       -1.343  -1.910  -4.787  0.00  0.00    +0.510 C 
ATOM      7  O   GLY A  1       -1.631  -2.639  -3.861  0.00  0.00    -0.510 OA
ENDROOT
BRANCH   1  10
ATOM      8  N   ALA A  3        0.688  -0.476  -1.203  0.00  0.00    -0.680 N 
ATOM      9  H   ALA A  3        1.632  -0.695  -1.170  0.00  0.00    +0.410 HD
ATOM     10  C   PRO A  2        0.006  -0.608  -2.358  0.00  0.00    +0.500 C 
ATOM     11  O   PRO A  2       -1.175  -0.336  -2.400  0.00  0.00    -0.550 OA
BRANCH   8  13
ATOM     12  CB  ALA A  3       -0.019   1.526   0.010  0.00  0.00    +0.020 C 
ATOM     13  CA  ALA A  3        0.002  -0.004   0.002  0.00  0.00    +0.150 C 
BRANCH  13  14
ATOM     14  C   ALA A  3        0.731  -0.503   1.223  0.00  0.00    +0.490 C 
ATOM     15  OXT ALA A  3        1.824  -1.032   1.107  0.00  0.00    -0.690 OA
ATOM     16  O   ALA A  3        0.228  -0.379   2.326  0.00  0.00    -0.680 OA
ENDBRANCH  13  14
ENDBRANCH   8  13
ENDBRANCH   1  10
BRANCH   6  17
ATOM     17  CA  GLY A  1       -2.224  -1.859  -6.008  0.00  0.00    +0.300 C 
BRANCH  17  18
ATOM     18  N   GLY A  1       -3.358  -2.775  -5.832  0.00  0.00    -0.620 N 
ATOM     19  H1  GLY A  1       -3.891  -2.499  -5.021  0.00  0.00    +0.440 HD
ATOM     20  H2  GLY A  1       -3.015  -3.715  -5.705  0.00  0.00    +0.440 HD
ATOM     21  H3  GLY A  1       -3.948  -2.741  -6.650  0.00  0.00    +0.440 HD
ENDBRANCH  17  18
ENDBRANCH   6  17
TORSDOF 5
ENDMDL
MODEL     1358
REMARK  Name = ZINC000001584128
REMARK                            x       y       z     vdW  Elec       q    Type
REMARK                         _______ _______ _______ _____ _____    ______ ____
ROOT
ATOM      1  C   LIG    1       -1.056  -2.140   0.001  0.00  0.00    +0.450 C 
ATOM      2  N   LIG    1       -0.547  -2.576  -1.293  0.00  0.00    -0.710 N 
ATOM      3  H   LIG    1        0.406  -2.511  -1.463  0.00  0.00    +0.430 HD
ATOM      4  C   LIG    1       -1.337  -3.064  -2.255  0.00  0.00    +0.540 C 
ATOM      5  C   LIG    1       -2.820  -3.207  -2.091  0.00  0.00    +0.440 C 
ATOM      6  N   LIG    1       -3.199  -3.205  -0.685  0.00  0.00    -0.710 N 
ATOM      7  H   LIG    1       -4.063  -3.569  -0.437  0.00  0.00    +0.430 HD
ATOM      8  O   LIG    1       -0.832  -3.404  -3.304  0.00  0.00    -0.490 OA
ATOM      9  C   LIG    1       -2.409  -2.723   0.278  0.00  0.00    +0.540 C 
ATOM     10  O   LIG    1       -2.801  -2.757   1.425  0.00  0.00    -0.490 OA
ENDROOT
BRANCH   1  11
ATOM     11  O   LIG    1       -1.151  -0.691   0.009  0.00  0.00    -0.350 OA
BRANCH  11  13
ATOM     12  C   LIG    1       -0.018   1.503   0.010  0.00  0.00    +0.170 C 
ATOM     13  C   LIG    1        0.002  -0.004   0.002  0.00  0.00    +0.470 C 
ATOM     14  O   LIG    1        1.056  -0.594  -0.011  0.00  0.00    -0.500 OA
ENDBRANCH  11  13
ENDBRANCH   1  11
BRANCH   5  15
ATOM     15  O   LIG    1       -3.481  -2.103  -2.762  0.00  0.00    -0.350 OA
BRANCH  15  16
ATOM     16  C   LIG    1       -4.815  -2.180  -2.894  0.00  0.00    +0.470 C 
ATOM     17  O   LIG    1       -5.410  -3.139  -2.463  0.00  0.00    -0.500 OA
ATOM     18  C   LIG    1       -5.570  -1.071  -3.580  0.00  0.00    +0.170 C 
ENDBRANCH  15  16
ENDBRANCH   5  15
TORSDOF 4
ENDMDL
MODEL     1359
REMARK  Name = ZINC000016952722
REMARK                            x       y       z     vdW  Elec       q    Type
REMARK                         _______ _______ _______ _____ _____    ______ ____
ROOT
ATOM      1  C   LIG    1        2.454   1.494  -0.010  0.00  0.00    +0.580 C 
ENDROOT
BRANCH   1   7
ATOM      2  O   LIG    1        0.002  -0.004   0.002  0.00  0.00    -0.520 OA
ATOM      3  C   LIG    1       -0.014   1.209   0.009  0.00  0.00    +0.520 C 
ATOM      4  C   LIG    1       -1.266   2.058   0.032  0.00  0.00    +0.070 C 
ATOM      5  C   LIG    1       -0.765   3.459   0.452  0.00  0.00    +0.030 C 
ATOM      6  C   LIG    1        0.711   3.415   0.001  0.00  0.00    +0.390 C 
ATOM      7  N   LIG    1        1.077   1.993   0.003  0.00  0.00    -0.620 N 
BRANCH   6   8
ATOM      8  O   LIG    1        1.532   4.136   0.922  0.00  0.00    -0.550 OA
ATOM      9  H   LIG    1        1.310   5.074   0.995  0.00  0.00    +0.390 HD
ENDBRANCH   6   8
ENDBRANCH   1   7
BRANCH   1  10
ATOM     10  N   LIG    1        2.928   1.333   1.367  0.00  0.00    -0.610 N 
ATOM     11  C   LIG    1        3.546   2.295   2.074  0.00  0.00    +0.530 C 
ATOM     12  C   LIG    1        3.886   1.787   3.458  0.00  0.00    +0.060 C 
ATOM     13  C   LIG    1        3.013   0.521   3.622  0.00  0.00    +0.030 C 
ATOM     14  O   LIG    1        3.795   3.408   1.662  0.00  0.00    -0.500 OA
ATOM     15  C   LIG    1        2.783   0.103   2.154  0.00  0.00    +0.390 C 
BRANCH  15  16
ATOM     16  O   LIG    1        3.765  -0.853   1.752  0.00  0.00    -0.580 OA
ATOM     17  H   LIG    1        3.747  -1.675   2.262  0.00  0.00    +0.390 HD
ENDBRANCH  15  16
ENDBRANCH   1  10
TORSDOF 4
ENDMDL
MODEL     1360
REMARK  Name = ZINC000016951295
REMARK                            x       y       z     vdW  Elec       q    Type
REMARK                         _______ _______ _______ _____ _____    ______ ____
ROOT
ATOM      1  N   LIG    1        2.405  -2.705  -0.024  0.00  0.00    -0.710 N 
ATOM      2  H   LIG    1        3.235  -2.203  -0.025  0.00  0.00    +0.410 HD
ENDROOT
BRANCH   1   7
ATOM      3  C   LIG    1        0.002  -0.004   0.002  0.00  0.00    +0.450 A 
ATOM      4  C   LIG    1       -1.165  -0.712   0.004  0.00  0.00    -0.240 A 
ATOM      5  C   LIG    1       -1.107  -2.120  -0.004  0.00  0.00    +0.540 A 
ATOM      6  N   LIG    1        0.086  -2.736  -0.013  0.00  0.00    -0.620 NA
ATOM      7  C   LIG    1        1.205  -2.044  -0.015  0.00  0.00    +0.660 A 
ATOM      8  O   LIG    1       -2.137  -2.777  -0.003  0.00  0.00    -0.530 OA
ATOM      9  N   LIG    1        1.192  -0.683  -0.013  0.00  0.00    -0.650 N 
ATOM     10  H   LIG    1        2.029  -0.191  -0.015  0.00  0.00    +0.410 HD
BRANCH   3  11
ATOM     11  N   LIG    1       -0.017   1.371   0.010  0.00  0.00    -0.850 N 
ATOM     12  H   LIG    1       -0.863   1.845   0.016  0.00  0.00    +0.430 HD
ATOM     13  H   LIG    1        0.817   1.868   0.004  0.00  0.00    +0.400 HD
ENDBRANCH   3  11
ENDBRANCH   1   7
BRANCH   1  14
ATOM     14  C   LIG    1        2.434  -4.170  -0.032  0.00  0.00    +0.310 C 
BRANCH  14  15
ATOM     15  C   LIG    1        3.886  -4.651  -0.041  0.00  0.00    -0.010 C 
BRANCH  15  16
ATOM     16  C   LIG    1        3.917  -6.180  -0.050  0.00  0.00    +0.070 C 
BRANCH  16  17
ATOM     17  CA  LIG    1        5.369  -6.662  -0.059  0.00  0.00    +0.080 C 
BRANCH  17  18
ATOM     18  N   LIG    1        6.012  -6.253  -1.315  0.00  0.00    -0.620 N 
ATOM     19  H1  LIG    1        5.990  -5.247  -1.393  0.00  0.00    +0.410 HD
ATOM     20  H2  LIG    1        5.517  -6.661  -2.095  0.00  0.00    +0.430 HD
ATOM     21  H3  LIG    1        6.970  -6.570  -1.322  0.00  0.00    +0.430 HD
ENDBRANCH  17  18
BRANCH  17  22
ATOM     22  C   LIG    1        5.401  -8.164   0.056  0.00  0.00    +0.490 C 
ATOM     23  OXT LIG    1        5.448  -8.690   1.155  0.00  0.00    -0.640 OA
ATOM     24  O   LIG    1        5.380  -8.853  -0.949  0.00  0.00    -0.670 OA
ENDBRANCH  17  22
ENDBRANCH  16  17
ENDBRANCH  15  16
ENDBRANCH  14  15
ENDBRANCH   1  14
TORSDOF 8
ENDMDL
MODEL     1361
REMARK  Name = ZINC000001584131
REMARK                            x       y       z     vdW  Elec       q    Type
REMARK                         _______ _______ _______ _____ _____    ______ ____
ROOT
ATOM      1  C   LIG    1       -1.056  -2.140   0.001  0.00  0.00    +0.450 C 
ATOM      2  N   LIG    1       -0.636  -2.598   1.318  0.00  0.00    -0.710 N 
ATOM      3  H   LIG    1        0.303  -2.536   1.554  0.00  0.00    +0.420 HD
ATOM      4  C   LIG    1       -1.488  -3.101   2.216  0.00  0.00    +0.540 C 
ATOM      5  C   LIG    1       -2.957  -3.240   1.950  0.00  0.00    +0.450 C 
ATOM      6  N   LIG    1       -3.240  -3.215   0.521  0.00  0.00    -0.710 N 
ATOM      7  H   LIG    1       -4.085  -3.575   0.209  0.00  0.00    +0.420 HD
ATOM      8  O   LIG    1       -1.056  -3.459   3.292  0.00  0.00    -0.490 OA
ATOM      9  C   LIG    1       -2.386  -2.717  -0.377  0.00  0.00    +0.540 C 
ATOM     10  O   LIG    1       -2.700  -2.733  -1.548  0.00  0.00    -0.490 OA
ENDROOT
BRANCH   1  11
ATOM     11  O   LIG    1       -1.151  -0.691   0.009  0.00  0.00    -0.350 OA
BRANCH  11  13
ATOM     12  C   LIG    1       -0.018   1.503   0.010  0.00  0.00    +0.180 C 
ATOM     13  C   LIG    1        0.002  -0.004   0.002  0.00  0.00    +0.470 C 
ATOM     14  O   LIG    1        1.056  -0.594  -0.011  0.00  0.00    -0.500 OA
ENDBRANCH  11  13
ENDBRANCH   1  11
BRANCH   5  15
ATOM     15  O   LIG    1       -3.663  -2.147   2.593  0.00  0.00    -0.350 OA
BRANCH  15  16
ATOM     16  C   LIG    1       -4.993  -2.274   2.724  0.00  0.00    +0.470 C 
ATOM     17  O   LIG    1       -5.548  -3.266   2.316  0.00  0.00    -0.500 OA
ATOM     18  C   LIG    1       -5.793  -1.179   3.382  0.00  0.00    +0.170 C 
ENDBRANCH  15  16
ENDBRANCH   5  15
TORSDOF 4
ENDMDL
MODEL     1362
REMARK  Name = ZINC000016975178
REMARK                            x       y       z     vdW  Elec       q    Type
REMARK                         _______ _______ _______ _____ _____    ______ ____
ROOT
ATOM      1  N   LIG    1        0.663  -1.040   3.700  0.00  0.00    -0.450 N 
ATOM      2  C   LIG    1        1.956  -1.466   3.748  0.00  0.00    +0.440 A 
ATOM      3  N   LIG    1        2.257  -1.826   4.963  0.00  0.00    -0.420 NA
ATOM      4  C   LIG    1        1.178  -1.653   5.760  0.00  0.00    -0.100 A 
ATOM      5  C   LIG    1        0.920  -1.869   7.137  0.00  0.00    +0.570 A 
ATOM      6  O   LIG    1        1.784  -2.313   7.874  0.00  0.00    -0.500 OA
ATOM      7  N   LIG    1       -0.314  -1.581   7.609  0.00  0.00    -0.640 N 
ATOM      8  H   LIG    1       -0.516  -1.722   8.547  0.00  0.00    +0.430 HD
ATOM      9  C   LIG    1       -1.268  -1.088   6.780  0.00  0.00    +0.620 A 
ATOM     10  N   LIG    1       -1.045  -0.878   5.512  0.00  0.00    -0.520 NA
ATOM     11  C   LIG    1        0.148  -1.143   4.963  0.00  0.00    +0.260 A 
ENDROOT
BRANCH   1  12
ATOM     12  C   LIG    1       -0.046  -0.555   2.513  0.00  0.00    +0.300 C 
BRANCH  12  13
ATOM     13  C   LIG    1        0.041   0.972   2.456  0.00  0.00    +0.070 C 
BRANCH  13  14
ATOM     14  CA  LIG    1       -0.699   1.479   1.216  0.00  0.00    +0.100 C 
BRANCH  14  15
ATOM     15  N   LIG    1       -0.012   1.005   0.008  0.00  0.00    -0.620 N 
ATOM     16  H1  LIG    1       -0.500   1.339  -0.810  0.00  0.00    +0.440 HD
ATOM     17  H2  LIG    1        0.935   1.354   0.000  0.00  0.00    +0.430 HD
ATOM     18  H3  LIG    1        0.002  -0.004   0.002  0.00  0.00    +0.410 HD
ENDBRANCH  14  15
BRANCH  14  19
ATOM     19  C   LIG    1       -0.720   2.985   1.224  0.00  0.00    +0.490 C 
ATOM     20  OXT LIG    1       -0.057   3.608   0.413  0.00  0.00    -0.670 OA
ATOM     21  O   LIG    1       -1.399   3.581   2.043  0.00  0.00    -0.630 OA
ENDBRANCH  14  19
ENDBRANCH  13  14
ENDBRANCH  12  13
ENDBRANCH   1  12
TORSDOF 5
ENDMDL
MODEL     1363
REMARK  Name = ZINC000017013083
REMARK                            x       y       z     vdW  Elec       q    Type
REMARK                         _______ _______ _______ _____ _____    ______ ____
ROOT
ATOM      1  C   LIG    1        0.002  -0.004   0.002  0.00  0.00    +0.670 A 
ATOM      2  N   LIG    1       -1.137  -0.664   0.004  0.00  0.00    -0.630 NA
ATOM      3  C   LIG    1       -1.162  -2.002  -0.003  0.00  0.00    +0.500 A 
ATOM      4  C   LIG    1        0.030  -2.712  -0.013  0.00  0.00    -0.430 A 
ATOM      5  C   LIG    1        1.235  -2.003  -0.015  0.00  0.00    +0.530 A 
ATOM      6  O   LIG    1        2.304  -2.594  -0.023  0.00  0.00    -0.460 OA
ATOM      7  N   LIG    1        1.198  -0.654  -0.013  0.00  0.00    -0.660 N 
ATOM      8  H   LIG    1        2.024  -0.147  -0.014  0.00  0.00    +0.410 HD
ENDROOT
BRANCH   1   9
ATOM      9  N   LIG    1       -0.017   1.365   0.009  0.00  0.00    -0.820 N 
ATOM     10  H   LIG    1       -0.863   1.839   0.016  0.00  0.00    +0.430 HD
ATOM     11  H   LIG    1        0.817   1.861   0.004  0.00  0.00    +0.420 HD
ENDBRANCH   1   9
BRANCH   3  12
ATOM     12  N   LIG    1       -2.368  -2.673  -0.002  0.00  0.00    -0.830 N 
ATOM     13  H   LIG    1       -2.384  -3.643  -0.007  0.00  0.00    +0.410 HD
ATOM     14  H   LIG    1       -3.200  -2.174   0.005  0.00  0.00    +0.410 HD
ENDBRANCH   3  12
BRANCH   4  15
ATOM     15  C   LIG    1        0.026  -4.219  -0.021  0.00  0.00    +0.420 C 
BRANCH  15  16
ATOM     16  N   LIG    1        0.139  -4.700  -1.401  0.00  0.00    -0.570 N 
ATOM     17  C   LIG    1       -0.990  -4.970  -2.304  0.00  0.00    +0.250 C 
ATOM     18  C   LIG    1       -0.316  -5.445  -3.606  0.00  0.00    +0.260 C 
ATOM     19  N   LIG    1        1.121  -5.392  -3.298  0.00  0.00    -0.690 N 
ATOM     20  H   LIG    1        1.836  -5.630  -3.909  0.00  0.00    +0.440 HD
ATOM     21  C   LIG    1        1.286  -4.958  -2.042  0.00  0.00    +0.540 C 
ATOM     22  S   LIG    1        2.825  -4.762  -1.316  0.00  0.00    -0.590 S 
ENDBRANCH  15  16
ENDBRANCH   4  15
TORSDOF 4
ENDMDL
MODEL     1364
REMARK  Name = ZINC000009307788
REMARK                            x       y       z     vdW  Elec       q    Type
REMARK                         _______ _______ _______ _____ _____    ______ ____
ROOT
ATOM      1  N   LIG    1       -1.237   1.898   0.018  0.00  0.00    -0.450 N 
ATOM      2  C   LIG    1       -1.306   3.294   0.020  0.00  0.00    +0.310 A 
ATOM      3  N   LIG    1       -0.417   4.189  -0.245  0.00  0.00    -0.230 NA
ATOM      4  O   LIG    1       -1.029   5.463  -0.099  0.00  0.00    +0.070 OA
ATOM      5  N   LIG    1       -2.380   5.252   0.289  0.00  0.00    -0.230 NA
ATOM      6  C   LIG    1       -2.570   3.980   0.371  0.00  0.00    +0.310 A 
ATOM      7  N   LIG    1       -3.702   3.238   0.722  0.00  0.00    -0.450 N 
ATOM      8  C   LIG    1       -3.466   1.821   1.061  0.00  0.00    +0.500 C 
ATOM      9  C   LIG    1       -2.531   1.188   0.021  0.00  0.00    +0.500 C 
ENDROOT
BRANCH   1  11
ATOM     10  O   LIG    1        0.002  -0.004   0.002  0.00  0.00    -0.130 OA
ATOM     11  N   LIG    1       -0.014   1.214   0.009  0.00  0.00    +0.200 N 
ATOM     12  O   LIG    1        1.032   1.837   0.002  0.00  0.00    -0.110 OA
ENDBRANCH   1  11
BRANCH   7  13
ATOM     13  N   LIG    1       -4.983   3.805   0.749  0.00  0.00    +0.200 N 
ATOM     14  O   LIG    1       -5.944   3.124   1.060  0.00  0.00    -0.130 OA
ATOM     15  O   LIG    1       -5.136   4.979   0.462  0.00  0.00    -0.110 OA
ENDBRANCH   7  13
BRANCH   8  16
ATOM     16  O   LIG    1       -2.866   1.737   2.355  0.00  0.00    -0.540 OA
ATOM     17  H   LIG    1       -3.405   2.114   3.064  0.00  0.00    +0.410 HD
ENDBRANCH   8  16
BRANCH   9  18
ATOM     18  O   LIG    1       -3.131   1.277  -1.273  0.00  0.00    -0.530 OA
ATOM     19  H   LIG    1       -2.595   0.896  -1.982  0.00  0.00    +0.410 HD
ENDBRANCH   9  18
TORSDOF 4
ENDMDL
MODEL     1365
REMARK  Name = ZINC000017064652
REMARK                            x       y       z     vdW  Elec       q    Type
REMARK                         _______ _______ _______ _____ _____    ______ ____
ROOT
ATOM      1  C   LIG    1       -0.016  -4.213  -0.021  0.00  0.00    +0.260 C 
ATOM      2  O   LIG    1        0.781  -4.705  -1.111  0.00  0.00    -0.340 OA
ATOM      3  C   LIG    1        1.393  -5.935  -0.665  0.00  0.00    +0.130 C 
ATOM      4  C   LIG    1        1.789  -5.630   0.802  0.00  0.00    +0.130 C 
ATOM      5  C   LIG    1        0.603  -4.752   1.283  0.00  0.00    +0.170 C 
ENDROOT
BRANCH   1   9
ATOM      6  C   LIG    1        0.002  -0.004   0.002  0.00  0.00    +0.640 A 
ATOM      7  N   LIG    1       -1.137  -0.667   0.004  0.00  0.00    -0.600 NA
ATOM      8  C   LIG    1       -1.164  -1.998  -0.003  0.00  0.00    +0.390 A 
ATOM      9  C   LIG    1        0.003  -2.706  -0.013  0.00  0.00    -0.320 A 
ATOM     10  C   LIG    1        1.222  -2.006  -0.015  0.00  0.00    +0.540 A 
ATOM     11  O   LIG    1        2.284  -2.607  -0.024  0.00  0.00    -0.490 OA
ATOM     12  N   LIG    1        1.196  -0.656  -0.013  0.00  0.00    -0.660 N 
ATOM     13  H   LIG    1        2.025  -0.153  -0.014  0.00  0.00    +0.410 HD
BRANCH   6  14
ATOM     14  N   LIG    1       -0.017   1.365   0.009  0.00  0.00    -0.820 N 
ATOM     15  H   LIG    1       -0.863   1.838   0.016  0.00  0.00    +0.430 HD
ATOM     16  H   LIG    1        0.817   1.861   0.004  0.00  0.00    +0.420 HD
ENDBRANCH   6  14
ENDBRANCH   1   9
BRANCH   4  17
ATOM     17  O   LIG    1        3.019  -4.904   0.858  0.00  0.00    -0.520 OA
ATOM     18  H   LIG    1        3.773  -5.380   0.485  0.00  0.00    +0.370 HD
ENDBRANCH   4  17
BRANCH   5  19
ATOM     19  O   LIG    1       -0.344  -5.543   2.004  0.00  0.00    -0.550 OA
ATOM     20  H   LIG    1        0.014  -5.953   2.804  0.00  0.00    +0.380 HD
ENDBRANCH   5  19
BRANCH   3  21
ATOM     21  C   LIG    1        2.630  -6.257  -1.505  0.00  0.00    +0.200 C 
BRANCH  21  22
ATOM     22  O   LIG    1        2.233  -6.547  -2.847  0.00  0.00    -0.560 OA
ATOM     23  H   LIG    1        2.968  -6.761  -3.437  0.00  0.00    +0.380 HD
ENDBRANCH  21  22
ENDBRANCH   3  21
TORSDOF 6
ENDMDL
MODEL     1366
REMARK  Name = ZINC000017060337
REMARK                            x       y       z     vdW  Elec       q    Type
REMARK                         _______ _______ _______ _____ _____    ______ ____
ROOT
ATOM      1  C   LIG    1       -0.018   1.461   0.010  0.00  0.00    +0.360 C 
ATOM      2  N   LIG    1        0.002  -0.004   0.002  0.00  0.00    -0.560 N 
ATOM      3  C   LIG    1        0.005  -0.665  -1.177  0.00  0.00    +0.580 A 
ATOM      4  C   LIG    1        0.025  -2.132  -1.148  0.00  0.00    -0.300 A 
ATOM      5  C   LIG    1        0.040  -2.776   0.093  0.00  0.00    +0.460 A 
ATOM      6  N   LIG    1        0.035  -2.015   1.231  0.00  0.00    -0.540 N 
ATOM      7  C   LIG    1        0.051  -2.674   2.539  0.00  0.00    +0.350 C 
ATOM      8  N   LIG    1        0.058  -4.131   0.151  0.00  0.00    -0.610 N 
ATOM      9  H   LIG    1        0.069  -4.575   1.014  0.00  0.00    +0.420 HD
ATOM     10  C   LIG    1        0.063  -4.867  -0.976  0.00  0.00    +0.540 A 
ATOM     11  C   LIG    1        0.048  -4.252  -2.240  0.00  0.00    -0.100 A 
ATOM     12  O   LIG    1        0.080  -6.084  -0.900  0.00  0.00    -0.520 OA
ATOM     13  C   LIG    1        0.030  -2.893  -2.333  0.00  0.00    +0.220 A 
ATOM     14  O   LIG    1       -0.007  -0.060  -2.233  0.00  0.00    -0.490 OA
ATOM     15  C   LIG    1        0.022  -0.673   1.166  0.00  0.00    +0.710 A 
ATOM     16  O   LIG    1        0.018  -0.039   2.203  0.00  0.00    -0.520 OA
ENDROOT
TORSDOF 0
ENDMDL
MODEL     1367
REMARK  Name = ZINC000017064184
REMARK                            x       y       z     vdW  Elec       q    Type
REMARK                         _______ _______ _______ _____ _____    ______ ____
ROOT
ATOM      1  C   LIG    1       -0.020   1.482  -0.686  0.00  0.00    +0.070 C 
ATOM      2  C   LIG    1        0.090  -0.043  -0.729  0.00  0.00    -0.050 C 
ATOM      3  C   LIG    1        0.855  -0.469  -1.987  0.00  0.00    +0.020 C 
ATOM      4  C   LIG    1        2.266   0.051  -1.907  0.00  0.00    +0.550 C 
ATOM      5  N   LIG    1        2.874   0.236  -0.726  0.00  0.00    -0.660 N 
ATOM      6  H   LIG    1        3.787   0.564  -0.718  0.00  0.00    +0.420 HD
ATOM      7  C   LIG    1        2.270  -0.016   0.445  0.00  0.00    +0.550 C 
ATOM      8  O   LIG    1        2.871   0.182   1.479  0.00  0.00    -0.480 OA
ATOM      9  O   LIG    1        2.864   0.307  -2.930  0.00  0.00    -0.480 OA
ATOM     10  C   LIG    1       -1.311  -0.659  -0.742  0.00  0.00    +0.060 C 
ATOM     11  C   LIG    1        0.859  -0.539   0.500  0.00  0.00    +0.020 C 
ENDROOT
BRANCH   3  12
ATOM     12  C   LIG    1        0.875  -1.973  -2.080  0.00  0.00    +0.510 C 
ATOM     13  O   LIG    1        1.916  -2.576  -1.929  0.00  0.00    -0.490 OA
ATOM     14  N   LIG    1       -0.265  -2.648  -2.330  0.00  0.00    -0.850 N 
ATOM     15  H   LIG    1       -0.267  -3.618  -2.314  0.00  0.00    +0.410 HD
ATOM     16  H   LIG    1       -1.082  -2.164  -2.527  0.00  0.00    +0.400 HD
ENDBRANCH   3  12
BRANCH  11  17
ATOM     17  C   LIG    1        0.880  -2.046   0.508  0.00  0.00    +0.510 C 
ATOM     18  O   LIG    1        1.923  -2.639   0.330  0.00  0.00    -0.490 OA
ATOM     19  N   LIG    1       -0.259  -2.735   0.714  0.00  0.00    -0.850 N 
ATOM     20  H   LIG    1       -0.235  -3.702   0.785  0.00  0.00    +0.410 HD
ATOM     21  H   LIG    1       -1.104  -2.264   0.791  0.00  0.00    +0.400 HD
ENDBRANCH  11  17
TORSDOF 2
ENDMDL
MODEL     1368
REMARK  Name = ZINC000017064650
REMARK                            x       y       z     vdW  Elec       q    Type
REMARK                         _______ _______ _______ _____ _____    ______ ____
ROOT
ATOM      1  C   LIG    1       -0.016  -4.213  -0.021  0.00  0.00    +0.250 C 
ATOM      2  O   LIG    1        0.825  -4.738   1.028  0.00  0.00    -0.330 OA
ATOM      3  C   LIG    1        1.164  -6.085   0.660  0.00  0.00    +0.150 C 
ATOM      4  C   LIG    1        1.096  -6.171  -0.877  0.00  0.00    +0.130 C 
ATOM      5  C   LIG    1        0.634  -4.759  -1.318  0.00  0.00    +0.170 C 
ENDROOT
BRANCH   1   9
ATOM      6  C   LIG    1        0.002  -0.004   0.002  0.00  0.00    +0.640 A 
ATOM      7  N   LIG    1       -1.137  -0.667   0.004  0.00  0.00    -0.600 NA
ATOM      8  C   LIG    1       -1.164  -1.998  -0.003  0.00  0.00    +0.370 A 
ATOM      9  C   LIG    1        0.003  -2.706  -0.013  0.00  0.00    -0.300 A 
ATOM     10  C   LIG    1        1.222  -2.006  -0.015  0.00  0.00    +0.550 A 
ATOM     11  O   LIG    1        2.284  -2.607  -0.024  0.00  0.00    -0.480 OA
ATOM     12  N   LIG    1        1.196  -0.656  -0.013  0.00  0.00    -0.660 N 
ATOM     13  H   LIG    1        2.025  -0.153  -0.014  0.00  0.00    +0.410 HD
BRANCH   6  14
ATOM     14  N   LIG    1       -0.017   1.365   0.009  0.00  0.00    -0.820 N 
ATOM     15  H   LIG    1       -0.863   1.838   0.016  0.00  0.00    +0.430 HD
ATOM     16  H   LIG    1        0.817   1.861   0.004  0.00  0.00    +0.410 HD
ENDBRANCH   6  14
ENDBRANCH   1   9
BRANCH   4  17
ATOM     17  O   LIG    1        0.144  -7.157  -1.281  0.00  0.00    -0.560 OA
ATOM     18  H   LIG    1        0.354  -8.053  -0.982  0.00  0.00    +0.380 HD
ENDBRANCH   4  17
BRANCH   5  19
ATOM     19  O   LIG    1        1.750  -3.955  -1.704  0.00  0.00    -0.510 OA
ATOM     20  H   LIG    1        2.247  -4.306  -2.456  0.00  0.00    +0.370 HD
ENDBRANCH   5  19
BRANCH   3  21
ATOM     21  C   LIG    1        0.164  -7.062   1.284  0.00  0.00    +0.170 C 
BRANCH  21  22
ATOM     22  O   LIG    1        0.307  -7.047   2.705  0.00  0.00    -0.560 OA
ATOM     23  H   LIG    1       -0.297  -7.644   3.168  0.00  0.00    +0.380 HD
ENDBRANCH  21  22
ENDBRANCH   3  21
TORSDOF 6
ENDMDL
MODEL     1369
REMARK  Name = ZINC000017141504
REMARK                            x       y       z     vdW  Elec       q    Type
REMARK                         _______ _______ _______ _____ _____    ______ ____
ROOT
ATOM      1  O   LIG    1        0.002  -0.004   0.002  0.00  0.00    -0.440 OA
ATOM      2  C   LIG    1       -0.014   1.201   0.009  0.00  0.00    +0.580 C 
ATOM      3  N   LIG    1       -1.086   2.065  -0.004  0.00  0.00    -0.730 N 
ATOM      4  H   LIG    1       -1.990   1.779  -0.194  0.00  0.00    +0.410 HD
ATOM      5  C   LIG    1       -0.759   3.365   0.275  0.00  0.00    +0.540 C 
ATOM      6  C   LIG    1        0.616   3.303   0.932  0.00  0.00    +0.060 C 
ATOM      7  C   LIG    1        1.590   4.479   0.532  0.00  0.00    +0.150 C 
ATOM      8  C   LIG    1        2.772   3.725   1.213  0.00  0.00    -0.010 C 
ATOM      9  C   LIG    1        3.968   4.477   1.730  0.00  0.00    +0.550 C 
ATOM     10  N   LIG    1        4.976   3.549   1.628  0.00  0.00    -0.720 N 
ATOM     11  H   LIG    1        5.849   3.661   2.037  0.00  0.00    +0.410 HD
ATOM     12  C   LIG    1        4.622   2.446   0.889  0.00  0.00    +0.550 C 
ATOM     13  O   LIG    1        5.084   1.329   0.890  0.00  0.00    -0.440 OA
ATOM     14  O   LIG    1        4.029   5.619   2.137  0.00  0.00    -0.460 OA
ATOM     15  C   LIG    1        3.526   3.021   0.031  0.00  0.00    +0.020 C 
ATOM     16  C   LIG    1        2.461   2.110  -0.632  0.00  0.00    +0.160 C 
ATOM     17  C   LIG    1        2.140   3.292  -1.655  0.00  0.00    +0.010 C 
ATOM     18  C   LIG    1        1.738   4.353  -0.987  0.00  0.00    -0.070 C 
ATOM     19  O   LIG    1       -1.431   4.348   0.069  0.00  0.00    -0.450 OA
ATOM     20  C   LIG    1        1.111   2.170   0.003  0.00  0.00    -0.110 C 
ENDROOT
TORSDOF 0
ENDMDL
MODEL     1370
REMARK  Name = ZINC000017141506
REMARK                            x       y       z     vdW  Elec       q    Type
REMARK                         _______ _______ _______ _____ _____    ______ ____
ROOT
ATOM      1  O   LIG    1        0.002  -0.004   0.002  0.00  0.00    -0.460 OA
ATOM      2  C   LIG    1       -0.014   1.208   0.009  0.00  0.00    +0.570 C 
ATOM      3  N   LIG    1       -1.113   2.037   0.030  0.00  0.00    -0.720 N 
ATOM      4  H   LIG    1       -2.021   1.728  -0.114  0.00  0.00    +0.420 HD
ATOM      5  C   LIG    1       -0.786   3.348   0.275  0.00  0.00    +0.550 C 
ATOM      6  C   LIG    1        0.588   3.286   0.884  0.00  0.00    +0.010 C 
ATOM      7  C   LIG    1        1.554   4.457   0.720  0.00  0.00    +0.140 C 
ATOM      8  C   LIG    1        2.713   4.087   1.633  0.00  0.00    -0.040 C 
ATOM      9  C   LIG    1        3.058   4.445   2.998  0.00  0.00    +0.570 C 
ATOM     10  N   LIG    1        3.957   3.470   3.371  0.00  0.00    -0.720 N 
ATOM     11  H   LIG    1        4.507   3.524   4.168  0.00  0.00    +0.420 HD
ATOM     12  C   LIG    1        3.991   2.415   2.491  0.00  0.00    +0.550 C 
ATOM     13  O   LIG    1        4.870   1.594   2.342  0.00  0.00    -0.450 OA
ATOM     14  O   LIG    1        2.651   5.380   3.654  0.00  0.00    -0.450 OA
ATOM     15  C   LIG    1        2.690   2.505   1.741  0.00  0.00    +0.000 C 
ATOM     16  C   LIG    1        2.589   1.990   0.302  0.00  0.00    +0.140 C 
ATOM     17  C   LIG    1        3.014   3.079  -0.697  0.00  0.00    -0.020 C 
ATOM     18  C   LIG    1        2.393   4.248  -0.588  0.00  0.00    -0.020 C 
ATOM     19  O   LIG    1       -1.455   4.334   0.051  0.00  0.00    -0.450 OA
ATOM     20  C   LIG    1        1.116   2.110   0.003  0.00  0.00    -0.040 C 
ENDROOT
TORSDOF 0
ENDMDL
MODEL     1371
REMARK  Name = ZINC000017141499
REMARK                            x       y       z     vdW  Elec       q    Type
REMARK                         _______ _______ _______ _____ _____    ______ ____
ROOT
ATOM      1  O   LIG    1        0.002  -0.004   0.002  0.00  0.00    -0.470 OA
ATOM      2  C   LIG    1       -0.014   1.208   0.009  0.00  0.00    +0.530 C 
ATOM      3  N   LIG    1       -1.118   1.965   0.029  0.00  0.00    -0.680 N 
ATOM      4  H   LIG    1       -2.012   1.590   0.060  0.00  0.00    +0.420 HD
ATOM      5  C   LIG    1       -0.887   3.284   0.002  0.00  0.00    +0.520 C 
ATOM      6  C   LIG    1        0.594   3.531  -0.086  0.00  0.00    +0.040 C 
ATOM      7  C   LIG    1        1.127   4.276   1.129  0.00  0.00    +0.040 C 
ATOM      8  C   LIG    1        0.218   5.147   1.929  0.00  0.00    +0.530 C 
ATOM      9  O   LIG    1       -0.638   5.898   1.513  0.00  0.00    -0.430 OA
ATOM     10  N   LIG    1        0.561   4.927   3.233  0.00  0.00    -0.710 N 
ATOM     11  H   LIG    1        0.309   5.516   3.961  0.00  0.00    +0.420 HD
ATOM     12  C   LIG    1        1.300   3.783   3.403  0.00  0.00    +0.570 C 
ATOM     13  O   LIG    1        1.929   3.447   4.383  0.00  0.00    -0.450 OA
ATOM     14  C   LIG    1        1.161   3.067   2.152  0.00  0.00    -0.070 C 
ATOM     15  C   LIG    1        1.895   2.020   1.407  0.00  0.00    +0.140 C 
ATOM     16  O   LIG    1       -1.739   4.146   0.043  0.00  0.00    -0.440 OA
ATOM     17  C   LIG    1        1.208   2.097   0.002  0.00  0.00    +0.030 C 
ENDROOT
TORSDOF 0
ENDMDL
MODEL     1372
REMARK  Name = ZINC000017141501
REMARK                            x       y       z     vdW  Elec       q    Type
REMARK                         _______ _______ _______ _____ _____    ______ ____
ROOT
ATOM      1  O   LIG    1        0.002  -0.004   0.002  0.00  0.00    -0.450 OA
ATOM      2  C   LIG    1       -0.014   1.208   0.009  0.00  0.00    +0.570 C 
ATOM      3  N   LIG    1       -1.113   2.030   0.030  0.00  0.00    -0.710 N 
ATOM      4  H   LIG    1       -2.017   1.721  -0.139  0.00  0.00    +0.420 HD
ATOM      5  C   LIG    1       -0.799   3.328   0.313  0.00  0.00    +0.550 C 
ATOM      6  C   LIG    1        0.585   3.310   0.889  0.00  0.00    +0.030 C 
ATOM      7  C   LIG    1        1.630   4.317   0.438  0.00  0.00    +0.040 C 
ATOM      8  C   LIG    1        2.049   5.423   1.366  0.00  0.00    +0.550 C 
ATOM      9  O   LIG    1        1.335   6.112   2.062  0.00  0.00    -0.440 OA
ATOM     10  N   LIG    1        3.411   5.498   1.233  0.00  0.00    -0.710 N 
ATOM     11  H   LIG    1        3.930   6.287   1.455  0.00  0.00    +0.420 HD
ATOM     12  C   LIG    1        3.961   4.334   0.752  0.00  0.00    +0.570 C 
ATOM     13  O   LIG    1        5.090   4.154   0.351  0.00  0.00    -0.450 OA
ATOM     14  C   LIG    1        2.882   3.373   0.835  0.00  0.00    -0.050 C 
ATOM     15  C   LIG    1        2.575   2.014   0.306  0.00  0.00    +0.160 C 
ATOM     16  O   LIG    1       -1.500   4.301   0.135  0.00  0.00    -0.450 OA
ATOM     17  C   LIG    1        1.118   2.104   0.003  0.00  0.00    -0.050 C 
ENDROOT
TORSDOF 0
ENDMDL
MODEL     1373
REMARK  Name = ZINC000017299794
REMARK                            x       y       z     vdW  Elec       q    Type
REMARK                         _______ _______ _______ _____ _____    ______ ____
ROOT
ATOM      1  C   LIG    1       -0.018   1.461   0.010  0.00  0.00    +0.340 C 
ATOM      2  N   LIG    1        0.002  -0.004   0.002  0.00  0.00    -0.520 N 
ATOM      3  C   LIG    1       -1.185  -0.700   0.004  0.00  0.00    +0.270 A 
ATOM      4  C   LIG    1       -1.156  -2.089  -0.004  0.00  0.00    -0.090 A 
ATOM      5  C   LIG    1        0.147  -2.756  -0.014  0.00  0.00    +0.590 A 
ATOM      6  N   LIG    1        1.262  -1.993  -0.015  0.00  0.00    -0.550 N 
ATOM      7  C   LIG    1        2.578  -2.637  -0.025  0.00  0.00    +0.350 C 
ATOM      8  O   LIG    1        0.225  -3.971  -0.021  0.00  0.00    -0.480 OA
ATOM      9  N   LIG    1       -2.440  -2.521   0.001  0.00  0.00    -0.400 NA
ATOM     10  C   LIG    1       -3.235  -1.491   0.010  0.00  0.00    +0.230 A 
ATOM     11  N   LIG    1       -2.497  -0.344   0.013  0.00  0.00    -0.550 N 
ATOM     12  H   LIG    1       -2.844   0.562   0.020  0.00  0.00    +0.430 HD
ATOM     13  C   LIG    1        1.180  -0.652  -0.013  0.00  0.00    +0.720 A 
ATOM     14  O   LIG    1        2.208  -0.002  -0.014  0.00  0.00    -0.530 OA
ENDROOT
BRANCH  10  15
ATOM     15  C   LIG    1       -4.741  -1.556   0.018  0.00  0.00    +0.160 C 
BRANCH  15  16
ATOM     16  C   LIG    1       -5.221  -2.397  -1.167  0.00  0.00    +0.040 C 
BRANCH  16  17
ATOM     17  C   LIG    1       -6.750  -2.462  -1.159  0.00  0.00    +0.180 C 
BRANCH  17  18
ATOM     18  O   LIG    1       -7.198  -3.248  -2.265  0.00  0.00    -0.570 OA
ATOM     19  H   LIG    1       -8.160  -3.333  -2.323  0.00  0.00    +0.380 HD
ENDBRANCH  17  18
ENDBRANCH  16  17
ENDBRANCH  15  16
ENDBRANCH  10  15
TORSDOF 4
ENDMDL
MODEL     1374
REMARK  Name = ZINC000001681181
REMARK                            x       y       z     vdW  Elec       q    Type
REMARK                         _______ _______ _______ _____ _____    ______ ____
ROOT
ATOM      1  C   UNK A  1        0.020  -2.136  -1.177  0.00  0.00    +0.250 C 
ENDROOT
BRANCH   1   4
ATOM      2  C   UNK A  0       -0.018   1.503   0.010  0.00  0.00    +0.090 C 
ATOM      3  C   UNK A  0        0.002  -0.004   0.002  0.00  0.00    +0.520 C 
ATOM      4  N   UNK A  1        0.000  -0.672  -1.169  0.00  0.00    -0.720 N 
ATOM      5  H   UNK A  1       -0.015  -0.182  -2.006  0.00  0.00    +0.410 HD
ATOM      6  O   UNK A  0        0.020  -0.616   1.049  0.00  0.00    -0.490 OA
ENDBRANCH   1   4
BRANCH   1   7
ATOM      7  C   UNK A  1       -1.197  -2.659  -0.458  0.00  0.00    +0.510 C 
ATOM      8  N   GLY A  2       -1.615  -3.923  -0.671  0.00  0.00    -0.720 N 
ATOM      9  H   GLY A  2       -1.133  -4.495  -1.288  0.00  0.00    +0.400 HD
ATOM     10  O   UNK A  1       -1.800  -1.943   0.314  0.00  0.00    -0.490 OA
BRANCH   8  11
ATOM     11  CA  GLY A  2       -2.798  -4.431   0.028  0.00  0.00    +0.280 C 
BRANCH  11  12
ATOM     12  C   GLY A  2       -3.054  -5.880  -0.390  0.00  0.00    +0.180 C 
BRANCH  12  13
ATOM     13  O   GLY A  2       -1.971  -6.702   0.052  0.00  0.00    -0.570 OA
ATOM     14  H   GLY A  2       -2.067  -7.636  -0.179  0.00  0.00    +0.380 HD
ENDBRANCH  12  13
ENDBRANCH  11  12
ENDBRANCH   8  11
ENDBRANCH   1   7
BRANCH   1  15
ATOM     15  C   UNK A  1        1.264  -2.626  -0.481  0.00  0.00    +0.510 C 
ATOM     16  N   UNK A  1        1.712  -3.877  -0.703  0.00  0.00    -0.720 N 
ATOM     17  H   UNK A  1        1.234  -4.463  -1.310  0.00  0.00    +0.400 HD
ATOM     18  O   UNK A  1        1.862  -1.893   0.279  0.00  0.00    -0.490 OA
BRANCH  16  19
ATOM     19  C   UNK A  1        2.921  -4.353  -0.026  0.00  0.00    +0.280 C 
BRANCH  19  20
ATOM     20  C   UNK A  1        3.209  -5.795  -0.450  0.00  0.00    +0.190 C 
BRANCH  20  21
ATOM     21  O   UNK A  1        3.518  -5.829  -1.844  0.00  0.00    -0.570 OA
ATOM     22  H   UNK A  1        3.711  -6.714  -2.183  0.00  0.00    +0.380 HD
ENDBRANCH  20  21
ENDBRANCH  19  20
ENDBRANCH  16  19
ENDBRANCH   1  15
TORSDOF 9
ENDMDL
MODEL     1375
REMARK  Name = ZINC000001683687
REMARK                            x       y       z     vdW  Elec       q    Type
REMARK                         _______ _______ _______ _____ _____    ______ ____
ROOT
ATOM      1  C   LIG    1        0.657  -2.104  -1.120  0.00  0.00    +0.270 C 
ATOM      2  O   LIG    1        1.236  -2.497  -2.368  0.00  0.00    -0.350 OA
ATOM      3  C   LIG    1        2.581  -2.043  -2.546  0.00  0.00    +0.420 C 
ATOM      4  O   LIG    1        3.400  -2.559  -1.494  0.00  0.00    -0.370 OA
ATOM      5  C   LIG    1        2.970  -2.177  -0.184  0.00  0.00    +0.110 C 
ATOM      6  C   LIG    1        3.875  -2.839   0.859  0.00  0.00    +0.190 C 
ATOM      7  O   LIG    1        3.701  -4.258   0.794  0.00  0.00    -0.370 OA
ATOM      8  C   LIG    1        2.352  -4.682   1.008  0.00  0.00    +0.410 C 
ATOM      9  O   LIG    1        1.505  -4.085   0.024  0.00  0.00    -0.370 OA
ATOM     10  C   LIG    1        1.521  -2.642   0.025  0.00  0.00    +0.140 C 
ENDROOT
BRANCH   1  11
ATOM     11  C   LIG    1        0.598  -0.600  -1.043  0.00  0.00    +0.440 C 
ATOM     12  O   LIG    1        1.088   0.070  -1.921  0.00  0.00    -0.490 OA
BRANCH  11  14
ATOM     13  C   LIG    1       -0.018   1.448   0.010  0.00  0.00    +0.280 C 
ATOM     14  O   LIG    1        0.002  -0.004   0.002  0.00  0.00    -0.350 OA
ENDBRANCH  11  14
ENDBRANCH   1  11
BRANCH   6  15
ATOM     15  C   LIG    1        5.335  -2.486   0.568  0.00  0.00    +0.220 C 
BRANCH  15  16
ATOM     16  O   LIG    1        6.167  -3.007   1.607  0.00  0.00    -0.570 OA
ATOM     17  H   LIG    1        7.108  -2.821   1.487  0.00  0.00    +0.380 HD
ENDBRANCH  15  16
ENDBRANCH   6  15
TORSDOF 4
ENDMDL
MODEL     1376
REMARK  Name = ZINC000017328756
REMARK                            x       y       z     vdW  Elec       q    Type
REMARK                         _______ _______ _______ _____ _____    ______ ____
ROOT
ATOM      1  C   LIG    1        0.657  -2.104  -1.120  0.00  0.00    +0.140 C 
ATOM      2  C   LIG    1       -0.635  -2.634  -1.743  0.00  0.00    +0.100 C 
ENDROOT
BRANCH   1   3
ATOM      3  C   LIG    1        0.598  -0.600  -1.043  0.00  0.00    +0.430 C 
ATOM      4  O   LIG    1        1.088   0.070  -1.921  0.00  0.00    -0.470 OA
BRANCH   3   6
ATOM      5  C   LIG    1       -0.018   1.448   0.010  0.00  0.00    +0.280 C 
ATOM      6  O   LIG    1        0.002  -0.004   0.002  0.00  0.00    -0.350 OA
ENDBRANCH   3   6
ENDBRANCH   1   3
BRANCH   1   7
ATOM      7  C   LIG    1        1.849  -2.524  -1.982  0.00  0.00    +0.140 C 
ATOM      8  C   LIG    1        3.142  -1.994  -1.359  0.00  0.00    +0.100 C 
BRANCH   7   9
ATOM      9  C   LIG    1        1.909  -4.027  -2.059  0.00  0.00    +0.430 C 
ATOM     10  O   LIG    1        1.419  -4.697  -1.181  0.00  0.00    -0.470 OA
BRANCH   9  11
ATOM     11  O   LIG    1        2.505  -4.623  -3.104  0.00  0.00    -0.350 OA
ATOM     12  C   LIG    1        2.525  -6.075  -3.112  0.00  0.00    +0.280 C 
ENDBRANCH   9  11
ENDBRANCH   7   9
BRANCH   7  13
ATOM     13  O   LIG    1        1.699  -1.985  -3.297  0.00  0.00    -0.510 OA
ATOM     14  H   LIG    1        0.899  -2.279  -3.754  0.00  0.00    +0.380 HD
ENDBRANCH   7  13
ENDBRANCH   1   7
BRANCH   1  15
ATOM     15  O   LIG    1        0.808  -2.642   0.195  0.00  0.00    -0.510 OA
ATOM     16  H   LIG    1        1.608  -2.348   0.652  0.00  0.00    +0.380 HD
ENDBRANCH   1  15
TORSDOF 7
ENDMDL
MODEL     1377
REMARK  Name = ZINC000000134315
REMARK                            x       y       z     vdW  Elec       q    Type
REMARK                         _______ _______ _______ _____ _____    ______ ____
ROOT
ATOM      1  C   LIG    1       -0.019   1.526   0.010  0.00  0.00    +0.030 C 
ATOM      2  C   LIG    1        0.002  -0.004   0.002  0.00  0.00    +0.250 C 
ATOM      3  O   LIG    1        0.784  -0.495  -1.111  0.00  0.00    -0.380 OA
ATOM      4  C   LIG    1        2.153  -0.305  -0.694  0.00  0.00    +0.350 C 
ATOM      5  O   LIG    1        2.933  -1.434  -1.116  0.00  0.00    -0.340 OA
ATOM      6  C   LIG    1        2.800  -2.445  -0.095  0.00  0.00    +0.100 C 
ATOM      7  C   LIG    1        2.865  -1.636   1.225  0.00  0.00    +0.180 C 
ATOM      8  C   LIG    1        2.095  -0.322   0.856  0.00  0.00    +0.160 C 
ATOM      9  C   LIG    1       -1.423  -0.558  -0.054  0.00  0.00    +0.090 C 
ATOM     10  O   LIG    1        0.697  -0.508   1.165  0.00  0.00    -0.360 OA
ENDROOT
BRANCH   7  11
ATOM     11  O   LIG    1        4.219  -1.346   1.577  0.00  0.00    -0.550 OA
ATOM     12  H   LIG    1        4.761  -2.131   1.733  0.00  0.00    +0.390 HD
ENDBRANCH   7  11
BRANCH   6  13
ATOM     13  C   LIG    1        3.954  -3.447  -0.174  0.00  0.00    +0.230 C 
BRANCH  13  14
ATOM     14  O   LIG    1        3.816  -4.416   0.867  0.00  0.00    -0.540 OA
ATOM     15  H   LIG    1        2.994  -4.923   0.826  0.00  0.00    +0.380 HD
ENDBRANCH  13  14
BRANCH  13  16
ATOM     16  C   LIG    1        3.926  -4.150  -1.533  0.00  0.00    +0.170 C 
BRANCH  16  17
ATOM     17  O   LIG    1        5.069  -4.999  -1.653  0.00  0.00    -0.560 OA
ATOM     18  H   LIG    1        5.117  -5.479  -2.491  0.00  0.00    +0.380 HD
ENDBRANCH  16  17
ENDBRANCH  13  16
ENDBRANCH   6  13
TORSDOF 5
ENDMDL
MODEL     1378
REMARK  Name = ZINC000017429362
REMARK                            x       y       z     vdW  Elec       q    Type
REMARK                         _______ _______ _______ _____ _____    ______ ____
ROOT
ATOM      1  C   LIG    1        0.002  -0.004   0.002  0.00  0.00    +0.670 A 
ATOM      2  N   LIG    1       -1.141  -0.644   0.004  0.00  0.00    -0.580 NA
ATOM      3  C   LIG    1       -1.201  -1.988  -0.003  0.00  0.00    +0.360 A 
ATOM      4  N   LIG    1       -2.367  -2.634  -0.002  0.00  0.00    -0.440 NA
ATOM      5  C   LIG    1       -2.383  -3.952  -0.010  0.00  0.00    +0.330 A 
ATOM      6  C   LIG    1       -1.196  -4.677  -0.019  0.00  0.00    +0.040 A 
ATOM      7  N   LIG    1       -0.033  -4.056  -0.021  0.00  0.00    -0.350 NA
ATOM      8  C   LIG    1        0.003  -2.731  -0.014  0.00  0.00    -0.060 A 
ATOM      9  C   LIG    1        1.275  -1.989  -0.016  0.00  0.00    +0.580 A 
ATOM     10  O   LIG    1        2.345  -2.569  -0.026  0.00  0.00    -0.470 OA
ATOM     11  N   LIG    1        1.210  -0.637  -0.013  0.00  0.00    -0.660 N 
ATOM     12  H   LIG    1        2.027  -0.115  -0.015  0.00  0.00    +0.420 HD
ENDROOT
BRANCH   1  13
ATOM     13  N   LIG    1       -0.017   1.366   0.010  0.00  0.00    -0.810 N 
ATOM     14  H   LIG    1       -0.863   1.840   0.016  0.00  0.00    +0.430 HD
ATOM     15  H   LIG    1        0.817   1.863   0.004  0.00  0.00    +0.420 HD
ENDBRANCH   1  13
BRANCH   6  16
ATOM     16  C   LIG    1       -1.240  -6.183  -0.028  0.00  0.00    +0.140 C 
BRANCH  16  17
ATOM     17  C   LIG    1       -0.433  -6.710  -1.216  0.00  0.00    +0.180 C 
BRANCH  17  18
ATOM     18  O   LIG    1       -0.474  -8.139  -1.224  0.00  0.00    -0.570 OA
ATOM     19  H   LIG    1        0.018  -8.542  -1.952  0.00  0.00    +0.380 HD
ENDBRANCH  17  18
ENDBRANCH  16  17
ENDBRANCH   6  16
TORSDOF 4
ENDMDL
MODEL     1379
REMARK  Name = ZINC000003882034
REMARK                            x       y       z     vdW  Elec       q    Type
REMARK                         _______ _______ _______ _____ _____    ______ ____
ROOT
ATOM      1  N   LIG    1       -0.016   1.315   0.009  0.00  0.00    -0.700 NA
ATOM      2  H   LIG    1        0.818   1.812   0.004  0.00  0.00    +0.340 HD
ATOM      3  C   LIG    1        0.002  -0.004   0.002  0.00  0.00    +0.390 A 
ATOM      4  C   LIG    1       -1.254  -0.767   0.004  0.00  0.00    -0.020 A 
ATOM      5  C   LIG    1       -1.173  -2.111   0.006  0.00  0.00    +0.310 A 
ATOM      6  N   LIG    1        0.055  -2.715   0.007  0.00  0.00    -0.550 N 
ATOM      7  C   LIG    1        1.208  -1.992  -0.009  0.00  0.00    +0.570 A 
ATOM      8  O   LIG    1        2.301  -2.795  -0.028  0.00  0.00    -0.260 OA
ATOM      9  C   LIG    1        1.910  -4.093   0.447  0.00  0.00    +0.200 C 
ATOM     10  C   LIG    1        2.587  -5.184  -0.403  0.00  0.00    +0.200 C 
ATOM     11  C   LIG    1        1.573  -5.509  -1.512  0.00  0.00    +0.160 C 
ATOM     12  O   LIG    1        0.443  -4.651  -1.341  0.00  0.00    -0.350 OA
ATOM     13  C   LIG    1        0.414  -4.149   0.026  0.00  0.00    +0.420 C 
ATOM     14  N   LIG    1        1.172  -0.672  -0.013  0.00  0.00    -0.570 NA
ENDROOT
BRANCH  10  15
ATOM     15  O   LIG    1        2.845  -6.344   0.392  0.00  0.00    -0.540 OA
ATOM     16  H   LIG    1        3.271  -7.065  -0.091  0.00  0.00    +0.400 HD
ENDBRANCH  10  15
BRANCH  11  17
ATOM     17  C   LIG    1        2.209  -5.260  -2.882  0.00  0.00    +0.200 C 
BRANCH  17  18
ATOM     18  O   LIG    1        1.304  -5.673  -3.909  0.00  0.00    -0.560 OA
ATOM     19  H   LIG    1        1.642  -5.544  -4.805  0.00  0.00    +0.390 HD
ENDBRANCH  17  18
ENDBRANCH  11  17
TORSDOF 3
ENDMDL
MODEL     1380
REMARK  Name = ZINC000001713494
REMARK                            x       y       z     vdW  Elec       q    Type
REMARK                         _______ _______ _______ _____ _____    ______ ____
ROOT
ATOM      1  C   LIG    1        0.002  -0.004   0.002  0.00  0.00    +0.550 A 
ATOM      2  N   LIG    1       -1.135  -0.701   0.004  0.00  0.00    -0.600 NA
ATOM      3  C   LIG    1       -1.114  -2.019  -0.003  0.00  0.00    +0.630 A 
ATOM      4  N   LIG    1        0.009  -2.705  -0.002  0.00  0.00    -0.610 NA
ATOM      5  C   LIG    1        1.193  -2.084   0.001  0.00  0.00    +0.540 A 
ATOM      6  N   LIG    1        2.354  -2.829   0.026  0.00  0.00    -0.730 N 
ATOM      7  H   LIG    1        2.308  -3.739   0.358  0.00  0.00    +0.420 HD
ATOM      8  C   LIG    1        3.649  -2.316  -0.411  0.00  0.00    +0.570 C 
ATOM      9  N   LIG    1        3.892  -1.009   0.233  0.00  0.00    -1.120 NA
ATOM     10  H   LIG    1        4.670  -0.845   0.788  0.00  0.00    +0.430 HD
ATOM     11  S   LIG    1        2.742   0.167  -0.054  0.00  0.00    +2.700 S 
ATOM     12  O   LIG    1        2.755   1.038   1.069  0.00  0.00    -0.950 OA
ATOM     13  O   LIG    1        2.931   0.608  -1.391  0.00  0.00    -0.950 OA
ATOM     14  C   LIG    1        1.203  -0.696  -0.013  0.00  0.00    -0.890 A 
ENDROOT
BRANCH   1  15
ATOM     15  N   LIG    1       -0.017   1.382   0.010  0.00  0.00    -0.820 N 
ATOM     16  H   LIG    1       -0.863   1.856   0.016  0.00  0.00    +0.420 HD
ATOM     17  H   LIG    1        0.817   1.878   0.004  0.00  0.00    +0.410 HD
ENDBRANCH   1  15
TORSDOF 1
ENDMDL
MODEL     1381
REMARK  Name = ZINC000017920779
REMARK                            x       y       z     vdW  Elec       q    Type
REMARK                         _______ _______ _______ _____ _____    ______ ____
ROOT
ATOM      1  C   LIG    1       -2.395   1.050   0.019  0.00  0.00    +0.140 C 
ATOM      2  C   LIG    1       -2.808   0.698  -1.427  0.00  0.00    +0.250 C 
ATOM      3  O   LIG    1       -4.250   0.661  -1.399  0.00  0.00    -0.340 OA
ATOM      4  C   LIG    1       -4.652   1.770  -0.569  0.00  0.00    +0.190 C 
ATOM      5  C   LIG    1       -5.976   1.387   0.143  0.00  0.00    +0.160 C 
ATOM      6  C   LIG    1       -5.440   0.473   1.288  0.00  0.00    +0.240 C 
ATOM      7  O   LIG    1       -4.182   1.042   1.681  0.00  0.00    -0.340 OA
ATOM      8  C   LIG    1       -3.620   1.788   0.598  0.00  0.00    +0.210 C 
ENDROOT
BRANCH   1   9
ATOM      9  O   LIG    1       -1.250   1.905   0.018  0.00  0.00    -0.210 OA
BRANCH   9  11
ATOM     10  O   LIG    1        0.002  -0.004   0.002  0.00  0.00    -0.120 OA
ATOM     11  N   LIG    1       -0.014   1.214   0.009  0.00  0.00    +0.120 N 
ATOM     12  O   LIG    1        1.032   1.837   0.002  0.00  0.00    -0.060 OA
ENDBRANCH   9  11
ENDBRANCH   1   9
BRANCH   5  13
ATOM     13  O   LIG    1       -6.864   0.669  -0.715  0.00  0.00    -0.190 OA
BRANCH  13  14
ATOM     14  N   LIG    1       -8.210   0.658  -0.274  0.00  0.00    +0.120 N 
ATOM     15  O   LIG    1       -9.060   0.077  -0.923  0.00  0.00    -0.060 OA
ATOM     16  O   LIG    1       -8.517   1.231   0.756  0.00  0.00    -0.130 OA
ENDBRANCH  13  14
ENDBRANCH   5  13
TORSDOF 4
ENDMDL
MODEL     1382
REMARK  Name = ZINC000005438581
REMARK                            x       y       z     vdW  Elec       q    Type
REMARK                         _______ _______ _______ _____ _____    ______ ____
ROOT
ATOM      1  C   LIG    1        0.020  -2.136  -1.177  0.00  0.00    +0.210 C 
ATOM      2  C   LIG    1       -1.392  -2.666  -1.055  0.00  0.00    +0.470 C 
ATOM      3  O   LIG    1       -1.598  -3.982  -1.268  0.00  0.00    -0.350 OA
ATOM      4  C   LIG    1       -1.037  -4.516  -2.501  0.00  0.00    +0.170 C 
ATOM      5  C   LIG    1        0.450  -4.159  -2.573  0.00  0.00    +0.180 C 
ATOM      6  O   LIG    1       -2.309  -1.931  -0.775  0.00  0.00    -0.420 OA
ATOM      7  C   LIG    1        0.613  -2.638  -2.499  0.00  0.00    +0.190 C 
ENDROOT
BRANCH   1  10
ATOM      8  C   LIG    1       -0.018   1.503   0.010  0.00  0.00    +0.110 C 
ATOM      9  C   LIG    1        0.002  -0.004   0.002  0.00  0.00    +0.520 C 
ATOM     10  N   LIG    1        0.000  -0.672  -1.169  0.00  0.00    -0.720 N 
ATOM     11  H   LIG    1       -0.015  -0.182  -2.006  0.00  0.00    +0.410 HD
ATOM     12  O   LIG    1        0.020  -0.616   1.049  0.00  0.00    -0.530 OA
ENDBRANCH   1  10
BRANCH   5  13
ATOM     13  O   LIG    1        0.997  -4.639  -3.803  0.00  0.00    -0.540 OA
ATOM     14  H   LIG    1        0.927  -5.596  -3.917  0.00  0.00    +0.390 HD
ENDBRANCH   5  13
BRANCH   7  15
ATOM     15  O   LIG    1        2.000  -2.301  -2.563  0.00  0.00    -0.530 OA
ATOM     16  H   LIG    1        2.177  -1.351  -2.522  0.00  0.00    +0.390 HD
ENDBRANCH   7  15
BRANCH   4  17
ATOM     17  C   LIG    1       -1.201  -6.037  -2.521  0.00  0.00    +0.230 C 
BRANCH  17  18
ATOM     18  O   LIG    1       -2.591  -6.365  -2.565  0.00  0.00    -0.560 OA
ATOM     19  H   LIG    1       -2.770  -7.316  -2.580  0.00  0.00    +0.390 HD
ENDBRANCH  17  18
ENDBRANCH   4  17
TORSDOF 5
ENDMDL
MODEL     1383
REMARK  Name = ZINC000001730174
REMARK                            x       y       z     vdW  Elec       q    Type
REMARK                         _______ _______ _______ _____ _____    ______ ____
ROOT
ATOM      1  C   LIG    1       -0.720   3.008   1.225  0.00  0.00    +0.170 C 
ATOM      2  O   LIG    1       -1.514   3.482   0.133  0.00  0.00    -0.400 OA
ATOM      3  C   LIG    1       -1.632   4.907   0.084  0.00  0.00    +0.410 C 
ATOM      4  O   LIG    1       -2.222   5.376   1.299  0.00  0.00    -0.370 OA
ATOM      5  C   LIG    1       -1.482   5.030   2.473  0.00  0.00    +0.140 C 
ATOM      6  C   LIG    1       -2.239   5.522   3.711  0.00  0.00    +0.140 C 
ATOM      7  O   LIG    1       -3.478   4.815   3.812  0.00  0.00    -0.370 OA
ATOM      8  C   LIG    1       -3.325   3.396   3.892  0.00  0.00    +0.420 C 
ATOM      9  O   LIG    1       -2.639   2.926   2.729  0.00  0.00    -0.400 OA
ATOM     10  C   LIG    1       -1.329   3.505   2.540  0.00  0.00    +0.140 C 
ENDROOT
BRANCH   6  11
ATOM     11  C   LIG    1       -1.409   5.268   4.943  0.00  0.00    +0.480 C 
ATOM     12  O   LIG    1       -1.799   4.482   5.789  0.00  0.00    -0.670 OA
ATOM     13  O   LIG    1       -0.347   5.848   5.093  0.00  0.00    -0.680 OA
ENDBRANCH   6  11
BRANCH   1  14
ATOM     14  C   LIG    1       -0.699   1.479   1.216  0.00  0.00    +0.310 C 
BRANCH  14  15
ATOM     15  N   LIG    1       -0.012   1.005   0.008  0.00  0.00    -0.630 N 
ATOM     16  H   LIG    1       -0.500   1.339  -0.810  0.00  0.00    +0.440 HD
ATOM     17  H   LIG    1        0.935   1.354   0.000  0.00  0.00    +0.430 HD
ATOM     18  H   LIG    1        0.002  -0.004   0.002  0.00  0.00    +0.440 HD
ENDBRANCH  14  15
ENDBRANCH   1  14
TORSDOF 3
ENDMDL
MODEL     1384
REMARK  Name = ZINC000001723460
REMARK                            x       y       z     vdW  Elec       q    Type
REMARK                         _______ _______ _______ _____ _____    ______ ____
ROOT
ATOM      1  C   LIG    1        0.657  -2.104  -1.120  0.00  0.00    -0.190 C 
ATOM      2  C   LIG    1        1.691  -2.629  -0.158  0.00  0.00    +0.370 C 
ATOM      3  O   LIG    1        2.949  -2.179  -0.804  0.00  0.00    -0.340 OA
ATOM      4  C   LIG    1        2.749  -2.017  -2.149  0.00  0.00    +0.520 C 
ATOM      5  O   LIG    1        3.523  -1.530  -2.939  0.00  0.00    -0.410 OA
ATOM      6  C   LIG    1       -0.678  -2.646  -1.411  0.00  0.00    +0.520 C 
ATOM      7  O   LIG    1       -1.445  -3.143  -0.622  0.00  0.00    -0.400 OA
ATOM      8  O   LIG    1       -0.882  -2.478  -2.749  0.00  0.00    -0.330 OA
ATOM      9  C   LIG    1        0.371  -2.015  -3.395  0.00  0.00    +0.340 C 
ATOM     10  C   LIG    1        1.411  -2.549  -2.445  0.00  0.00    -0.030 C 
ENDROOT
BRANCH   1  11
ATOM     11  C   LIG    1        0.598  -0.600  -1.043  0.00  0.00    +0.480 C 
ATOM     12  O   LIG    1        1.088   0.070  -1.921  0.00  0.00    -0.470 OA
BRANCH  11  14
ATOM     13  C   LIG    1       -0.018   1.448   0.010  0.00  0.00    +0.280 C 
ATOM     14  O   LIG    1        0.002  -0.004   0.002  0.00  0.00    -0.340 OA
ENDBRANCH  11  14
ENDBRANCH   1  11
TORSDOF 2
ENDMDL
MODEL     1385
REMARK  Name = ZINC000018167039
REMARK                            x       y       z     vdW  Elec       q    Type
REMARK                         _______ _______ _______ _____ _____    ______ ____
ROOT
ATOM      1  C   LIG    1       -0.018   1.461   0.010  0.00  0.00    +0.360 C 
ATOM      2  N   LIG    1        0.002  -0.004   0.002  0.00  0.00    -0.550 N 
ATOM      3  C   LIG    1       -1.160  -0.691   0.004  0.00  0.00    +0.610 A 
ATOM      4  C   LIG    1       -1.124  -2.090  -0.001  0.00  0.00    -0.890 A 
ATOM      5  C   LIG    1        0.076  -2.743  -0.005  0.00  0.00    +0.540 A 
ATOM      6  N   LIG    1        1.233  -2.002  -0.011  0.00  0.00    -0.530 N 
ATOM      7  C   LIG    1        2.533  -2.678  -0.023  0.00  0.00    +0.360 C 
ATOM      8  N   LIG    1        0.121  -4.111  -0.002  0.00  0.00    -0.670 N 
ATOM      9  H   LIG    1        0.951  -4.530   0.274  0.00  0.00    +0.440 HD
ATOM     10  C   LIG    1       -0.907  -4.925  -0.356  0.00  0.00    +0.730 C 
ATOM     11  N   LIG    1       -2.145  -4.588  -0.398  0.00  0.00    -0.900 NA
ATOM     12  S   LIG    1       -2.607  -3.043  -0.005  0.00  0.00    +2.650 S 
ATOM     13  O   LIG    1       -3.394  -2.566  -1.088  0.00  0.00    -0.920 OA
ATOM     14  O   LIG    1       -3.068  -3.084   1.338  0.00  0.00    -0.930 OA
ATOM     15  O   LIG    1       -2.227  -0.101   0.009  0.00  0.00    -0.490 OA
ATOM     16  C   LIG    1        1.178  -0.657  -0.013  0.00  0.00    +0.710 A 
ATOM     17  O   LIG    1        2.213  -0.019  -0.017  0.00  0.00    -0.510 OA
ENDROOT
TORSDOF 0
ENDMDL
MODEL     1386
REMARK  Name = ZINC000018193199
REMARK                            x       y       z     vdW  Elec       q    Type
REMARK                         _______ _______ _______ _____ _____    ______ ____
ROOT
ATOM      1  O   LIG    1        0.002  -0.004   0.002  0.00  0.00    -0.460 OA
ATOM      2  C   LIG    1       -0.014   1.208   0.009  0.00  0.00    +0.580 C 
ATOM      3  N   LIG    1       -1.110   2.041   0.030  0.00  0.00    -0.720 N 
ATOM      4  H   LIG    1       -2.021   1.730  -0.091  0.00  0.00    +0.420 HD
ATOM      5  C   LIG    1       -0.781   3.357   0.238  0.00  0.00    +0.550 C 
ATOM      6  C   LIG    1        0.610   3.328   0.818  0.00  0.00    +0.020 C 
ATOM      7  C   LIG    1        1.575   4.468   0.518  0.00  0.00    +0.110 C 
ATOM      8  C   LIG    1        2.751   4.143   1.485  0.00  0.00    +0.010 C 
ATOM      9  C   LIG    1        3.991   4.889   1.062  0.00  0.00    +0.540 C 
ATOM     10  N   LIG    1        5.015   4.016   1.032  0.00  0.00    -0.680 N 
ATOM     11  H   LIG    1        5.933   4.285   0.873  0.00  0.00    +0.420 HD
ATOM     12  C   LIG    1        4.655   2.737   1.241  0.00  0.00    +0.540 C 
ATOM     13  O   LIG    1        5.412   1.798   1.358  0.00  0.00    -0.470 OA
ATOM     14  O   LIG    1        4.055   6.070   0.796  0.00  0.00    -0.470 OA
ATOM     15  C   LIG    1        3.151   2.653   1.294  0.00  0.00    +0.020 C 
ATOM     16  C   LIG    1        2.596   2.047  -0.013  0.00  0.00    +0.140 C 
ATOM     17  C   LIG    1        2.854   3.122  -1.104  0.00  0.00    -0.020 C 
ATOM     18  C   LIG    1        2.263   4.278  -0.847  0.00  0.00    -0.040 C 
ATOM     19  O   LIG    1       -1.462   4.332   0.006  0.00  0.00    -0.450 OA
ATOM     20  C   LIG    1        1.113   2.115   0.003  0.00  0.00    -0.070 C 
ENDROOT
TORSDOF 0
ENDMDL
MODEL     1387
REMARK  Name = ZINC000013284965
REMARK                            x       y       z     vdW  Elec       q    Type
REMARK                         _______ _______ _______ _____ _____    ______ ____
ROOT
ATOM      1  C   LIG    1       -0.018   1.461   0.010  0.00  0.00    +0.360 C 
ATOM      2  N   LIG    1        0.002  -0.004   0.002  0.00  0.00    -0.400 N 
ATOM      3  C   LIG    1        0.009  -0.800  -1.085  0.00  0.00    +0.280 A 
ATOM      4  N   LIG    1        0.028  -2.054  -0.714  0.00  0.00    -0.480 NA
ATOM      5  C   LIG    1        0.034  -2.132   0.619  0.00  0.00    +0.320 A 
ATOM      6  N   LIG    1        0.053  -3.184   1.520  0.00  0.00    -0.510 N 
ATOM      7  C   LIG    1        0.063  -4.565   1.032  0.00  0.00    +0.340 C 
ATOM      8  C   LIG    1        0.052  -2.939   2.844  0.00  0.00    +0.710 A 
ATOM      9  O   LIG    1        0.064  -3.876   3.620  0.00  0.00    -0.530 OA
ATOM     10  N   LIG    1        0.042  -1.686   3.330  0.00  0.00    -0.650 N 
ATOM     11  H   LIG    1        0.045  -1.546   4.290  0.00  0.00    +0.440 HD
ATOM     12  C   LIG    1        0.028  -0.620   2.503  0.00  0.00    +0.600 A 
ATOM     13  O   LIG    1        0.019   0.510   2.955  0.00  0.00    -0.510 OA
ATOM     14  C   LIG    1        0.024  -0.831   1.107  0.00  0.00    -0.150 A 
ENDROOT
BRANCH   3  15
ATOM     15  C   LIG    1       -0.004  -0.317  -2.513  0.00  0.00    +0.330 C 
BRANCH  15  16
ATOM     16  O   LIG    1        1.340  -0.147  -2.970  0.00  0.00    -0.560 OA
ATOM     17  H   LIG    1        1.409   0.163  -3.883  0.00  0.00    +0.400 HD
ENDBRANCH  15  16
ENDBRANCH   3  15
TORSDOF 2
ENDMDL
MODEL     1388
REMARK  Name = ZINC000001759617
REMARK                            x       y       z     vdW  Elec       q    Type
REMARK                         _______ _______ _______ _____ _____    ______ ____
ROOT
ATOM      1  C   LIG    1       -0.018   1.465   0.010  0.00  0.00    +0.210 C 
ATOM      2  N   LIG    1        0.002  -0.004   0.002  0.00  0.00    -0.550 NA
ATOM      3  C   LIG    1        0.707  -0.514  -1.179  0.00  0.00    +0.280 C 
ATOM      4  C   LIG    1        0.832  -2.014  -1.123  0.00  0.00    -0.870 C 
ATOM      5  C   LIG    1        0.742  -2.682   0.021  0.00  0.00    +0.550 C 
ATOM      6  N   LIG    1        0.481  -1.991   1.209  0.00  0.00    -0.630 N 
ATOM      7  C   LIG    1        0.070  -2.714   2.415  0.00  0.00    +0.290 C 
ATOM      8  N   LIG    1        0.890  -4.058   0.107  0.00  0.00    -0.770 N 
ATOM      9  H   LIG    1        1.147  -4.436   0.963  0.00  0.00    +0.410 HD
ATOM     10  C   LIG    1        0.684  -4.970  -1.014  0.00  0.00    +0.560 C 
ATOM     11  N   LIG    1        1.451  -4.456  -2.169  0.00  0.00    -1.130 NA
ATOM     12  H   LIG    1        2.121  -4.989  -2.624  0.00  0.00    +0.430 HD
ATOM     13  S   LIG    1        1.086  -2.898  -2.636  0.00  0.00    +2.700 S 
ATOM     14  O   LIG    1        2.260  -2.363  -3.230  0.00  0.00    -0.970 OA
ATOM     15  O   LIG    1       -0.172  -2.952  -3.295  0.00  0.00    -0.960 OA
ATOM     16  C   LIG    1        0.625  -0.531   1.230  0.00  0.00    +0.440 C 
ENDROOT
TORSDOF 0
ENDMDL
MODEL     1389
REMARK  Name = ZINC000018270629
REMARK                            x       y       z     vdW  Elec       q    Type
REMARK                         _______ _______ _______ _____ _____    ______ ____
ROOT
ATOM      1  N   LIG    1       -1.248   1.926  -0.074  0.00  0.00    -0.450 N 
ATOM      2  C   LIG    1       -1.341   3.317   0.021  0.00  0.00    +0.310 A 
ATOM      3  N   LIG    1       -0.460   4.210   0.314  0.00  0.00    -0.230 NA
ATOM      4  O   LIG    1       -1.098   5.479   0.277  0.00  0.00    +0.070 OA
ATOM      5  N   LIG    1       -2.459   5.267  -0.074  0.00  0.00    -0.230 NA
ATOM      6  C   LIG    1       -2.630   4.000  -0.235  0.00  0.00    +0.300 A 
ATOM      7  N   LIG    1       -3.761   3.261  -0.594  0.00  0.00    -0.460 N 
ATOM      8  C   LIG    1       -3.513   1.875  -1.037  0.00  0.00    +0.490 C 
ATOM      9  C   LIG    1       -2.529   1.193  -0.088  0.00  0.00    +0.480 C 
ENDROOT
BRANCH   1  11
ATOM     10  O   LIG    1        0.029   0.050  -0.140  0.00  0.00    -0.140 OA
ATOM     11  N   LIG    1       -0.015   1.267  -0.157  0.00  0.00    +0.210 N 
ATOM     12  O   LIG    1        1.015   1.912  -0.250  0.00  0.00    -0.110 OA
ENDBRANCH   1  11
BRANCH   7  13
ATOM     13  N   LIG    1       -5.052   3.803  -0.537  0.00  0.00    +0.200 N 
ATOM     14  O   LIG    1       -6.012   3.126  -0.858  0.00  0.00    -0.130 OA
ATOM     15  O   LIG    1       -5.214   4.952  -0.166  0.00  0.00    -0.100 OA
ENDBRANCH   7  13
BRANCH   8  16
ATOM     16  O   LIG    1       -2.962   1.889  -2.355  0.00  0.00    -0.530 OA
ATOM     17  H   LIG    1       -3.534   2.303  -3.016  0.00  0.00    +0.400 HD
ENDBRANCH   8  16
BRANCH   9  18
ATOM     18  O   LIG    1       -2.304  -0.150  -0.523  0.00  0.00    -0.510 OA
ATOM     19  H   LIG    1       -1.800  -0.687   0.103  0.00  0.00    +0.420 HD
ENDBRANCH   9  18
TORSDOF 4
ENDMDL
MODEL     1390
REMARK  Name = ZINC000013304548
REMARK                            x       y       z     vdW  Elec       q    Type
REMARK                         _______ _______ _______ _____ _____    ______ ____
ROOT
ATOM      1  C   LIG    1       -1.294  -0.603   0.010  0.00  0.00    +0.160 C 
ATOM      2  C   LIG    1       -1.243  -1.951  -0.715  0.00  0.00    +0.240 C 
ATOM      3  C   LIG    1       -2.617  -2.620  -0.630  0.00  0.00    +0.340 C 
ATOM      4  O   LIG    1       -2.987  -2.774   0.742  0.00  0.00    -0.390 OA
ATOM      5  C   LIG    1       -3.097  -1.542   1.458  0.00  0.00    +0.150 C 
ATOM      6  C   LIG    1       -1.743  -0.828   1.457  0.00  0.00    +0.130 C 
ENDROOT
BRANCH   2   7
ATOM      7  N   LIG    1       -0.239  -2.809  -0.080  0.00  0.00    -0.690 N 
ATOM      8  H   LIG    1       -0.494  -3.396   0.649  0.00  0.00    +0.410 HD
ATOM      9  C   LIG    1        1.038  -2.784  -0.510  0.00  0.00    +0.520 C 
ATOM     10  O   LIG    1        1.357  -2.050  -1.422  0.00  0.00    -0.550 OA
ATOM     11  C   LIG    1        2.070  -3.667   0.142  0.00  0.00    +0.090 C 
ENDBRANCH   2   7
BRANCH   1  13
ATOM     12  C   LIG    1       -0.015   1.425   0.007  0.00  0.00    +0.200 C 
ATOM     13  O   LIG    1        0.003  -0.004   0.000  0.00  0.00    -0.340 OA
ENDBRANCH   1  13
BRANCH   3  14
ATOM     14  O   LIG    1       -2.562  -3.904  -1.256  0.00  0.00    -0.530 OA
ATOM     15  H   LIG    1       -3.400  -4.386  -1.239  0.00  0.00    +0.390 HD
ENDBRANCH   3  14
BRANCH   6  16
ATOM     16  O   LIG    1       -0.778  -1.634   2.135  0.00  0.00    -0.530 OA
ATOM     17  H   LIG    1       -1.000  -1.822   3.058  0.00  0.00    +0.370 HD
ENDBRANCH   6  16
BRANCH   5  18
ATOM     18  C   LIG    1       -3.524  -1.827   2.900  0.00  0.00    +0.210 C 
BRANCH  18  19
ATOM     19  O   LIG    1       -4.838  -2.387   2.906  0.00  0.00    -0.560 OA
ATOM     20  H   LIG    1       -5.174  -2.593   3.789  0.00  0.00    +0.390 HD
ENDBRANCH  18  19
ENDBRANCH   5  18
TORSDOF 6
ENDMDL
MODEL     1391
REMARK  Name = ZINC000001756788
REMARK                            x       y       z     vdW  Elec       q    Type
REMARK                         _______ _______ _______ _____ _____    ______ ____
ROOT
ATOM      1  O   LIG    1        0.002  -0.004   0.002  0.00  0.00    -0.520 OA
ATOM      2  C   LIG    1       -0.014   1.209   0.009  0.00  0.00    +0.510 C 
ATOM      3  N   LIG    1        1.143   1.899   0.001  0.00  0.00    -0.700 N 
ATOM      4  H   LIG    1        1.130   2.869   0.007  0.00  0.00    +0.410 HD
ENDROOT
BRANCH   2   5
ATOM      5  C   LIG    1       -1.319   1.939   0.019  0.00  0.00    +0.510 C 
ATOM      6  N   LIG    1       -2.477   1.249   0.021  0.00  0.00    -0.700 N 
ATOM      7  H   LIG    1       -2.463   0.279   0.015  0.00  0.00    +0.410 HD
ATOM      8  O   LIG    1       -1.335   3.152   0.025  0.00  0.00    -0.520 OA
BRANCH   6   9
ATOM      9  C   LIG    1       -3.755   1.964   0.030  0.00  0.00    +0.290 C 
BRANCH   9  10
ATOM     10  C   LIG    1       -4.904   0.954   0.030  0.00  0.00    +0.150 C 
BRANCH  10  11
ATOM     11  N   LIG    1       -6.186   1.672   0.041  0.00  0.00    -0.450 NA
ATOM     12  C   LIG    1       -7.008   1.297  -1.118  0.00  0.00    +0.150 C 
ATOM     13  C   LIG    1       -7.304   0.749   0.279  0.00  0.00    +0.150 C 
ENDBRANCH  10  11
ENDBRANCH   9  10
ENDBRANCH   6   9
ENDBRANCH   2   5
BRANCH   3  14
ATOM     14  C   LIG    1        2.422   1.184  -0.015  0.00  0.00    +0.290 C 
BRANCH  14  15
ATOM     15  C   LIG    1        3.571   2.194  -0.020  0.00  0.00    +0.150 C 
BRANCH  15  16
ATOM     16  N   LIG    1        4.853   1.477  -0.036  0.00  0.00    -0.450 NA
ATOM     17  C   LIG    1        5.658   1.864  -1.203  0.00  0.00    +0.150 C 
ATOM     18  C   LIG    1        5.974   2.397   0.196  0.00  0.00    +0.150 C 
ENDBRANCH  15  16
ENDBRANCH  14  15
ENDBRANCH   3  14
TORSDOF 7
ENDMDL
MODEL     1392
REMARK  Name = ZINC000013371199
REMARK                            x       y       z     vdW  Elec       q    Type
REMARK                         _______ _______ _______ _____ _____    ______ ____
ROOT
ATOM      1  N   LIG    1       -1.413  -1.998   0.005  0.00  0.00    -0.690 N 
ATOM      2  H   LIG    1       -0.567  -2.472  -0.006  0.00  0.00    +0.420 HD
ATOM      3  C   LIG    1       -2.571  -2.688   0.012  0.00  0.00    +0.510 C 
ATOM      4  O   LIG    1       -3.630  -2.096   0.025  0.00  0.00    -0.520 OA
ENDROOT
BRANCH   3   5
ATOM      5  C   LIG    1       -2.551  -4.183   0.004  0.00  0.00    +0.510 C 
ATOM      6  N   LIG    1       -3.709  -4.872   0.011  0.00  0.00    -0.690 N 
ATOM      7  H   LIG    1       -4.556  -4.399   0.022  0.00  0.00    +0.420 HD
ATOM      8  O   LIG    1       -1.492  -4.775  -0.009  0.00  0.00    -0.520 OA
BRANCH   6   9
ATOM      9  C   LIG    1       -3.689  -6.337   0.003  0.00  0.00    +0.290 C 
BRANCH   9  10
ATOM     10  C   LIG    1       -5.125  -6.867   0.014  0.00  0.00    +0.160 C 
ATOM     11  C   LIG    1       -5.104  -8.392   0.132  0.00  0.00    +0.020 C 
BRANCH  10  12
ATOM     12  O   LIG    1       -5.780  -6.491  -1.199  0.00  0.00    -0.560 OA
ATOM     13  H   LIG    1       -6.696  -6.794  -1.261  0.00  0.00    +0.380 HD
ENDBRANCH  10  12
ENDBRANCH   9  10
ENDBRANCH   6   9
ENDBRANCH   3   5
BRANCH   1  14
ATOM     14  C   LIG    1       -1.433  -0.534   0.013  0.00  0.00    +0.240 C 
BRANCH  14  16
ATOM     15  C   LIG    1       -0.019   1.526   0.010  0.00  0.00    +0.020 C 
ATOM     16  C   LIG    1        0.002  -0.004   0.002  0.00  0.00    +0.200 C 
BRANCH  16  17
ATOM     17  O   LIG    1        0.693  -0.477   1.160  0.00  0.00    -0.560 OA
ATOM     18  H   LIG    1        0.294  -0.202   1.996  0.00  0.00    +0.380 HD
ENDBRANCH  16  17
ENDBRANCH  14  16
ENDBRANCH   1  14
TORSDOF 7
ENDMDL
MODEL     1393
REMARK  Name = ZINC000086887783
REMARK                            x       y       z     vdW  Elec       q    Type
REMARK                         _______ _______ _______ _____ _____    ______ ____
ROOT
ATOM      1  N   LIG    1       -2.733  -2.544  -0.111  0.00  0.00    -0.530 N 
ATOM      2  C   LIG    1       -3.309  -2.871   1.072  0.00  0.00    +0.310 A 
ATOM      3  C   LIG    1       -4.608  -3.350   1.084  0.00  0.00    -0.240 A 
ATOM      4  C   LIG    1       -5.308  -3.483  -0.205  0.00  0.00    +0.540 A 
ATOM      5  N   LIG    1       -4.654  -3.132  -1.332  0.00  0.00    -0.660 N 
ATOM      6  H   LIG    1       -5.098  -3.213  -2.191  0.00  0.00    +0.430 HD
ATOM      7  O   LIG    1       -6.451  -3.898  -0.252  0.00  0.00    -0.450 OA
ATOM      8  C   LIG    1       -3.394  -2.668  -1.272  0.00  0.00    +0.700 A 
ATOM      9  O   LIG    1       -2.832  -2.361  -2.305  0.00  0.00    -0.570 OA
ENDROOT
BRANCH   3  10
ATOM     10  C   LIG    1       -5.267  -3.714   2.342  0.00  0.00    +0.540 C 
ATOM     11  O   LIG    1       -6.416  -4.136   2.331  0.00  0.00    -0.640 OA
ATOM     12  O   LIG    1       -4.668  -3.597   3.403  0.00  0.00    -0.690 OA
ENDBRANCH   3  10
BRANCH   1  13
ATOM     13  C   LIG    1       -1.358  -2.037  -0.122  0.00  0.00    +0.330 C 
BRANCH  13  14
ATOM     14  C   LIG    1       -1.376  -0.512   0.012  0.00  0.00    +0.250 C 
BRANCH  14  16
ATOM     15  C   LIG    1       -0.018   1.465   0.010  0.00  0.00    +0.310 C 
ATOM     16  N   LIG    1        0.002  -0.004   0.002  0.00  0.00    -0.380 N 
ATOM     17  C   LIG    1        0.713  -0.491   1.192  0.00  0.00    +0.330 C 
ATOM     18  H   LIG    1        0.474  -0.330  -0.828  0.00  0.00    +0.430 HD
ENDBRANCH  14  16
ENDBRANCH  13  14
ENDBRANCH   1  13
TORSDOF 4
ENDMDL
MODEL     1394
REMARK  Name = ZINC000254342095
REMARK                            x       y       z     vdW  Elec       q    Type
REMARK                         _______ _______ _______ _____ _____    ______ ____
ROOT
ATOM      1  C   LIG    1        1.304  -2.596  -2.255  0.00  0.00    +0.440 C 
ATOM      2  O   LIG    1        0.322  -2.926  -3.240  0.00  0.00    -0.360 OA
ATOM      3  C   LIG    1       -0.711  -3.793  -2.767  0.00  0.00    +0.200 C 
ATOM      4  C   LIG    1       -0.094  -5.120  -2.316  0.00  0.00    +0.130 C 
ATOM      5  C   LIG    1        0.952  -4.846  -1.232  0.00  0.00    +0.190 C 
ATOM      6  C   LIG    1        2.001  -3.875  -1.784  0.00  0.00    +0.180 C 
ENDROOT
BRANCH   1   8
ATOM      7  C   LIG    1        0.600  -0.602  -1.046  0.00  0.00    +0.650 C 
ATOM      8  N   LIG    1        0.653  -1.946  -1.115  0.00  0.00    -0.720 N 
ATOM      9  H   LIG    1        0.260  -2.484  -0.409  0.00  0.00    +0.410 HD
ATOM     10  O   LIG    1        1.092   0.072  -1.930  0.00  0.00    -0.560 OA
BRANCH   7  12
ATOM     11  C   LIG    1       -0.018   1.448   0.010  0.00  0.00    +0.300 C 
ATOM     12  O   LIG    1        0.002  -0.004   0.002  0.00  0.00    -0.370 OA
ENDBRANCH   7  12
ENDBRANCH   1   8
BRANCH   5  13
ATOM     13  O   LIG    1        1.583  -6.072  -0.856  0.00  0.00    -0.550 OA
ATOM     14  H   LIG    1        0.975  -6.735  -0.503  0.00  0.00    +0.390 HD
ENDBRANCH   5  13
BRANCH   4  15
ATOM     15  O   LIG    1       -1.117  -5.968  -1.791  0.00  0.00    -0.560 OA
ATOM     16  H   LIG    1       -1.817  -6.179  -2.424  0.00  0.00    +0.390 HD
ENDBRANCH   4  15
BRANCH   6  17
ATOM     17  O   LIG    1        2.682  -4.483  -2.884  0.00  0.00    -0.530 OA
ATOM     18  H   LIG    1        3.362  -3.923  -3.283  0.00  0.00    +0.390 HD
ENDBRANCH   6  17
TORSDOF 5
ENDMDL
MODEL     1395
REMARK  Name = ZINC000001855290
REMARK                            x       y       z     vdW  Elec       q    Type
REMARK                         _______ _______ _______ _____ _____    ______ ____
ROOT
ATOM      1  C   LIG    1       -0.019   1.526   0.010  0.00  0.00    +0.030 C 
ATOM      2  C   LIG    1        0.002  -0.004   0.002  0.00  0.00    +0.350 C 
ATOM      3  N   LIG    1        0.642  -0.467  -1.237  0.00  0.00    -0.530 NA
ATOM      4  C   LIG    1        1.929  -0.646  -1.242  0.00  0.00    +0.390 A 
ATOM      5  C   LIG    1        2.734  -0.579   0.011  0.00  0.00    -0.070 A 
ATOM      6  N   LIG    1        4.017  -0.700  -0.363  0.00  0.00    -0.500 NA
ATOM      7  C   LIG    1        4.083  -0.920  -1.647  0.00  0.00    +0.540 A 
ATOM      8  C   LIG    1        2.110  -0.454   1.239  0.00  0.00    +0.200 C 
ATOM      9  N   LIG    1        2.838  -0.945  -2.220  0.00  0.00    -0.530 N 
ATOM     10  C   LIG    1       -1.437  -0.522   0.041  0.00  0.00    +0.070 C 
ATOM     11  N   LIG    1        0.711  -0.477   1.190  0.00  0.00    -0.720 N 
ATOM     12  H   LIG    1        0.208  -0.810   1.950  0.00  0.00    +0.410 HD
ENDROOT
BRANCH   8  13
ATOM     13  C   LIG    1        2.858  -0.310   2.498  0.00  0.00    +0.570 C 
ATOM     14  O   LIG    1        2.260  -0.204   3.552  0.00  0.00    -0.540 OA
ATOM     15  N   LIG    1        4.206  -0.295   2.483  0.00  0.00    -0.830 N 
ATOM     16  H   LIG    1        4.699  -0.199   3.313  0.00  0.00    +0.410 HD
ATOM     17  H   LIG    1        4.683  -0.379   1.643  0.00  0.00    +0.420 HD
ENDBRANCH   8  13
BRANCH   9  18
ATOM     18  C   LIG    1        2.537  -1.239  -3.623  0.00  0.00    +0.340 C 
BRANCH  18  19
ATOM     19  C   LIG    1        2.314  -2.744  -3.792  0.00  0.00    +0.170 C 
BRANCH  19  20
ATOM     20  O   LIG    1        1.149  -3.138  -3.064  0.00  0.00    -0.560 OA
ATOM     21  H   LIG    1        0.947  -4.081  -3.126  0.00  0.00    +0.380 HD
ENDBRANCH  19  20
ENDBRANCH  18  19
ENDBRANCH   9  18
TORSDOF 4
ENDMDL
MODEL     1396
REMARK  Name = ZINC000019169435
REMARK                            x       y       z     vdW  Elec       q    Type
REMARK                         _______ _______ _______ _____ _____    ______ ____
ROOT
ATOM      1  N   LIG    1       -1.413  -2.002   0.005  0.00  0.00    -0.360 NA
ENDROOT
BRANCH   1   2
ATOM      2  N   LIG    1       -0.761  -2.508  -1.192  0.00  0.00    -0.520 NA
ATOM      3  H   LIG    1       -1.390  -3.083  -1.732  0.00  0.00    +0.320 HD
BRANCH   2   4
ATOM      4  C   LIG    1        0.464  -3.244  -0.852  0.00  0.00    +0.220 C 
BRANCH   4   5
ATOM      5  C   LIG    1        1.122  -3.760  -2.134  0.00  0.00    +0.150 C 
ATOM      6  C   LIG    1        2.327  -4.631  -1.775  0.00  0.00    +0.020 C 
BRANCH   5   7
ATOM      7  O   LIG    1        1.554  -2.652  -2.927  0.00  0.00    -0.550 OA
ATOM      8  H   LIG    1        1.981  -2.905  -3.757  0.00  0.00    +0.370 HD
ENDBRANCH   5   7
ENDBRANCH   4   5
ENDBRANCH   2   4
ENDBRANCH   1   2
BRANCH   1   9
ATOM      9  C   LIG    1       -1.433  -0.534   0.013  0.00  0.00    +0.170 C 
BRANCH   9  11
ATOM     10  C   LIG    1       -0.019   1.526   0.010  0.00  0.00    -0.010 C 
ATOM     11  C   LIG    1        0.002  -0.004   0.002  0.00  0.00    +0.220 C 
BRANCH  11  12
ATOM     12  O   LIG    1        0.693  -0.477   1.160  0.00  0.00    -0.550 OA
ATOM     13  H   LIG    1        0.294  -0.202   1.996  0.00  0.00    +0.370 HD
ENDBRANCH  11  12
ENDBRANCH   9  11
ENDBRANCH   1   9
BRANCH   1  14
ATOM     14  C   LIG    1       -2.771  -2.548   0.134  0.00  0.00    +0.140 C 
BRANCH  14  15
ATOM     15  C   LIG    1       -2.695  -4.061   0.346  0.00  0.00    +0.200 C 
ATOM     16  C   LIG    1       -4.108  -4.647   0.356  0.00  0.00    +0.010 C 
BRANCH  15  17
ATOM     17  O   LIG    1       -2.056  -4.336   1.595  0.00  0.00    -0.550 OA
ATOM     18  H   LIG    1       -2.514  -3.963   2.361  0.00  0.00    +0.370 HD
ENDBRANCH  15  17
ENDBRANCH  14  15
ENDBRANCH   1  14
TORSDOF 10
ENDMDL
MODEL     1397
REMARK  Name = ZINC000019168542
REMARK                            x       y       z     vdW  Elec       q    Type
REMARK                         _______ _______ _______ _____ _____    ______ ____
ROOT
ATOM      1  N   LIG    1       -1.370  -0.471  -0.015  0.00  0.00    -0.360 NA
ENDROOT
BRANCH   1   3
ATOM      2  C   LIG    1       -0.379   1.655  -0.562  0.00  0.00    +0.210 C 
ATOM      3  N   LIG    1       -0.124   0.256  -0.195  0.00  0.00    -0.360 NA
ATOM      4  C   LIG    1        0.714   0.171   1.009  0.00  0.00    +0.160 C 
ENDBRANCH   1   3
BRANCH   1   5
ATOM      5  C   LIG    1       -2.126   0.056   1.128  0.00  0.00    +0.160 C 
BRANCH   5   6
ATOM      6  C   LIG    1       -3.572  -0.441   1.057  0.00  0.00    +0.080 C 
BRANCH   6   7
ATOM      7  C   LIG    1       -4.340   0.076   2.246  0.00  0.00    +0.520 C 
ATOM      8  O   LIG    1       -3.787   0.773   3.069  0.00  0.00    -0.550 OA
ATOM      9  N   LIG    1       -5.643  -0.237   2.394  0.00  0.00    -0.860 N 
ATOM     10  H   LIG    1       -6.137   0.096   3.159  0.00  0.00    +0.400 HD
ATOM     11  H   LIG    1       -6.086  -0.794   1.735  0.00  0.00    +0.400 HD
ENDBRANCH   6   7
ENDBRANCH   5   6
ENDBRANCH   1   5
BRANCH   1  12
ATOM     12  C   LIG    1       -1.123  -1.911   0.136  0.00  0.00    +0.210 C 
BRANCH  12  13
ATOM     13  C   LIG    1       -0.445  -2.447  -1.127  0.00  0.00    +0.080 C 
BRANCH  13  14
ATOM     14  C   LIG    1       -0.191  -3.925  -0.972  0.00  0.00    +0.520 C 
ATOM     15  O   LIG    1       -0.520  -4.493   0.048  0.00  0.00    -0.550 OA
ATOM     16  N   LIG    1        0.402  -4.614  -1.966  0.00  0.00    -0.860 N 
ATOM     17  H   LIG    1        0.565  -5.565  -1.867  0.00  0.00    +0.400 HD
ATOM     18  H   LIG    1        0.664  -4.160  -2.782  0.00  0.00    +0.400 HD
ENDBRANCH  13  14
ENDBRANCH  12  13
ENDBRANCH   1  12
TORSDOF 7
ENDMDL
MODEL     1398
REMARK  Name = ZINC000019169432
REMARK                            x       y       z     vdW  Elec       q    Type
REMARK                         _______ _______ _______ _____ _____    ______ ____
ROOT
ATOM      1  N   LIG    1       -2.764  -2.542   0.015  0.00  0.00    -0.370 NA
ENDROOT
BRANCH   1   2
ATOM      2  N   LIG    1       -1.413  -2.002   0.005  0.00  0.00    -0.500 NA
ATOM      3  H   LIG    1       -0.890  -2.353  -0.783  0.00  0.00    +0.320 HD
BRANCH   2   4
ATOM      4  C   LIG    1       -1.433  -0.534   0.013  0.00  0.00    +0.180 C 
BRANCH   4   6
ATOM      5  C   LIG    1       -0.019   1.526   0.010  0.00  0.00    +0.000 C 
ATOM      6  C   LIG    1        0.002  -0.004   0.002  0.00  0.00    +0.200 C 
BRANCH   6   7
ATOM      7  O   LIG    1        0.693  -0.477   1.160  0.00  0.00    -0.550 OA
ATOM      8  H   LIG    1        0.294  -0.202   1.996  0.00  0.00    +0.380 HD
ENDBRANCH   6   7
ENDBRANCH   4   6
ENDBRANCH   2   4
ENDBRANCH   1   2
BRANCH   1   9
ATOM      9  C   LIG    1       -3.017  -3.303   1.245  0.00  0.00    +0.150 C 
BRANCH   9  10
ATOM     10  C   LIG    1       -2.970  -2.359   2.448  0.00  0.00    +0.220 C 
ATOM     11  C   LIG    1       -3.234  -3.151   3.730  0.00  0.00    +0.000 C 
BRANCH  10  12
ATOM     12  O   LIG    1       -1.680  -1.748   2.523  0.00  0.00    -0.540 OA
ATOM     13  H   LIG    1       -0.952  -2.376   2.625  0.00  0.00    +0.370 HD
ENDBRANCH  10  12
ENDBRANCH   9  10
ENDBRANCH   1   9
BRANCH   1  14
ATOM     14  C   LIG    1       -3.009  -3.368  -1.175  0.00  0.00    +0.130 C 
BRANCH  14  15
ATOM     15  C   LIG    1       -2.954  -2.489  -2.426  0.00  0.00    +0.200 C 
ATOM     16  C   LIG    1       -3.210  -3.349  -3.665  0.00  0.00    +0.010 C 
BRANCH  15  17
ATOM     17  O   LIG    1       -3.953  -1.471  -2.338  0.00  0.00    -0.550 OA
ATOM     18  H   LIG    1       -4.856  -1.811  -2.268  0.00  0.00    +0.370 HD
ENDBRANCH  15  17
ENDBRANCH  14  15
ENDBRANCH   1  14
TORSDOF 10
ENDMDL
MODEL     1399
REMARK  Name = ZINC000019169437
REMARK                            x       y       z     vdW  Elec       q    Type
REMARK                         _______ _______ _______ _____ _____    ______ ____
ROOT
ATOM      1  N   LIG    1       -2.764  -2.542   0.015  0.00  0.00    -0.360 NA
ENDROOT
BRANCH   1   2
ATOM      2  N   LIG    1       -1.413  -2.002   0.005  0.00  0.00    -0.520 NA
ATOM      3  H   LIG    1       -0.890  -2.353  -0.783  0.00  0.00    +0.330 HD
BRANCH   2   4
ATOM      4  C   LIG    1       -1.433  -0.534   0.013  0.00  0.00    +0.180 C 
BRANCH   4   6
ATOM      5  C   LIG    1       -0.019   1.526   0.010  0.00  0.00    +0.020 C 
ATOM      6  C   LIG    1        0.002  -0.004   0.002  0.00  0.00    +0.190 C 
BRANCH   6   7
ATOM      7  O   LIG    1        0.693  -0.477   1.160  0.00  0.00    -0.550 OA
ATOM      8  H   LIG    1        0.294  -0.202   1.996  0.00  0.00    +0.370 HD
ENDBRANCH   6   7
ENDBRANCH   4   6
ENDBRANCH   2   4
ENDBRANCH   1   2
BRANCH   1   9
ATOM      9  C   LIG    1       -3.017  -3.303   1.245  0.00  0.00    +0.160 C 
BRANCH   9  10
ATOM     10  C   LIG    1       -2.970  -2.359   2.448  0.00  0.00    +0.220 C 
ATOM     11  C   LIG    1       -3.110  -3.169   3.739  0.00  0.00    +0.000 C 
BRANCH  10  12
ATOM     12  O   LIG    1       -4.041  -1.418   2.358  0.00  0.00    -0.550 OA
ATOM     13  H   LIG    1       -4.920  -1.822   2.347  0.00  0.00    +0.370 HD
ENDBRANCH  10  12
ENDBRANCH   9  10
ENDBRANCH   1   9
BRANCH   1  14
ATOM     14  C   LIG    1       -3.009  -3.368  -1.175  0.00  0.00    +0.140 C 
BRANCH  14  15
ATOM     15  C   LIG    1       -2.954  -2.489  -2.426  0.00  0.00    +0.200 C 
ATOM     16  C   LIG    1       -3.210  -3.349  -3.665  0.00  0.00    +0.010 C 
BRANCH  15  17
ATOM     17  O   LIG    1       -3.953  -1.471  -2.338  0.00  0.00    -0.550 OA
ATOM     18  H   LIG    1       -4.856  -1.811  -2.268  0.00  0.00    +0.370 HD
ENDBRANCH  15  17
ENDBRANCH  14  15
ENDBRANCH   1  14
TORSDOF 10
ENDMDL
MODEL     1400
REMARK  Name = ZINC000019288383
REMARK                            x       y       z     vdW  Elec       q    Type
REMARK                         _______ _______ _______ _____ _____    ______ ____
ROOT
ATOM      1  C   LIG    1       -0.019   1.526   0.010  0.00  0.00    +0.070 C 
ATOM      2  C   LIG    1        0.002  -0.004   0.002  0.00  0.00    +0.270 C 
ATOM      3  C   LIG    1        0.791  -0.526  -1.224  0.00  0.00    +0.140 C 
ATOM      4  C   LIG    1        2.193  -0.687  -0.607  0.00  0.00    +0.250 C 
ATOM      5  C   LIG    1        2.854  -1.949  -1.073  0.00  0.00    +0.010 A 
ATOM      6  N   LIG    1        3.016  -2.469  -2.240  0.00  0.00    -0.250 NA
ATOM      7  O   LIG    1        3.612  -3.523  -2.118  0.00  0.00    +0.300 OA
ATOM      8  N   LIG    1        3.893  -3.811  -0.971  0.00  0.00    -0.050 N 
ATOM      9  O   LIG    1        4.576  -4.982  -0.561  0.00  0.00    -0.440 OA
ATOM     10  C   LIG    1        3.467  -2.869  -0.181  0.00  0.00    +0.040 A 
ATOM     11  C   LIG    1        3.583  -2.731   1.300  0.00  0.00    +0.210 C 
ATOM     12  C   LIG    1        2.912  -1.481   1.845  0.00  0.00    +0.180 C 
ATOM     13  C   LIG    1        1.923  -0.886   0.878  0.00  0.00    +0.080 C 
ATOM     14  N   LIG    1        0.738  -0.511   1.165  0.00  0.00    -0.130 N 
ATOM     15  O   LIG    1        0.190  -0.578   2.470  0.00  0.00    -0.490 OA
ENDROOT
BRANCH   2  16
ATOM     16  N   LIG    1       -1.368  -0.533  -0.006  0.00  0.00    -0.830 NA
ATOM     17  H   LIG    1       -1.847  -0.282  -0.858  0.00  0.00    +0.370 HD
ATOM     18  H   LIG    1       -1.882  -0.219   0.803  0.00  0.00    +0.370 HD
ENDBRANCH   2  16
BRANCH   4  19
ATOM     19  O   LIG    1        3.005   0.465  -0.844  0.00  0.00    -0.500 OA
ATOM     20  H   LIG    1        3.895   0.403  -0.471  0.00  0.00    +0.400 HD
ENDBRANCH   4  19
TORSDOF 2
ENDMDL
MODEL     1401
REMARK  Name = ZINC000019288389
REMARK                            x       y       z     vdW  Elec       q    Type
REMARK                         _______ _______ _______ _____ _____    ______ ____
ROOT
ATOM      1  C   LIG    1       -0.019   1.526   0.010  0.00  0.00    +0.080 C 
ATOM      2  C   LIG    1        0.002  -0.004   0.002  0.00  0.00    +0.270 C 
ATOM      3  C   LIG    1        0.791  -0.526  -1.224  0.00  0.00    +0.150 C 
ATOM      4  C   LIG    1        1.460  -1.773  -0.616  0.00  0.00    +0.250 C 
ATOM      5  C   LIG    1        2.881  -1.908  -1.072  0.00  0.00    +0.010 A 
ATOM      6  N   LIG    1        3.434  -1.850  -2.235  0.00  0.00    -0.250 NA
ATOM      7  O   LIG    1        4.633  -2.009  -2.104  0.00  0.00    +0.300 OA
ATOM      8  N   LIG    1        4.996  -2.177  -0.956  0.00  0.00    -0.050 N 
ATOM      9  O   LIG    1        6.334  -2.377  -0.537  0.00  0.00    -0.440 OA
ATOM     10  C   LIG    1        3.957  -2.144  -0.174  0.00  0.00    +0.040 A 
ATOM     11  C   LIG    1        3.859  -2.321   1.304  0.00  0.00    +0.210 C 
ATOM     12  C   LIG    1        2.445  -2.173   1.839  0.00  0.00    +0.180 C 
ATOM     13  C   LIG    1        1.531  -1.467   0.873  0.00  0.00    +0.100 C 
ATOM     14  N   LIG    1        0.738  -0.511   1.165  0.00  0.00    -0.130 N 
ATOM     15  O   LIG    1        0.584   0.005   2.475  0.00  0.00    -0.500 OA
ENDROOT
BRANCH   2  16
ATOM     16  N   LIG    1       -1.368  -0.533  -0.006  0.00  0.00    -0.830 NA
ATOM     17  H   LIG    1       -1.847  -0.282  -0.858  0.00  0.00    +0.370 HD
ATOM     18  H   LIG    1       -1.882  -0.219   0.803  0.00  0.00    +0.370 HD
ENDBRANCH   2  16
BRANCH   4  19
ATOM     19  O   LIG    1        0.697  -2.954  -0.875  0.00  0.00    -0.490 OA
ATOM     20  H   LIG    1        1.085  -3.760  -0.509  0.00  0.00    +0.390 HD
ENDBRANCH   4  19
TORSDOF 2
ENDMDL
MODEL     1402
REMARK  Name = ZINC000019366335
REMARK                            x       y       z     vdW  Elec       q    Type
REMARK                         _______ _______ _______ _____ _____    ______ ____
ROOT
ATOM      1  O   LIG    1        0.002  -0.004   0.002  0.00  0.00    -0.940 OA
ATOM      2  S   LIG    1       -0.017   1.415   0.010  0.00  0.00    +2.720 S 
ATOM      3  N   LIG    1        0.395   2.061   1.486  0.00  0.00    -1.010 NA
ATOM      4  C   LIG    1        0.831   1.063   2.483  0.00  0.00    +0.500 C 
ATOM      5  N   LIG    1        2.245   1.149   2.090  0.00  0.00    -0.560 NA
ATOM      6  C   LIG    1        2.464   1.061   0.586  0.00  0.00    +0.500 C 
ATOM      7  C   LIG    1        2.855   2.373   2.538  0.00  0.00    +0.210 C 
ATOM      8  C   LIG    1        3.001   3.238   1.350  0.00  0.00    +0.130 C 
ATOM      9  N   LIG    1        1.779   4.022   1.036  0.00  0.00    -0.470 NA
ATOM     10  C   LIG    1        1.685   3.421  -0.434  0.00  0.00    +0.440 C 
ATOM     11  C   LIG    1        0.509   3.454   1.626  0.00  0.00    +0.440 C 
ATOM     12  O   LIG    1       -0.889   2.255  -0.734  0.00  0.00    -0.950 OA
ATOM     13  N   LIG    1        1.572   2.040  -0.002  0.00  0.00    -1.010 NA
ENDROOT
TORSDOF 0
ENDMDL
MODEL     1403
REMARK  Name = ZINC000071255878
REMARK                            x       y       z     vdW  Elec       q    Type
REMARK                         _______ _______ _______ _____ _____    ______ ____
ROOT
ATOM      1  N   VAL A  1       -1.413  -2.002   0.005  0.00  0.00    -0.480 N 
ATOM      2  H1  VAL A  1       -0.856  -2.336   0.777  0.00  0.00    +0.400 HD
ATOM      3  H2  VAL A  1       -1.015  -2.329  -0.863  0.00  0.00    +0.430 HD
ENDROOT
BRANCH   1   4
ATOM      4  CA  VAL A  1       -1.433  -0.534   0.013  0.00  0.00    +0.080 C 
BRANCH   4   6
ATOM      5  CG1 VAL A  1       -0.019   1.526   0.010  0.00  0.00    +0.060 C 
ATOM      6  CB  VAL A  1        0.002  -0.004   0.002  0.00  0.00    -0.020 C 
ATOM      7  CG2 VAL A  1        0.742  -0.511   1.242  0.00  0.00    +0.030 C 
ENDBRANCH   4   6
BRANCH   4   8
ATOM      8  C   VAL A  1       -2.162  -0.034  -1.208  0.00  0.00    +0.500 C 
ATOM      9  OXT VAL A  1       -2.452   1.146  -1.305  0.00  0.00    -0.630 OA
ATOM     10  O   VAL A  1       -2.462  -0.811  -2.099  0.00  0.00    -0.670 OA
ENDBRANCH   4   8
ENDBRANCH   1   4
BRANCH   1  11
ATOM     11  C   UNK A  0       -2.785  -2.511   0.136  0.00  0.00    +0.250 C 
BRANCH  11  12
ATOM     12  C   UNK A  0       -2.764  -4.041   0.128  0.00  0.00    +0.180 C 
BRANCH  12  13
ATOM     13  O   UNK A  0       -2.200  -4.503  -1.101  0.00  0.00    -0.550 OA
ATOM     14  H   UNK A  0       -2.686  -4.220  -1.888  0.00  0.00    +0.400 HD
ENDBRANCH  12  13
BRANCH  12  15
ATOM     15  C   UNK A  0       -4.193  -4.572   0.264  0.00  0.00    +0.200 C 
BRANCH  15  16
ATOM     16  O   UNK A  0       -4.757  -4.110   1.493  0.00  0.00    -0.540 OA
ATOM     17  H   UNK A  0       -4.271  -4.393   2.280  0.00  0.00    +0.380 HD
ENDBRANCH  15  16
BRANCH  15  18
ATOM     18  C   UNK A  0       -4.172  -6.101   0.256  0.00  0.00    +0.170 C 
BRANCH  18  19
ATOM     19  O   UNK A  0       -5.513  -6.596   0.266  0.00  0.00    -0.560 OA
ATOM     20  H   UNK A  0       -5.576  -7.561   0.261  0.00  0.00    +0.390 HD
ENDBRANCH  18  19
ENDBRANCH  15  18
ENDBRANCH  12  15
ENDBRANCH  11  12
ENDBRANCH   1  11
TORSDOF 10
ENDMDL
MODEL     1404
REMARK  Name = ZINC000033817735
REMARK                            x       y       z     vdW  Elec       q    Type
REMARK                         _______ _______ _______ _____ _____    ______ ____
ROOT
ATOM      1  O   LIG    1        0.002  -0.004   0.002  0.00  0.00    -0.500 OA
ATOM      2  C   LIG    1       -0.015   1.217   0.009  0.00  0.00    +0.530 A 
ATOM      3  C   LIG    1       -1.249   1.913   0.030  0.00  0.00    -0.100 A 
ATOM      4  C   LIG    1       -1.225   3.263   0.040  0.00  0.00    +0.340 A 
ATOM      5  N   LIG    1       -0.025   3.916   0.030  0.00  0.00    -0.540 N 
ATOM      6  C   LIG    1        1.143   3.232   0.005  0.00  0.00    +0.580 A 
ATOM      7  O   LIG    1        2.222   4.044  -0.011  0.00  0.00    -0.250 OA
ATOM      8  C   LIG    1        1.803   5.433  -0.013  0.00  0.00    +0.220 C 
ATOM      9  C   LIG    1        2.216   6.102   1.318  0.00  0.00    +0.170 C 
ATOM     10  C   LIG    1        0.911   6.825   1.738  0.00  0.00    +0.160 C 
ATOM     11  O   LIG    1       -0.127   5.906   1.336  0.00  0.00    -0.350 OA
ATOM     12  C   LIG    1        0.258   5.362   0.045  0.00  0.00    +0.410 C 
ATOM     13  N   LIG    1        1.132   1.905   0.002  0.00  0.00    -0.580 NA
ENDROOT
BRANCH   9  14
ATOM     14  O   LIG    1        3.276   7.037   1.110  0.00  0.00    -0.540 OA
ATOM     15  H   LIG    1        3.571   7.484   1.915  0.00  0.00    +0.400 HD
ENDBRANCH   9  14
BRANCH  10  16
ATOM     16  C   LIG    1        0.882   7.048   3.251  0.00  0.00    +0.210 C 
BRANCH  16  17
ATOM     17  O   LIG    1       -0.272   7.817   3.597  0.00  0.00    -0.560 OA
ATOM     18  H   LIG    1       -0.356   7.997   4.544  0.00  0.00    +0.390 HD
ENDBRANCH  16  17
ENDBRANCH  10  16
TORSDOF 3
ENDMDL
MODEL     1405
REMARK  Name = ZINC000018118630
REMARK                            x       y       z     vdW  Elec       q    Type
REMARK                         _______ _______ _______ _____ _____    ______ ____
ROOT
ATOM      1  C   LIG    1       -0.018   1.461   0.010  0.00  0.00    +0.340 C 
ATOM      2  N   LIG    1        0.002  -0.004   0.002  0.00  0.00    -0.450 N 
ATOM      3  C   LIG    1        0.009  -0.809  -1.093  0.00  0.00    +0.560 A 
ATOM      4  N   LIG    1        0.027  -2.070  -0.710  0.00  0.00    -0.520 NA
ATOM      5  C   LIG    1        0.034  -2.140   0.622  0.00  0.00    +0.350 A 
ATOM      6  N   LIG    1        0.051  -3.192   1.524  0.00  0.00    -0.510 N 
ATOM      7  C   LIG    1        0.061  -4.574   1.037  0.00  0.00    +0.350 C 
ATOM      8  C   LIG    1        0.049  -2.946   2.848  0.00  0.00    +0.710 A 
ATOM      9  O   LIG    1        0.059  -3.881   3.625  0.00  0.00    -0.540 OA
ATOM     10  N   LIG    1        0.040  -1.691   3.331  0.00  0.00    -0.550 N 
ATOM     11  C   LIG    1        0.043  -1.477   4.780  0.00  0.00    +0.350 C 
ATOM     12  C   LIG    1        0.027  -0.627   2.502  0.00  0.00    +0.600 A 
ATOM     13  O   LIG    1        0.019   0.505   2.953  0.00  0.00    -0.520 OA
ATOM     14  C   LIG    1        0.024  -0.838   1.112  0.00  0.00    -0.180 A 
ENDROOT
BRANCH   3  15
ATOM     15  N   LIG    1       -0.003  -0.375  -2.399  0.00  0.00    -0.550 N 
ATOM     16  H   LIG    1       -0.016   0.575  -2.594  0.00  0.00    +0.420 HD
BRANCH  15  17
ATOM     17  N   LIG    1        0.006  -1.283  -3.420  0.00  0.00    -0.580 NA
ATOM     18  H   LIG    1        0.796  -1.905  -3.344  0.00  0.00    +0.350 HD
ATOM     19  H   LIG    1       -0.004  -0.819  -4.316  0.00  0.00    +0.370 HD
ENDBRANCH  15  17
ENDBRANCH   3  15
TORSDOF 2
ENDMDL
MODEL     1406
REMARK  Name = ZINC000396172003
REMARK                            x       y       z     vdW  Elec       q    Type
REMARK                         _______ _______ _______ _____ _____    ______ ____
ROOT
ATOM      1  S   LIG    1        1.046  -4.081  -0.026  0.00  0.00    +2.730 S 
ATOM      2  O   LIG    1        0.014  -4.893   0.518  0.00  0.00    -0.950 OA
ATOM      3  O   LIG    1        2.359  -4.029   0.513  0.00  0.00    -0.950 OA
ENDROOT
BRANCH   1   7
ATOM      4  C   LIG    1        0.002  -0.004   0.002  0.00  0.00    +0.340 A 
ATOM      5  N   LIG    1       -1.051  -0.761   0.002  0.00  0.00    -0.560 NA
ATOM      6  C   LIG    1       -0.847  -2.067  -0.006  0.00  0.00    +0.430 A 
ATOM      7  C   LIG    1        0.436  -2.428  -0.014  0.00  0.00    -0.880 A 
ATOM      8  S   LIG    1        1.417  -0.964  -0.017  0.00  0.00    +0.200 S 
BRANCH   4   9
ATOM      9  N   LIG    1       -0.017   1.382   0.010  0.00  0.00    -0.800 N 
ATOM     10  H   LIG    1       -0.863   1.855   0.016  0.00  0.00    +0.420 HD
ATOM     11  H   LIG    1        0.817   1.878   0.004  0.00  0.00    +0.420 HD
ENDBRANCH   4   9
ENDBRANCH   1   7
BRANCH   1  12
ATOM     12  N   LIG    1        1.208  -4.532  -1.611  0.00  0.00    -1.110 NA
ATOM     13  H   LIG    1        0.659  -5.246  -1.971  0.00  0.00    +0.420 HD
BRANCH  12  14
ATOM     14  C   LIG    1        2.181  -3.852  -2.470  0.00  0.00    +0.290 C 
BRANCH  14  15
ATOM     15  C   LIG    1        2.403  -4.676  -3.740  0.00  0.00    +0.190 C 
BRANCH  15  16
ATOM     16  O   LIG    1        1.193  -4.718  -4.499  0.00  0.00    -0.570 OA
ATOM     17  H   LIG    1        1.261  -5.225  -5.320  0.00  0.00    +0.380 HD
ENDBRANCH  15  16
ENDBRANCH  14  15
ENDBRANCH  12  14
ENDBRANCH   1  12
TORSDOF 6
ENDMDL
MODEL     1407
REMARK  Name = ZINC000256055793
REMARK                            x       y       z     vdW  Elec       q    Type
REMARK                         _______ _______ _______ _____ _____    ______ ____
ROOT
ATOM      1  N   LIG    1        0.055  -3.318   1.466  0.00  0.00    -0.570 N 
ATOM      2  C   LIG    1        0.048  -3.184   2.929  0.00  0.00    +0.280 C 
ATOM      3  C   LIG    1       -1.132  -3.987   3.489  0.00  0.00    +0.290 C 
ATOM      4  N   LIG    1       -1.106  -5.333   2.902  0.00  0.00    -0.630 N 
ATOM      5  C   LIG    1       -1.099  -5.468   1.438  0.00  0.00    +0.280 C 
ATOM      6  C   LIG    1       -1.088  -6.426   3.691  0.00  0.00    +0.710 C 
ATOM      7  O   LIG    1       -0.999  -6.303   4.897  0.00  0.00    -0.590 OA
ATOM      8  N   LIG    1       -1.170  -7.654   3.143  0.00  0.00    -0.870 N 
ATOM      9  H   LIG    1       -1.230  -8.437   3.713  0.00  0.00    +0.420 HD
ATOM     10  H   LIG    1       -1.169  -7.756   2.178  0.00  0.00    +0.400 HD
ATOM     11  C   LIG    1        0.076  -4.665   0.878  0.00  0.00    +0.290 C 
ENDROOT
BRANCH   1  16
ATOM     12  C   LIG    1       -0.022   1.463   0.014  0.00  0.00    +0.330 C 
ATOM     13  N   LIG    1        0.001  -0.002   0.006  0.00  0.00    -0.590 N 
ATOM     14  C   LIG    1        0.013  -0.768  -1.098  0.00  0.00    +0.570 C 
ATOM     15  C   LIG    1        0.035  -2.178  -0.698  0.00  0.00    -0.140 C 
ATOM     16  C   LIG    1        0.036  -2.201   0.659  0.00  0.00    +0.180 C 
ATOM     17  O   LIG    1        0.006  -0.359  -2.243  0.00  0.00    -0.470 OA
ATOM     18  C   LIG    1        0.020  -0.781   1.103  0.00  0.00    +0.560 C 
ATOM     19  O   LIG    1        0.017  -0.393   2.252  0.00  0.00    -0.460 OA
ENDBRANCH   1  16
TORSDOF 1
ENDMDL
MODEL     1408
REMARK  Name = ZINC000000033903
REMARK                            x       y       z     vdW  Elec       q    Type
REMARK                         _______ _______ _______ _____ _____    ______ ____
ROOT
ATOM      1  O   LIG    1        0.002  -0.004   0.002  0.00  0.00    -0.490 OA
ATOM      2  C   LIG    1       -0.014   1.214   0.009  0.00  0.00    +0.540 A 
ATOM      3  N   LIG    1       -1.188   1.878   0.029  0.00  0.00    -0.650 N 
ATOM      4  H   LIG    1       -2.022   1.384   0.038  0.00  0.00    +0.440 HD
ATOM      5  C   LIG    1       -1.206   3.224   0.037  0.00  0.00    +0.700 A 
ATOM      6  N   LIG    1       -0.062   3.932   0.024  0.00  0.00    -0.520 N 
ATOM      7  C   LIG    1        1.153   3.295   0.004  0.00  0.00    +0.330 A 
ATOM      8  O   LIG    1       -2.272   3.808   0.055  0.00  0.00    -0.530 OA
ATOM      9  C   LIG    1        1.199   1.946   0.001  0.00  0.00    -0.070 A 
ATOM     10  F   LIG    1        2.387   1.302  -0.018  0.00  0.00    -0.100 F 
ENDROOT
BRANCH   6  11
ATOM     11  C   LIG    1       -0.114   5.396   0.033  0.00  0.00    +0.300 C 
BRANCH  11  12
ATOM     12  C   LIG    1       -0.111   5.897   1.479  0.00  0.00    +0.200 C 
BRANCH  12  13
ATOM     13  O   LIG    1       -1.251   5.376   2.166  0.00  0.00    -0.540 OA
ATOM     14  H   LIG    1       -2.097   5.633   1.776  0.00  0.00    +0.380 HD
ENDBRANCH  12  13
BRANCH  12  15
ATOM     15  C   LIG    1       -0.166   7.426   1.488  0.00  0.00    +0.170 C 
BRANCH  15  16
ATOM     16  O   LIG    1       -0.046   7.899   2.832  0.00  0.00    -0.560 OA
ATOM     17  H   LIG    1       -0.073   8.862   2.913  0.00  0.00    +0.380 HD
ENDBRANCH  15  16
ENDBRANCH  12  15
ENDBRANCH  11  12
ENDBRANCH   6  11
TORSDOF 5
ENDMDL
MODEL     1409
REMARK  Name = ZINC000000033904
REMARK                            x       y       z     vdW  Elec       q    Type
REMARK                         _______ _______ _______ _____ _____    ______ ____
ROOT
ATOM      1  O   LIG    1        0.002  -0.004   0.002  0.00  0.00    -0.490 OA
ATOM      2  C   LIG    1       -0.014   1.214   0.009  0.00  0.00    +0.540 A 
ATOM      3  N   LIG    1       -1.188   1.878   0.029  0.00  0.00    -0.650 N 
ATOM      4  H   LIG    1       -2.022   1.384   0.038  0.00  0.00    +0.440 HD
ATOM      5  C   LIG    1       -1.206   3.224   0.037  0.00  0.00    +0.700 A 
ATOM      6  N   LIG    1       -0.062   3.932   0.024  0.00  0.00    -0.520 N 
ATOM      7  C   LIG    1        1.153   3.295   0.004  0.00  0.00    +0.340 A 
ATOM      8  O   LIG    1       -2.272   3.808   0.055  0.00  0.00    -0.530 OA
ATOM      9  C   LIG    1        1.199   1.946   0.001  0.00  0.00    -0.070 A 
ATOM     10  F   LIG    1        2.387   1.302  -0.018  0.00  0.00    -0.100 F 
ENDROOT
BRANCH   6  11
ATOM     11  C   LIG    1       -0.114   5.396   0.033  0.00  0.00    +0.310 C 
BRANCH  11  12
ATOM     12  C   LIG    1       -0.111   5.897   1.479  0.00  0.00    +0.210 C 
BRANCH  12  13
ATOM     13  O   LIG    1        1.131   5.559   2.098  0.00  0.00    -0.540 OA
ATOM     14  H   LIG    1        1.905   5.942   1.662  0.00  0.00    +0.370 HD
ENDBRANCH  12  13
BRANCH  12  15
ATOM     15  C   LIG    1       -0.291   7.416   1.492  0.00  0.00    +0.160 C 
BRANCH  15  16
ATOM     16  O   LIG    1       -0.406   7.871   2.842  0.00  0.00    -0.560 OA
ATOM     17  H   LIG    1       -0.522   8.827   2.926  0.00  0.00    +0.390 HD
ENDBRANCH  15  16
ENDBRANCH  12  15
ENDBRANCH  11  12
ENDBRANCH   6  11
TORSDOF 5
ENDMDL
MODEL     1410
REMARK  Name = ZINC000067897608
REMARK                            x       y       z     vdW  Elec       q    Type
REMARK                         _______ _______ _______ _____ _____    ______ ____
ROOT
ATOM      1  C   LIG    1       -0.018   1.461   0.010  0.00  0.00    +0.290 C 
ATOM      2  N   LIG    1        0.002  -0.004   0.002  0.00  0.00    -0.600 N 
ATOM      3  C   LIG    1        0.005  -0.628  -1.182  0.00  0.00    +0.490 C 
ATOM      4  C   LIG    1        0.019  -2.130  -1.276  0.00  0.00    +0.280 C 
ATOM      5  O   LIG    1        0.497  -2.673  -0.045  0.00  0.00    -0.360 OA
ATOM      6  C   LIG    1       -0.207  -2.211   1.110  0.00  0.00    +0.170 C 
ATOM      7  C   LIG    1        0.511  -2.778   2.361  0.00  0.00    +0.330 C 
ATOM      8  N   LIG    1        1.680  -1.903   2.561  0.00  0.00    -1.010 NA
ATOM      9  C   LIG    1        1.405  -0.600   1.936  0.00  0.00    +0.270 C 
ATOM     10  O   LIG    1       -0.004   0.031  -2.200  0.00  0.00    -0.530 OA
ATOM     11  C   LIG    1        0.024  -0.694   1.278  0.00  0.00    +0.220 C 
ENDROOT
BRANCH   8  12
ATOM     12  S   LIG    1        3.072  -2.317   3.357  0.00  0.00    +2.630 S 
ATOM     13  O   LIG    1        2.667  -3.332   4.266  0.00  0.00    -0.950 OA
ATOM     14  O   LIG    1        3.590  -1.079   3.824  0.00  0.00    -0.950 OA
ATOM     15  C   LIG    1        4.142  -3.009   2.066  0.00  0.00    -0.280 C 
ENDBRANCH   8  12
TORSDOF 1
ENDMDL
MODEL     1411
REMARK  Name = ZINC000001065756
REMARK                            x       y       z     vdW  Elec       q    Type
REMARK                         _______ _______ _______ _____ _____    ______ ____
ROOT
ATOM      1  C   LIG    1       -0.018   1.461   0.010  0.00  0.00    +0.340 C 
ATOM      2  N   LIG    1        0.002  -0.004   0.002  0.00  0.00    -0.620 N 
ATOM      3  C   LIG    1        0.009  -0.843  -1.088  0.00  0.00    +0.730 C 
ATOM      4  N   LIG    1       -0.330  -2.123  -0.750  0.00  0.00    -0.630 N 
ATOM      5  C   LIG    1       -0.903  -2.043   0.587  0.00  0.00    +0.430 C 
ATOM      6  N   LIG    1       -0.571  -3.017   1.617  0.00  0.00    -0.630 N 
ATOM      7  C   LIG    1       -0.362  -2.260   2.764  0.00  0.00    +0.730 C 
ATOM      8  O   LIG    1       -0.340  -2.729   3.886  0.00  0.00    -0.510 OA
ATOM      9  N   LIG    1       -0.183  -0.929   2.487  0.00  0.00    -0.600 N 
ATOM     10  O   LIG    1        0.285  -0.488  -2.218  0.00  0.00    -0.520 OA
ATOM     11  C   LIG    1        0.024  -0.872   1.104  0.00  0.00    +0.380 C 
ENDROOT
BRANCH   6  12
ATOM     12  C   LIG    1       -0.475  -4.473   1.490  0.00  0.00    +0.480 C 
BRANCH  12  13
ATOM     13  O   LIG    1       -1.622  -5.080   2.089  0.00  0.00    -0.590 OA
ATOM     14  H   LIG    1       -1.626  -6.046   2.042  0.00  0.00    +0.400 HD
ENDBRANCH  12  13
ENDBRANCH   6  12
BRANCH   9  15
ATOM     15  C   LIG    1       -0.205   0.190   3.432  0.00  0.00    +0.490 C 
BRANCH  15  16
ATOM     16  O   LIG    1       -1.554   0.465   3.814  0.00  0.00    -0.590 OA
ATOM     17  H   LIG    1       -1.645   1.196   4.441  0.00  0.00    +0.400 HD
ENDBRANCH  15  16
ENDBRANCH   9  15
BRANCH   4  18
ATOM     18  C   LIG    1       -0.153  -3.328  -1.565  0.00  0.00    +0.490 C 
BRANCH  18  19
ATOM     19  O   LIG    1        1.226  -3.703  -1.567  0.00  0.00    -0.590 OA
ATOM     20  H   LIG    1        1.417  -4.495  -2.088  0.00  0.00    +0.400 HD
ENDBRANCH  18  19
ENDBRANCH   4  18
TORSDOF 6
ENDMDL
MODEL     1412
REMARK  Name = ZINC000001065760
REMARK                            x       y       z     vdW  Elec       q    Type
REMARK                         _______ _______ _______ _____ _____    ______ ____
ROOT
ATOM      1  C   LIG    1       -0.018   1.461   0.010  0.00  0.00    +0.340 C 
ATOM      2  N   LIG    1        0.002  -0.004   0.002  0.00  0.00    -0.610 N 
ATOM      3  C   LIG    1        0.009  -0.834  -1.092  0.00  0.00    +0.730 C 
ATOM      4  N   LIG    1        0.269  -2.133  -0.747  0.00  0.00    -0.630 N 
ATOM      5  C   LIG    1        0.892  -2.060   0.573  0.00  0.00    +0.430 C 
ATOM      6  N   LIG    1        0.552  -3.026   1.610  0.00  0.00    -0.630 N 
ATOM      7  C   LIG    1        0.375  -2.272   2.757  0.00  0.00    +0.730 C 
ATOM      8  O   LIG    1        0.349  -2.745   3.877  0.00  0.00    -0.510 OA
ATOM      9  N   LIG    1        0.238  -0.934   2.487  0.00  0.00    -0.600 N 
ATOM     10  O   LIG    1       -0.191  -0.459  -2.231  0.00  0.00    -0.520 OA
ATOM     11  C   LIG    1        0.024  -0.862   1.108  0.00  0.00    +0.370 C 
ENDROOT
BRANCH   6  12
ATOM     12  C   LIG    1        0.410  -4.478   1.480  0.00  0.00    +0.500 C 
BRANCH  12  13
ATOM     13  O   LIG    1       -0.977  -4.824   1.483  0.00  0.00    -0.590 OA
ATOM     14  H   LIG    1       -1.146  -5.772   1.400  0.00  0.00    +0.400 HD
ENDBRANCH  12  13
ENDBRANCH   6  12
BRANCH   9  15
ATOM     15  C   LIG    1        0.300   0.178   3.439  0.00  0.00    +0.480 C 
BRANCH  15  16
ATOM     16  O   LIG    1       -0.907   0.221   4.202  0.00  0.00    -0.580 OA
ATOM     17  H   LIG    1       -0.936   0.935   4.854  0.00  0.00    +0.400 HD
ENDBRANCH  15  16
ENDBRANCH   9  15
BRANCH   4  18
ATOM     18  C   LIG    1       -0.015  -3.337  -1.532  0.00  0.00    +0.490 C 
BRANCH  18  19
ATOM     19  O   LIG    1        0.929  -3.443  -2.599  0.00  0.00    -0.590 OA
ATOM     20  H   LIG    1        0.801  -4.219  -3.162  0.00  0.00    +0.400 HD
ENDBRANCH  18  19
ENDBRANCH   4  18
TORSDOF 6
ENDMDL
MODEL     1413
REMARK  Name = ZINC000001065759
REMARK                            x       y       z     vdW  Elec       q    Type
REMARK                         _______ _______ _______ _____ _____    ______ ____
ROOT
ATOM      1  C   LIG    1       -0.018   1.461   0.010  0.00  0.00    +0.350 C 
ATOM      2  N   LIG    1        0.002  -0.004   0.002  0.00  0.00    -0.630 N 
ATOM      3  C   LIG    1        0.008  -0.772  -1.095  0.00  0.00    +0.710 C 
ATOM      4  N   LIG    1        0.028  -2.086  -0.838  0.00  0.00    -0.630 N 
ATOM      5  C   LIG    1        0.037  -2.298   0.617  0.00  0.00    +0.470 C 
ATOM      6  N   LIG    1        1.339  -2.840   1.029  0.00  0.00    -0.620 N 
ATOM      7  C   LIG    1        2.001  -1.894   1.728  0.00  0.00    +0.710 C 
ATOM      8  O   LIG    1        3.111  -2.071   2.192  0.00  0.00    -0.550 OA
ATOM      9  N   LIG    1        1.326  -0.746   1.870  0.00  0.00    -0.620 N 
ATOM     10  O   LIG    1       -0.003  -0.318  -2.222  0.00  0.00    -0.560 OA
ATOM     11  C   LIG    1        0.025  -0.860   1.196  0.00  0.00    +0.480 C 
ENDROOT
BRANCH   6  12
ATOM     12  C   LIG    1        1.847  -4.181   0.728  0.00  0.00    +0.490 C 
BRANCH  12  13
ATOM     13  O   LIG    1        1.780  -4.990   1.904  0.00  0.00    -0.590 OA
ATOM     14  H   LIG    1        2.100  -5.894   1.779  0.00  0.00    +0.400 HD
ENDBRANCH  12  13
ENDBRANCH   6  12
BRANCH   9  15
ATOM     15  C   LIG    1        1.809   0.438   2.586  0.00  0.00    +0.490 C 
BRANCH  15  16
ATOM     16  O   LIG    1        1.732   0.207   3.994  0.00  0.00    -0.590 OA
ATOM     17  H   LIG    1        2.036   0.951   4.532  0.00  0.00    +0.400 HD
ENDBRANCH  15  16
ENDBRANCH   9  15
BRANCH   4  18
ATOM     18  C   LIG    1        0.038  -3.147  -1.848  0.00  0.00    +0.490 C 
BRANCH  18  19
ATOM     19  O   LIG    1        1.339  -3.232  -2.435  0.00  0.00    -0.580 OA
ATOM     20  H   LIG    1        1.419  -3.916  -3.114  0.00  0.00    +0.400 HD
ENDBRANCH  18  19
ENDBRANCH   4  18
TORSDOF 6
ENDMDL
MODEL     1414
REMARK  Name = ZINC000000405339
REMARK                            x       y       z     vdW  Elec       q    Type
REMARK                         _______ _______ _______ _____ _____    ______ ____
ROOT
ATOM      1  O   LIG    1        0.002  -0.004   0.002  0.00  0.00    -0.510 OA
ATOM      2  C   LIG    1       -0.014   1.214   0.009  0.00  0.00    +0.530 A 
ATOM      3  N   LIG    1       -1.188   1.878   0.029  0.00  0.00    -0.650 N 
ATOM      4  H   LIG    1       -2.022   1.384   0.038  0.00  0.00    +0.440 HD
ATOM      5  C   LIG    1       -1.207   3.224   0.037  0.00  0.00    +0.690 A 
ATOM      6  N   LIG    1       -0.064   3.933   0.024  0.00  0.00    -0.520 N 
ATOM      7  C   LIG    1        1.153   3.298   0.004  0.00  0.00    +0.290 A 
ATOM      8  O   LIG    1       -2.273   3.807   0.055  0.00  0.00    -0.520 OA
ATOM      9  C   LIG    1        1.201   1.946   0.001  0.00  0.00    -0.040 A 
ENDROOT
BRANCH   6  10
ATOM     10  C1* LIG    1       -0.118   5.397   0.033  0.00  0.00    +0.430 C 
ATOM     11  C2* LIG    1       -0.802   5.918  -1.256  0.00  0.00    +0.010 C 
ATOM     12  C3* LIG    1       -1.325   7.298  -0.775  0.00  0.00    +0.170 C 
ATOM     13  C4* LIG    1       -1.683   7.017   0.701  0.00  0.00    +0.210 C 
ATOM     14  O4* LIG    1       -0.946   5.859   1.113  0.00  0.00    -0.350 OA
BRANCH  12  15
ATOM     15  O3* LIG    1       -0.303   8.293  -0.874  0.00  0.00    -0.560 OA
ATOM     16  H3* LIG    1        0.015   8.441  -1.774  0.00  0.00    +0.390 HD
ENDBRANCH  12  15
BRANCH  13  17
ATOM     17  C5* LIG    1       -1.292   8.216   1.567  0.00  0.00    +0.200 C 
BRANCH  17  18
ATOM     18  O5* LIG    1       -1.732   7.997   2.909  0.00  0.00    -0.570 OA
ATOM     19  H5* LIG    1       -1.517   8.719   3.516  0.00  0.00    +0.380 HD
ENDBRANCH  17  18
ENDBRANCH  13  17
ENDBRANCH   6  10
BRANCH   9  20
ATOM     20  O   LIG    1        2.399   1.298  -0.019  0.00  0.00    -0.450 OA
ATOM     21  H   LIG    1        2.324   0.334  -0.019  0.00  0.00    +0.410 HD
ENDBRANCH   9  20
TORSDOF 5
ENDMDL
MODEL     1415
REMARK  Name = ZINC000006090954
REMARK                            x       y       z     vdW  Elec       q    Type
REMARK                         _______ _______ _______ _____ _____    ______ ____
ROOT
ATOM      1  O   LIG    1        0.002  -0.004   0.002  0.00  0.00    -0.510 OA
ATOM      2  C   LIG    1       -0.014   1.214   0.009  0.00  0.00    +0.530 A 
ATOM      3  N   LIG    1       -1.188   1.878   0.029  0.00  0.00    -0.650 N 
ATOM      4  H   LIG    1       -2.022   1.384   0.038  0.00  0.00    +0.440 HD
ATOM      5  C   LIG    1       -1.207   3.224   0.037  0.00  0.00    +0.690 A 
ATOM      6  N   LIG    1       -0.064   3.933   0.024  0.00  0.00    -0.520 N 
ATOM      7  C   LIG    1        1.153   3.298   0.004  0.00  0.00    +0.300 A 
ATOM      8  O   LIG    1       -2.273   3.807   0.055  0.00  0.00    -0.520 OA
ATOM      9  C   LIG    1        1.201   1.946   0.001  0.00  0.00    -0.030 A 
ENDROOT
BRANCH   6  10
ATOM     10  C1* LIG    1       -0.118   5.397   0.033  0.00  0.00    +0.430 C 
ATOM     11  C2* LIG    1       -0.803   5.918  -1.250  0.00  0.00    +0.010 C 
ATOM     12  C3* LIG    1       -1.624   7.135  -0.769  0.00  0.00    +0.160 C 
ATOM     13  C4* LIG    1       -1.338   7.206   0.747  0.00  0.00    +0.190 C 
ATOM     14  O4* LIG    1       -0.953   5.862   1.116  0.00  0.00    -0.350 OA
BRANCH  12  15
ATOM     15  O3* LIG    1       -1.181   8.327  -1.421  0.00  0.00    -0.560 OA
ATOM     16  H3* LIG    1       -1.283   8.310  -2.383  0.00  0.00    +0.390 HD
ENDBRANCH  12  15
BRANCH  13  17
ATOM     17  C5* LIG    1       -2.596   7.630   1.508  0.00  0.00    +0.210 C 
BRANCH  17  18
ATOM     18  O5* LIG    1       -2.281   7.803   2.891  0.00  0.00    -0.570 OA
ATOM     19  H5* LIG    1       -3.034   8.072   3.435  0.00  0.00    +0.380 HD
ENDBRANCH  17  18
ENDBRANCH  13  17
ENDBRANCH   6  10
BRANCH   9  20
ATOM     20  O   LIG    1        2.399   1.298  -0.019  0.00  0.00    -0.450 OA
ATOM     21  H   LIG    1        2.324   0.334  -0.019  0.00  0.00    +0.410 HD
ENDBRANCH   9  20
TORSDOF 5
ENDMDL
MODEL     1416
REMARK  Name = ZINC000000539993
REMARK                            x       y       z     vdW  Elec       q    Type
REMARK                         _______ _______ _______ _____ _____    ______ ____
ROOT
ATOM      1  N   LIG    1        1.398  -2.528   2.296  0.00  0.00    -0.620 N 
ATOM      2  C   LIG    1        2.663  -2.203   2.592  0.00  0.00    +0.710 C 
ATOM      3  N   LIG    1        3.094  -2.704   3.757  0.00  0.00    -0.740 N 
ATOM      4  H   LIG    1        3.979  -2.572   4.131  0.00  0.00    +0.430 HD
ATOM      5  C   LIG    1        2.015  -3.484   4.380  0.00  0.00    +0.470 C 
ATOM      6  N   LIG    1        2.364  -4.912   4.362  0.00  0.00    -0.740 N 
ATOM      7  H   LIG    1        3.063  -5.325   4.892  0.00  0.00    +0.440 HD
ATOM      8  C   LIG    1        1.565  -5.552   3.499  0.00  0.00    +0.710 C 
ATOM      9  N   LIG    1        0.677  -4.758   2.888  0.00  0.00    -0.740 N 
ATOM     10  H   LIG    1        0.022  -5.048   2.235  0.00  0.00    +0.430 HD
ATOM     11  O   LIG    1        1.639  -6.747   3.290  0.00  0.00    -0.570 OA
ATOM     12  O   LIG    1        3.357  -1.515   1.869  0.00  0.00    -0.550 OA
ATOM     13  C   LIG    1        0.843  -3.357   3.375  0.00  0.00    +0.480 C 
ENDROOT
BRANCH   1  14
ATOM     14  C   LIG    1        0.679  -2.115   1.088  0.00  0.00    +0.320 C 
ATOM     15  C   LIG    1        1.409  -2.646  -0.147  0.00  0.00    +0.090 C 
BRANCH  14  16
ATOM     16  C   LIG    1        0.618  -0.611   1.029  0.00  0.00    +0.450 C 
ATOM     17  O   LIG    1        1.124   0.049   1.905  0.00  0.00    -0.480 OA
BRANCH  16  19
ATOM     18  C   LIG    1       -0.018   1.448   0.010  0.00  0.00    +0.260 C 
ATOM     19  O   LIG    1        0.002  -0.004   0.002  0.00  0.00    -0.360 OA
ENDBRANCH  16  19
ENDBRANCH  14  16
ENDBRANCH   1  14
TORSDOF 3
ENDMDL
MODEL     1417
REMARK  Name = ZINC000002522617
REMARK                            x       y       z     vdW  Elec       q    Type
REMARK                         _______ _______ _______ _____ _____    ______ ____
ROOT
ATOM      1  C   LEU A  1        3.163  -0.915  -2.097  0.00  0.00    +0.510 C 
ATOM      2  N   ASN A  2        3.466  -2.225  -2.015  0.00  0.00    -0.650 N 
ATOM      3  H   ASN A  2        3.083  -2.768  -1.308  0.00  0.00    +0.390 HD
ATOM      4  O   LEU A  1        3.642  -0.236  -2.981  0.00  0.00    -0.540 OA
ENDROOT
BRANCH   1   5
ATOM      5  CA  LEU A  1        2.230  -0.292  -1.091  0.00  0.00    +0.170 C 
BRANCH   5   6
ATOM      6  N   LEU A  1        2.424   1.164  -1.079  0.00  0.00    -0.620 N 
ATOM      7  H1  LEU A  1        2.133   1.550  -1.965  0.00  0.00    +0.440 HD
ATOM      8  H2  LEU A  1        3.400   1.373  -0.926  0.00  0.00    +0.440 HD
ATOM      9  H3  LEU A  1        1.874   1.571  -0.338  0.00  0.00    +0.430 HD
ENDBRANCH   5   6
BRANCH   5  10
ATOM     10  CB  LEU A  1        0.783  -0.611  -1.471  0.00  0.00    +0.080 C 
BRANCH  10  12
ATOM     11  CD1 LEU A  1       -1.608  -0.283  -0.826  0.00  0.00    +0.040 C 
ATOM     12  CG  LEU A  1       -0.157  -0.094  -0.380  0.00  0.00    -0.040 C 
ATOM     13  CD2 LEU A  1        0.085  -0.875   0.913  0.00  0.00    +0.030 C 
ENDBRANCH  10  12
ENDBRANCH   5  10
ENDBRANCH   1   5
BRANCH   2  14
ATOM     14  CA  ASN A  2        4.373  -2.831  -2.993  0.00  0.00    +0.190 C 
BRANCH  14  15
ATOM     15  C   ASN A  2        3.593  -3.236  -4.217  0.00  0.00    +0.490 C 
ATOM     16  OXT ASN A  2        4.164  -3.762  -5.157  0.00  0.00    -0.680 OA
ATOM     17  O   ASN A  2        2.391  -3.037  -4.268  0.00  0.00    -0.680 OA
ENDBRANCH  14  15
BRANCH  14  18
ATOM     18  CB  ASN A  2        5.035  -4.066  -2.378  0.00  0.00    +0.080 C 
BRANCH  18  19
ATOM     19  CG  ASN A  2        5.913  -3.645  -1.228  0.00  0.00    +0.520 C 
ATOM     20  OD1 ASN A  2        6.000  -2.473  -0.929  0.00  0.00    -0.550 OA
ATOM     21  ND2 ASN A  2        6.601  -4.571  -0.532  0.00  0.00    -0.860 N 
ATOM     22 HD21 ASN A  2        7.166  -4.300   0.209  0.00  0.00    +0.400 HD
ATOM     23 HD22 ASN A  2        6.531  -5.508  -0.771  0.00  0.00    +0.400 HD
ENDBRANCH  18  19
ENDBRANCH  14  18
ENDBRANCH   2  14
TORSDOF 8
ENDMDL
MODEL     1418
REMARK  Name = ZINC000020470430
REMARK                            x       y       z     vdW  Elec       q    Type
REMARK                         _______ _______ _______ _____ _____    ______ ____
ROOT
ATOM      1  C   LIG    1       -0.018   1.461   0.010  0.00  0.00    +0.340 C 
ATOM      2  N   LIG    1        0.002  -0.004   0.002  0.00  0.00    -0.580 N 
ATOM      3  C   LIG    1       -1.179  -0.687   0.004  0.00  0.00    +0.540 C 
ATOM      4  C   LIG    1       -1.049  -2.171  -0.078  0.00  0.00    +0.170 C 
ATOM      5  C   LIG    1        0.095  -2.533   0.922  0.00  0.00    +0.360 C 
ATOM      6  N   LIG    1        1.303  -1.954   0.399  0.00  0.00    -0.610 N 
ATOM      7  C   LIG    1        2.560  -2.702   0.325  0.00  0.00    +0.330 C 
ATOM      8  N   LIG    1       -0.110  -3.955   1.055  0.00  0.00    -0.540 NA
ATOM      9  C   LIG    1       -1.381  -4.185   0.824  0.00  0.00    +0.590 C 
ATOM     10  N   LIG    1       -2.090  -3.022   0.494  0.00  0.00    -0.640 N 
ATOM     11  O   LIG    1       -2.254  -0.130   0.068  0.00  0.00    -0.470 OA
ATOM     12  C   LIG    1        1.187  -0.647  -0.013  0.00  0.00    +0.710 C 
ATOM     13  O   LIG    1        2.176  -0.059  -0.406  0.00  0.00    -0.530 OA
ENDROOT
BRANCH  10  14
ATOM     14  C   LIG    1       -3.511  -2.730   0.698  0.00  0.00    +0.340 C 
BRANCH  14  15
ATOM     15  C   LIG    1       -3.706  -2.078   2.068  0.00  0.00    +0.000 C 
BRANCH  15  16
ATOM     16  C   LIG    1       -5.190  -1.772   2.280  0.00  0.00    +0.180 C 
BRANCH  16  17
ATOM     17  O   LIG    1       -5.372  -1.163   3.560  0.00  0.00    -0.570 OA
ATOM     18  H   LIG    1       -6.292  -0.942   3.763  0.00  0.00    +0.380 HD
ENDBRANCH  16  17
ENDBRANCH  15  16
ENDBRANCH  14  15
ENDBRANCH  10  14
TORSDOF 4
ENDMDL
MODEL     1419
REMARK  Name = ZINC000263621910
REMARK                            x       y       z     vdW  Elec       q    Type
REMARK                         _______ _______ _______ _____ _____    ______ ____
ROOT
ATOM      1  C   LIG    1       -0.018   1.461   0.010  0.00  0.00    +0.330 C 
ATOM      2  N   LIG    1        0.002  -0.004   0.002  0.00  0.00    -0.570 N 
ATOM      3  C   LIG    1        0.007  -0.721  -1.127  0.00  0.00    +0.540 C 
ATOM      4  C   LIG    1        0.028  -2.194  -0.790  0.00  0.00    -0.010 C 
ATOM      5  C   LIG    1        1.428  -2.766  -1.162  0.00  0.00    +0.240 C 
ATOM      6  O   LIG    1        2.248  -2.263  -0.057  0.00  0.00    -0.350 OA
ATOM      7  C   LIG    1        1.475  -2.776   1.077  0.00  0.00    +0.240 C 
ATOM      8  C   LIG    1        1.391  -4.292   0.727  0.00  0.00    +0.130 C 
ATOM      9  C   LIG    1        1.351  -4.289  -0.840  0.00  0.00    +0.140 C 
ATOM     10  C   LIG    1        0.036  -2.203   0.769  0.00  0.00    +0.010 C 
ATOM     11  O   LIG    1       -0.003  -0.260  -2.248  0.00  0.00    -0.470 OA
ATOM     12  C   LIG    1        0.023  -0.733   1.123  0.00  0.00    +0.540 C 
ATOM     13  O   LIG    1        0.043  -0.284   2.249  0.00  0.00    -0.470 OA
ENDROOT
BRANCH   8  14
ATOM     14  O   LIG    1        2.542  -4.988   1.209  0.00  0.00    -0.540 OA
ATOM     15  H   LIG    1        2.538  -5.936   1.017  0.00  0.00    +0.380 HD
ENDBRANCH   8  14
BRANCH   9  16
ATOM     16  O   LIG    1        2.479  -4.984  -1.376  0.00  0.00    -0.540 OA
ATOM     17  H   LIG    1        2.523  -5.916  -1.124  0.00  0.00    +0.380 HD
ENDBRANCH   9  16
TORSDOF 2
ENDMDL
MODEL     1420
REMARK  Name = ZINC000002522559
REMARK                            x       y       z     vdW  Elec       q    Type
REMARK                         _______ _______ _______ _____ _____    ______ ____
ROOT
ATOM      1  CA  ALA A  2       -3.465  -1.164  -1.134  0.00  0.00    +0.240 C 
ATOM      2  CB  ALA A  2       -3.485  -2.571  -0.532  0.00  0.00    +0.070 C 
ENDROOT
BRANCH   1   5
ATOM      3  N   ALA A  3       -1.372  -0.511   0.012  0.00  0.00    -0.680 N 
ATOM      4  H   ALA A  3       -1.794  -0.752   0.852  0.00  0.00    +0.410 HD
ATOM      5  C   ALA A  2       -2.051  -0.643  -1.145  0.00  0.00    +0.500 C 
ATOM      6  O   ALA A  2       -1.524  -0.341  -2.194  0.00  0.00    -0.560 OA
BRANCH   3   8
ATOM      7  CB  ALA A  3       -0.019   1.526   0.010  0.00  0.00    +0.030 C 
ATOM      8  CA  ALA A  3        0.002  -0.004   0.002  0.00  0.00    +0.160 C 
BRANCH   8   9
ATOM      9  C   ALA A  3        0.731  -0.503   1.223  0.00  0.00    +0.490 C 
ATOM     10  OXT ALA A  3        1.935  -0.690   1.180  0.00  0.00    -0.680 OA
ATOM     11  O   ALA A  3        0.117  -0.721   2.253  0.00  0.00    -0.690 OA
ENDBRANCH   8   9
ENDBRANCH   3   8
ENDBRANCH   1   5
BRANCH   1  12
ATOM     12  N   ALA A  2       -3.978  -1.213  -2.505  0.00  0.00    -0.680 N 
ATOM     13  H   ALA A  2       -3.362  -1.290  -3.251  0.00  0.00    +0.420 HD
ATOM     14  C   GLY A  1       -5.305  -1.151  -2.731  0.00  0.00    +0.500 C 
ATOM     15  O   GLY A  1       -6.075  -1.054  -1.799  0.00  0.00    -0.540 OA
BRANCH  14  16
ATOM     16  CA  GLY A  1       -5.832  -1.201  -4.142  0.00  0.00    +0.300 C 
BRANCH  16  17
ATOM     17  N   GLY A  1       -7.299  -1.116  -4.119  0.00  0.00    -0.620 N 
ATOM     18  H1  GLY A  1       -7.672  -1.892  -3.593  0.00  0.00    +0.440 HD
ATOM     19  H2  GLY A  1       -7.652  -1.150  -5.064  0.00  0.00    +0.440 HD
ATOM     20  H3  GLY A  1       -7.579  -0.249  -3.686  0.00  0.00    +0.440 HD
ENDBRANCH  16  17
ENDBRANCH  14  16
ENDBRANCH   1  12
TORSDOF 6
ENDMDL
MODEL     1421
REMARK  Name = ZINC000020470428
REMARK                            x       y       z     vdW  Elec       q    Type
REMARK                         _______ _______ _______ _____ _____    ______ ____
ROOT
ATOM      1  C   LIG    1       -0.018   1.461   0.010  0.00  0.00    +0.340 C 
ATOM      2  N   LIG    1        0.002  -0.004   0.002  0.00  0.00    -0.580 N 
ATOM      3  C   LIG    1       -1.179  -0.687   0.004  0.00  0.00    +0.540 C 
ATOM      4  C   LIG    1       -1.048  -2.172   0.068  0.00  0.00    +0.170 C 
ATOM      5  C   LIG    1        0.086  -2.522  -0.948  0.00  0.00    +0.360 C 
ATOM      6  N   LIG    1        1.299  -1.950  -0.430  0.00  0.00    -0.610 N 
ATOM      7  C   LIG    1        2.557  -2.698  -0.377  0.00  0.00    +0.340 C 
ATOM      8  N   LIG    1       -0.120  -3.943  -1.094  0.00  0.00    -0.540 NA
ATOM      9  C   LIG    1       -1.389  -4.175  -0.853  0.00  0.00    +0.590 C 
ATOM     10  N   LIG    1       -2.094  -3.017  -0.503  0.00  0.00    -0.640 N 
ATOM     11  O   LIG    1       -2.255  -0.129  -0.043  0.00  0.00    -0.470 OA
ATOM     12  C   LIG    1        1.187  -0.647  -0.013  0.00  0.00    +0.710 C 
ATOM     13  O   LIG    1        2.179  -0.061   0.376  0.00  0.00    -0.530 OA
ENDROOT
BRANCH  10  14
ATOM     14  C   LIG    1       -3.518  -2.722  -0.689  0.00  0.00    +0.340 C 
BRANCH  14  15
ATOM     15  C   LIG    1       -4.299  -3.186   0.542  0.00  0.00    +0.000 C 
BRANCH  15  16
ATOM     16  C   LIG    1       -5.785  -2.879   0.348  0.00  0.00    +0.180 C 
BRANCH  16  17
ATOM     17  O   LIG    1       -6.515  -3.312   1.498  0.00  0.00    -0.570 OA
ATOM     18  H   LIG    1       -7.467  -3.148   1.444  0.00  0.00    +0.380 HD
ENDBRANCH  16  17
ENDBRANCH  15  16
ENDBRANCH  14  15
ENDBRANCH  10  14
TORSDOF 4
ENDMDL
MODEL     1422
REMARK  Name = ZINC000090195127
REMARK                            x       y       z     vdW  Elec       q    Type
REMARK                         _______ _______ _______ _____ _____    ______ ____
ROOT
ATOM      1  C   LIG    1        0.673  -0.582   1.123  0.00  0.00    +0.340 C 
ATOM      2  O   LIG    1       -0.128  -0.442   2.316  0.00  0.00    -0.360 OA
ATOM      3  C   LIG    1        0.367  -1.446   3.228  0.00  0.00    +0.190 C 
ATOM      4  C   LIG    1        0.622  -2.689   2.346  0.00  0.00    +0.040 C 
ATOM      5  C   LIG    1       -0.379  -2.998   1.231  0.00  0.00    -0.050 C 
ATOM      6  C   LIG    1       -1.750  -2.322   1.308  0.00  0.00    +0.080 C 
ATOM      7  C   LIG    1       -0.373  -4.413   0.651  0.00  0.00    +0.100 C 
ATOM      8  C   LIG    1        0.831  -2.107   0.928  0.00  0.00    +0.000 C 
ENDROOT
BRANCH   1  10
ATOM      9  C   LIG    1       -0.017   1.425   0.010  0.00  0.00    +0.220 C 
ATOM     10  O   LIG    1        0.002  -0.004   0.002  0.00  0.00    -0.360 OA
ENDBRANCH   1  10
BRANCH   4  11
ATOM     11  O   LIG    1        1.452  -3.724   2.876  0.00  0.00    -0.500 OA
ATOM     12  H   LIG    1        2.085  -3.420   3.541  0.00  0.00    +0.390 HD
ENDBRANCH   4  11
BRANCH   8  13
ATOM     13  O   LIG    1        1.846  -2.567   0.034  0.00  0.00    -0.500 OA
ATOM     14  H   LIG    1        1.866  -2.100  -0.813  0.00  0.00    +0.390 HD
ENDBRANCH   8  13
BRANCH   3  15
ATOM     15  C   LIG    1       -0.680  -1.757   4.299  0.00  0.00    +0.220 C 
BRANCH  15  16
ATOM     16  O   LIG    1       -0.867  -0.609   5.129  0.00  0.00    -0.570 OA
ATOM     17  H   LIG    1       -1.519  -0.734   5.832  0.00  0.00    +0.390 HD
ENDBRANCH  15  16
ENDBRANCH   3  15
TORSDOF 5
ENDMDL
MODEL     1423
REMARK  Name = ZINC000005599991
REMARK                            x       y       z     vdW  Elec       q    Type
REMARK                         _______ _______ _______ _____ _____    ______ ____
ROOT
ATOM      1  C   LIG    1       -0.018   1.461   0.010  0.00  0.00    +0.370 C 
ATOM      2  N   LIG    1        0.002  -0.004   0.002  0.00  0.00    -0.560 N 
ATOM      3  C   LIG    1        0.008  -0.778  -1.093  0.00  0.00    +0.560 C 
ATOM      4  N   LIG    1       -0.044  -2.094  -0.826  0.00  0.00    -0.670 N 
ATOM      5  H   LIG    1       -0.007  -2.809  -1.480  0.00  0.00    +0.450 HD
ATOM      6  C   LIG    1       -0.167  -2.261   0.624  0.00  0.00    +0.200 C 
ATOM      7  C   LIG    1        0.675  -3.362   1.181  0.00  0.00    +0.200 C 
ATOM      8  C   LIG    1        1.988  -2.959   1.762  0.00  0.00    +0.130 C 
ATOM      9  C   LIG    1        1.856  -1.700   2.599  0.00  0.00    +0.210 C 
ATOM     10  O   LIG    1        1.236  -0.657   1.887  0.00  0.00    -0.370 OA
ATOM     11  S   LIG    1        0.076  -0.149  -2.683  0.00  0.00    -0.610 S 
ATOM     12  C   LIG    1        0.025  -0.873   1.202  0.00  0.00    +0.420 C 
ENDROOT
BRANCH   7  13
ATOM     13  O   LIG    1       -0.094  -4.000   2.203  0.00  0.00    -0.550 OA
ATOM     14  H   LIG    1        0.322  -4.792   2.571  0.00  0.00    +0.400 HD
ENDBRANCH   7  13
BRANCH   8  15
ATOM     15  O   LIG    1        2.492  -4.015   2.582  0.00  0.00    -0.550 OA
ATOM     16  H   LIG    1        3.360  -3.833   2.969  0.00  0.00    +0.400 HD
ENDBRANCH   8  15
BRANCH   9  17
ATOM     17  C   LIG    1        1.024  -2.016   3.843  0.00  0.00    +0.170 C 
BRANCH  17  18
ATOM     18  O   LIG    1        1.036  -0.891   4.723  0.00  0.00    -0.570 OA
ATOM     19  H   LIG    1        0.527  -1.021   5.535  0.00  0.00    +0.380 HD
ENDBRANCH  17  18
ENDBRANCH   9  17
TORSDOF 4
ENDMDL
MODEL     1424
REMARK  Name = ZINC000002556600
REMARK                            x       y       z     vdW  Elec       q    Type
REMARK                         _______ _______ _______ _____ _____    ______ ____
ROOT
ATOM      1  CA  GLN A  1        0.780  -1.133   3.576  0.00  0.00    +0.170 C 
ENDROOT
BRANCH   1   4
ATOM      2  N   ALA A  2        0.711  -0.489   1.189  0.00  0.00    -0.660 N 
ATOM      3  H   ALA A  2        1.654  -0.707   1.135  0.00  0.00    +0.410 HD
ATOM      4  C   GLN A  1        0.051  -0.633   2.355  0.00  0.00    +0.490 C 
ATOM      5  O   GLN A  1       -1.129  -0.361   2.423  0.00  0.00    -0.540 OA
BRANCH   2   7
ATOM      6  CB  ALA A  2       -0.019   1.526   0.010  0.00  0.00    +0.040 C 
ATOM      7  CA  ALA A  2        0.002  -0.004   0.002  0.00  0.00    +0.150 C 
BRANCH   7   8
ATOM      8  C   ALA A  2        0.707  -0.490  -1.238  0.00  0.00    +0.490 C 
ATOM      9  OXT ALA A  2        0.073  -0.696  -2.259  0.00  0.00    -0.670 OA
ATOM     10  O   ALA A  2        1.912  -0.677  -1.220  0.00  0.00    -0.690 OA
ENDBRANCH   7   8
ENDBRANCH   2   7
ENDBRANCH   1   4
BRANCH   1  11
ATOM     11  N   GLN A  1        0.028  -0.761   4.782  0.00  0.00    -0.620 N 
ATOM     12  H1  GLN A  1       -0.891  -1.175   4.746  0.00  0.00    +0.440 HD
ATOM     13  H2  GLN A  1       -0.058   0.243   4.829  0.00  0.00    +0.440 HD
ATOM     14  H3  GLN A  1        0.516  -1.095   5.599  0.00  0.00    +0.430 HD
ENDBRANCH   1  11
BRANCH   1  15
ATOM     15  CB  GLN A  1        0.910  -2.655   3.506  0.00  0.00    +0.110 C 
BRANCH  15  16
ATOM     16  CG  GLN A  1        1.757  -3.150   4.680  0.00  0.00    +0.040 C 
BRANCH  16  17
ATOM     17  CD  GLN A  1        1.885  -4.650   4.610  0.00  0.00    +0.510 C 
ATOM     18  OE1 GLN A  1        1.351  -5.263   3.710  0.00  0.00    -0.530 OA
ATOM     19  NE2 GLN A  1        2.592  -5.310   5.548  0.00  0.00    -0.850 N 
ATOM     20 HE21 GLN A  1        2.675  -6.276   5.504  0.00  0.00    +0.410 HD
ATOM     21 HE22 GLN A  1        3.019  -4.820   6.268  0.00  0.00    +0.400 HD
ENDBRANCH  16  17
ENDBRANCH  15  16
ENDBRANCH   1  15
TORSDOF 7
ENDMDL
MODEL     1425
REMARK  Name = ZINC000040387278
REMARK                            x       y       z     vdW  Elec       q    Type
REMARK                         _______ _______ _______ _____ _____    ______ ____
ROOT
ATOM      1  N   LIG    1       -1.532  -1.999   0.029  0.00  0.00    -0.560 NA
ATOM      2  C   LIG    1       -1.094  -2.542   1.321  0.00  0.00    +0.400 C 
ATOM      3  N   LIG    1       -1.321  -3.982   1.380  0.00  0.00    -0.650 NA
ATOM      4  C   LIG    1       -2.165  -4.596   0.611  0.00  0.00    +0.640 C 
ATOM      5  N   LIG    1       -2.895  -3.910  -0.334  0.00  0.00    -0.750 N 
ATOM      6  H   LIG    1       -3.388  -4.383  -1.022  0.00  0.00    +0.410 HD
ATOM      7  C   LIG    1       -2.907  -2.440  -0.271  0.00  0.00    +0.430 C 
ENDROOT
BRANCH   4   8
ATOM      8  N   LIG    1       -2.334  -5.954   0.741  0.00  0.00    -1.040 N 
ATOM      9  H   LIG    1       -2.963  -6.421   0.170  0.00  0.00    +0.430 HD
BRANCH   8  10
ATOM     10  S   LIG    1       -1.463  -6.793   1.873  0.00  0.00    +2.620 S 
ATOM     11  O   LIG    1       -0.117  -6.401   1.640  0.00  0.00    -0.920 OA
ATOM     12  O   LIG    1       -1.874  -8.142   1.702  0.00  0.00    -0.950 OA
ATOM     13  C   LIG    1       -2.048  -6.146   3.464  0.00  0.00    -0.270 C 
ENDBRANCH   8  10
ENDBRANCH   4   8
BRANCH   1  14
ATOM     14  C   LIG    1       -1.433  -0.534   0.013  0.00  0.00    +0.170 C 
BRANCH  14  16
ATOM     15  C   LIG    1       -1.405   1.492  -1.450  0.00  0.00    +0.010 C 
ATOM     16  C   LIG    1       -1.436  -0.038  -1.435  0.00  0.00    +0.200 C 
BRANCH  16  17
ATOM     17  O   LIG    1       -0.285  -0.544  -2.114  0.00  0.00    -0.550 OA
ATOM     18  H   LIG    1        0.555  -0.272  -1.720  0.00  0.00    +0.370 HD
ENDBRANCH  16  17
ENDBRANCH  14  16
ENDBRANCH   1  14
TORSDOF 5
ENDMDL
MODEL     1426
REMARK  Name = ZINC000002560968
REMARK                            x       y       z     vdW  Elec       q    Type
REMARK                         _______ _______ _______ _____ _____    ______ ____
ROOT
ATOM      1  N   LIG    1       -0.876  -2.426  -1.433  0.00  0.00    -0.690 N 
ATOM      2  H   LIG    1       -0.936  -1.804  -2.174  0.00  0.00    +0.420 HD
ATOM      3  C   LIG    1       -0.298  -3.631  -1.609  0.00  0.00    +0.510 C 
ATOM      4  O   LIG    1       -0.224  -4.410  -0.682  0.00  0.00    -0.530 OA
ENDROOT
BRANCH   1   5
ATOM      5  C   LIG    1       -1.416  -2.058  -0.121  0.00  0.00    +0.250 C 
BRANCH   5   6
ATOM      6  C   LIG    1       -2.819  -2.590   0.013  0.00  0.00    +0.500 C 
ATOM      7  O   LIG    1       -3.320  -3.216  -0.898  0.00  0.00    -0.530 OA
ATOM      8  N   LIG    1       -3.518  -2.371   1.144  0.00  0.00    -0.850 N 
ATOM      9  H   LIG    1       -4.421  -2.713   1.230  0.00  0.00    +0.410 HD
ATOM     10  H   LIG    1       -3.118  -1.870   1.872  0.00  0.00    +0.400 HD
ENDBRANCH   5   6
BRANCH   5  11
ATOM     11  C   LIG    1       -1.433  -0.534   0.013  0.00  0.00    +0.050 C 
BRANCH  11  13
ATOM     12  C   LIG    1       -0.019   1.526   0.010  0.00  0.00    +0.030 C 
ATOM     13  C   LIG    1        0.002  -0.004   0.002  0.00  0.00    -0.030 C 
ATOM     14  C   LIG    1        0.742  -0.511   1.242  0.00  0.00    +0.020 C 
ENDBRANCH  11  13
ENDBRANCH   5  11
ENDBRANCH   1   5
BRANCH   3  15
ATOM     15  C   LIG    1        0.257  -4.010  -2.958  0.00  0.00    +0.200 C 
BRANCH  15  16
ATOM     16  N   LIG    1        1.224  -5.104  -2.800  0.00  0.00    -0.610 N 
ATOM     17  H   LIG    1        0.765  -5.902  -2.388  0.00  0.00    +0.430 HD
ATOM     18  H   LIG    1        1.977  -4.802  -2.199  0.00  0.00    +0.420 HD
ATOM     19  H   LIG    1        1.596  -5.357  -3.703  0.00  0.00    +0.450 HD
ENDBRANCH  15  16
BRANCH  15  20
ATOM     20  C   LIG    1       -0.885  -4.467  -3.869  0.00  0.00    -0.010 C 
BRANCH  20  21
ATOM     21  C   LIG    1       -0.349  -4.729  -5.253  0.00  0.00    +0.490 C 
ATOM     22  O   LIG    1       -1.101  -5.105  -6.136  0.00  0.00    -0.650 OA
ATOM     23  O   LIG    1        0.836  -4.565  -5.489  0.00  0.00    -0.700 OA
ENDBRANCH  20  21
ENDBRANCH  15  20
ENDBRANCH   3  15
TORSDOF 8
ENDMDL
MODEL     1427
REMARK  Name = ZINC000110771214
REMARK                            x       y       z     vdW  Elec       q    Type
REMARK                         _______ _______ _______ _____ _____    ______ ____
ROOT
ATOM      1  O   LIG    1        0.404   0.114  -0.430  0.00  0.00    -0.930 OA
ATOM      2  S   LIG    1        0.360   1.532  -0.364  0.00  0.00    +2.360 S 
ATOM      3  C   LIG    1       -0.213   2.057   1.313  0.00  0.00    -0.280 C 
ATOM      4  C   LIG    1        1.125   2.051   2.054  0.00  0.00    -0.020 C 
ATOM      5  C   LIG    1        1.589   3.067   3.064  0.00  0.00    +0.030 C 
ATOM      6  C   LIG    1        2.935   2.905   2.280  0.00  0.00    +0.020 C 
ATOM      7  C   LIG    1        1.995   2.967   1.113  0.00  0.00    +0.000 C 
ATOM      8  O   LIG    1       -0.337   2.268  -1.361  0.00  0.00    -0.930 OA
ATOM      9  C   LIG    1        2.072   2.197  -0.190  0.00  0.00    -0.280 C 
ENDROOT
BRANCH   6  10
ATOM     10  C   LIG    1        3.628   1.556   2.479  0.00  0.00    +0.210 C 
BRANCH  10  11
ATOM     11  O   LIG    1        4.909   1.581   1.845  0.00  0.00    -0.570 OA
ATOM     12  H   LIG    1        5.407   0.756   1.932  0.00  0.00    +0.390 HD
ENDBRANCH  10  11
ENDBRANCH   6  10
BRANCH   5  13
ATOM     13  C   LIG    1        0.935   4.443   2.925  0.00  0.00    +0.200 C 
BRANCH  13  14
ATOM     14  O   LIG    1        1.315   5.265   4.031  0.00  0.00    -0.570 OA
ATOM     15  H   LIG    1        0.936   6.154   4.009  0.00  0.00    +0.390 HD
ENDBRANCH  13  14
ENDBRANCH   5  13
TORSDOF 4
ENDMDL
MODEL     1428
REMARK  Name = ZINC000044960088
REMARK                            x       y       z     vdW  Elec       q    Type
REMARK                         _______ _______ _______ _____ _____    ______ ____
ROOT
ATOM      1  C   LIG    1       -1.136  -2.159   0.001  0.00  0.00    +0.270 C 
ATOM      2  C   LIG    1       -1.021  -2.662  -1.441  0.00  0.00    +0.170 C 
ATOM      3  C   LIG    1       -2.259  -2.221  -2.227  0.00  0.00    +0.330 C 
ATOM      4  O   LIG    1       -3.433  -2.725  -1.586  0.00  0.00    -0.370 OA
ATOM      5  C   LIG    1       -3.618  -2.250  -0.250  0.00  0.00    +0.140 C 
ATOM      6  C   LIG    1       -2.433  -2.692   0.617  0.00  0.00    +0.160 C 
ENDROOT
BRANCH   1   9
ATOM      7  C   LIG    1       -0.018   1.503   0.010  0.00  0.00    +0.090 C 
ATOM      8  C   LIG    1        0.002  -0.004   0.002  0.00  0.00    +0.520 C 
ATOM      9  N   LIG    1       -1.156  -0.694   0.009  0.00  0.00    -0.710 N 
ATOM     10  H   LIG    1       -2.002  -0.220   0.020  0.00  0.00    +0.400 HD
ATOM     11  O   LIG    1        1.060  -0.596  -0.011  0.00  0.00    -0.530 OA
ENDBRANCH   1   9
BRANCH   3  12
ATOM     12  O   LIG    1       -2.314  -0.794  -2.268  0.00  0.00    -0.560 OA
ATOM     13  H   LIG    1       -3.075  -0.443  -2.752  0.00  0.00    +0.380 HD
ENDBRANCH   3  12
BRANCH   2  14
ATOM     14  O   LIG    1        0.151  -2.112  -2.047  0.00  0.00    -0.530 OA
ATOM     15  H   LIG    1        0.286  -2.389  -2.963  0.00  0.00    +0.370 HD
ENDBRANCH   2  14
BRANCH   6  16
ATOM     16  O   LIG    1       -2.386  -4.119   0.670  0.00  0.00    -0.550 OA
ATOM     17  H   LIG    1       -3.180  -4.525   1.044  0.00  0.00    +0.380 HD
ENDBRANCH   6  16
BRANCH   5  18
ATOM     18  C   LIG    1       -4.913  -2.829   0.323  0.00  0.00    +0.210 C 
BRANCH  18  19
ATOM     19  O   LIG    1       -6.027  -2.324  -0.415  0.00  0.00    -0.560 OA
ATOM     20  H   LIG    1       -6.884  -2.650  -0.107  0.00  0.00    +0.390 HD
ENDBRANCH  18  19
ENDBRANCH   5  18
TORSDOF 6
ENDMDL
MODEL     1429
REMARK  Name = ZINC000030836054
REMARK                            x       y       z     vdW  Elec       q    Type
REMARK                         _______ _______ _______ _____ _____    ______ ____
ROOT
ATOM      1  C   LIG    1        0.075  -0.158  -2.502  0.00  0.00    +0.190 C 
ATOM      2  C   LIG    1        1.010  -0.597  -3.634  0.00  0.00    +0.220 C 
ATOM      3  C   LIG    1        0.325  -0.330  -4.978  0.00  0.00    +0.130 C 
ATOM      4  C   LIG    1       -1.016  -1.067  -5.014  0.00  0.00    +0.150 C 
ATOM      5  O   LIG    1       -1.825  -0.635  -3.918  0.00  0.00    -0.390 OA
ATOM      6  C   LIG    1       -1.258  -0.900  -2.633  0.00  0.00    +0.300 C 
ENDROOT
BRANCH   3   7
ATOM      7  O   LIG    1        0.105   1.074  -5.132  0.00  0.00    -0.550 OA
ATOM      8  H   LIG    1       -0.326   1.315  -5.963  0.00  0.00    +0.380 HD
ENDBRANCH   3   7
BRANCH   2   9
ATOM      9  O   LIG    1        1.292  -1.992  -3.508  0.00  0.00    -0.550 OA
ATOM     10  H   LIG    1        1.879  -2.338  -4.193  0.00  0.00    +0.380 HD
ENDBRANCH   2   9
BRANCH   6  11
ATOM     11  O   LIG    1       -2.155  -0.455  -1.615  0.00  0.00    -0.540 OA
ATOM     12  H   LIG    1       -3.021  -0.885  -1.638  0.00  0.00    +0.380 HD
ENDBRANCH   6  11
BRANCH   1  13
ATOM     13  N   LIG    1        0.690  -0.478  -1.207  0.00  0.00    -0.520 NA
BRANCH  13  15
ATOM     14  C   LIG    1        0.652   1.797  -0.299  0.00  0.00    +0.020 C 
ATOM     15  C   LIG    1        0.136   0.365  -0.139  0.00  0.00    +0.170 C 
ENDBRANCH  13  15
BRANCH  13  16
ATOM     16  C   LIG    1        0.533  -1.903  -0.887  0.00  0.00    +0.170 C 
ATOM     17  C   LIG    1        1.490  -2.280   0.246  0.00  0.00    +0.030 C 
ENDBRANCH  13  16
ENDBRANCH   1  13
BRANCH   4  18
ATOM     18  C   LIG    1       -1.733  -0.757  -6.330  0.00  0.00    +0.200 C 
BRANCH  18  19
ATOM     19  O   LIG    1       -2.929  -1.534  -6.415  0.00  0.00    -0.560 OA
ATOM     20  H   LIG    1       -3.436  -1.389  -7.225  0.00  0.00    +0.380 HD
ENDBRANCH  18  19
ENDBRANCH   4  18
TORSDOF 8
ENDMDL
MODEL     1430
REMARK  Name = ZINC000040387277
REMARK                            x       y       z     vdW  Elec       q    Type
REMARK                         _______ _______ _______ _____ _____    ______ ____
ROOT
ATOM      1  N   LIG    1        0.634  -1.962  -1.326  0.00  0.00    -0.560 NA
ATOM      2  C   LIG    1       -0.751  -2.400  -1.542  0.00  0.00    +0.400 C 
ATOM      3  N   LIG    1       -0.812  -3.844  -1.745  0.00  0.00    -0.650 NA
ATOM      4  C   LIG    1        0.212  -4.548  -2.114  0.00  0.00    +0.640 C 
ATOM      5  N   LIG    1        1.441  -3.961  -2.322  0.00  0.00    -0.750 N 
ATOM      6  H   LIG    1        2.240  -4.502  -2.424  0.00  0.00    +0.410 HD
ATOM      7  C   LIG    1        1.508  -2.493  -2.388  0.00  0.00    +0.430 C 
ENDROOT
BRANCH   4   8
ATOM      8  N   LIG    1        0.069  -5.902  -2.301  0.00  0.00    -1.040 N 
ATOM      9  H   LIG    1        0.830  -6.437  -2.577  0.00  0.00    +0.430 HD
BRANCH   8  10
ATOM     10  S   LIG    1       -1.402  -6.622  -2.054  0.00  0.00    +2.620 S 
ATOM     11  O   LIG    1       -1.799  -6.175  -0.765  0.00  0.00    -0.920 OA
ATOM     12  O   LIG    1       -1.166  -7.999  -2.312  0.00  0.00    -0.950 OA
ATOM     13  C   LIG    1       -2.474  -5.909  -3.333  0.00  0.00    -0.270 C 
ENDBRANCH   8  10
ENDBRANCH   4   8
BRANCH   1  14
ATOM     14  C   LIG    1        0.718  -0.497  -1.257  0.00  0.00    +0.160 C 
BRANCH  14  16
ATOM     15  C   LIG    1       -0.019   1.526   0.010  0.00  0.00    +0.010 C 
ATOM     16  C   LIG    1        0.002  -0.004   0.002  0.00  0.00    +0.210 C 
BRANCH  16  17
ATOM     17  O   LIG    1        0.693  -0.477   1.160  0.00  0.00    -0.550 OA
ATOM     18  H   LIG    1        1.611  -0.180   1.219  0.00  0.00    +0.370 HD
ENDBRANCH  16  17
ENDBRANCH  14  16
ENDBRANCH   1  14
TORSDOF 5
ENDMDL
MODEL     1431
REMARK  Name = ZINC000001723336
REMARK                            x       y       z     vdW  Elec       q    Type
REMARK                         _______ _______ _______ _____ _____    ______ ____
ROOT
ATOM      1  N   LIG    1        0.634  -1.958  -1.325  0.00  0.00    -0.700 N 
ATOM      2  H   LIG    1        0.172  -2.451  -0.629  0.00  0.00    +0.420 HD
ATOM      3  C   LIG    1        1.198  -2.618  -2.356  0.00  0.00    +0.510 C 
ATOM      4  O   LIG    1        1.776  -2.002  -3.228  0.00  0.00    -0.520 OA
ENDROOT
BRANCH   3   5
ATOM      5  C   LIG    1        1.113  -4.109  -2.426  0.00  0.00    +0.510 C 
ATOM      6  N   LIG    1        1.677  -4.768  -3.457  0.00  0.00    -0.690 N 
ATOM      7  H   LIG    1        2.139  -4.276  -4.154  0.00  0.00    +0.420 HD
ATOM      8  O   LIG    1        0.535  -4.725  -1.555  0.00  0.00    -0.520 OA
BRANCH   6   9
ATOM      9  C   LIG    1        1.593  -6.229  -3.526  0.00  0.00    +0.290 C 
BRANCH   9  10
ATOM     10  C   LIG    1        2.309  -6.723  -4.785  0.00  0.00    +0.160 C 
ATOM     11  C   LIG    1        2.115  -8.234  -4.923  0.00  0.00    +0.020 C 
BRANCH  10  12
ATOM     12  O   LIG    1        3.704  -6.429  -4.686  0.00  0.00    -0.560 OA
ATOM     13  H   LIG    1        4.222  -6.714  -5.451  0.00  0.00    +0.380 HD
ENDBRANCH  10  12
ENDBRANCH   9  10
ENDBRANCH   6   9
ENDBRANCH   3   5
BRANCH   1  14
ATOM     14  C   LIG    1        0.718  -0.497  -1.257  0.00  0.00    +0.240 C 
BRANCH  14  16
ATOM     15  C   LIG    1       -0.019   1.526   0.010  0.00  0.00    +0.020 C 
ATOM     16  C   LIG    1        0.002  -0.004   0.002  0.00  0.00    +0.200 C 
BRANCH  16  17
ATOM     17  O   LIG    1        0.693  -0.477   1.160  0.00  0.00    -0.560 OA
ATOM     18  H   LIG    1        1.611  -0.180   1.219  0.00  0.00    +0.380 HD
ENDBRANCH  16  17
ENDBRANCH  14  16
ENDBRANCH   1  14
TORSDOF 7
ENDMDL
MODEL     1432
REMARK  Name = ZINC000004533744
REMARK                            x       y       z     vdW  Elec       q    Type
REMARK                         _______ _______ _______ _____ _____    ______ ____
ROOT
ATOM      1  CA  ALA A  2       -3.499  -1.070  -1.120  0.00  0.00    +0.240 C 
ATOM      2  CB  ALA A  2       -3.482  -2.594  -1.254  0.00  0.00    +0.070 C 
ENDROOT
BRANCH   1   4
ATOM      3  C   ALA A  1       -1.412  -0.526   0.013  0.00  0.00    +0.500 C 
ATOM      4  N   ALA A  2       -2.125  -0.563  -1.130  0.00  0.00    -0.680 N 
ATOM      5  H   ALA A  2       -1.728  -0.253  -1.960  0.00  0.00    +0.420 HD
ATOM      6  O   ALA A  1       -1.908  -0.912   1.050  0.00  0.00    -0.530 OA
BRANCH   3   8
ATOM      7  CB  ALA A  1       -0.019   1.526   0.010  0.00  0.00    +0.130 C 
ATOM      8  CA  ALA A  1        0.002  -0.004   0.002  0.00  0.00    +0.170 C 
BRANCH   8   9
ATOM      9  N   ALA A  1        0.713  -0.491   1.192  0.00  0.00    -0.620 N 
ATOM     10  H1  ALA A  1        1.659  -0.141   1.185  0.00  0.00    +0.440 HD
ATOM     11  H2  ALA A  1        0.726  -1.500   1.187  0.00  0.00    +0.440 HD
ATOM     12  H3  ALA A  1        0.240  -0.165   2.022  0.00  0.00    +0.440 HD
ENDBRANCH   8   9
ENDBRANCH   3   8
ENDBRANCH   1   4
BRANCH   1  13
ATOM     13  C   ALA A  2       -4.264  -0.473  -2.273  0.00  0.00    +0.500 C 
ATOM     14  N   ALA A  3       -5.558  -0.798  -2.464  0.00  0.00    -0.680 N 
ATOM     15  H   ALA A  3       -5.997  -1.416  -1.859  0.00  0.00    +0.410 HD
ATOM     16  O   ALA A  2       -3.715   0.300  -3.030  0.00  0.00    -0.560 OA
BRANCH  14  17
ATOM     17  CA  ALA A  3       -6.301  -0.217  -3.586  0.00  0.00    +0.160 C 
ATOM     18  CB  ALA A  3       -6.058  -1.052  -4.845  0.00  0.00    +0.020 C 
BRANCH  17  19
ATOM     19  C   ALA A  3       -7.773  -0.212  -3.264  0.00  0.00    +0.490 C 
ATOM     20  OXT ALA A  3       -8.572   0.233  -4.070  0.00  0.00    -0.680 OA
ATOM     21  O   ALA A  3       -8.165  -0.652  -2.196  0.00  0.00    -0.690 OA
ENDBRANCH  17  19
ENDBRANCH  14  17
ENDBRANCH   1  13
TORSDOF 6
ENDMDL
MODEL     1433
REMARK  Name = ZINC000019169430
REMARK                            x       y       z     vdW  Elec       q    Type
REMARK                         _______ _______ _______ _____ _____    ______ ____
ROOT
ATOM      1  N   LIG    1       -1.413  -2.002   0.005  0.00  0.00    -0.370 NA
ENDROOT
BRANCH   1   2
ATOM      2  N   LIG    1       -0.761  -2.508  -1.192  0.00  0.00    -0.510 NA
ATOM      3  H   LIG    1       -1.390  -3.083  -1.732  0.00  0.00    +0.330 HD
BRANCH   2   4
ATOM      4  C   LIG    1        0.464  -3.244  -0.852  0.00  0.00    +0.220 C 
BRANCH   4   5
ATOM      5  C   LIG    1        1.122  -3.760  -2.134  0.00  0.00    +0.160 C 
ATOM      6  C   LIG    1        2.327  -4.631  -1.775  0.00  0.00    +0.020 C 
BRANCH   5   7
ATOM      7  O   LIG    1        1.554  -2.652  -2.927  0.00  0.00    -0.560 OA
ATOM      8  H   LIG    1        1.981  -2.905  -3.757  0.00  0.00    +0.370 HD
ENDBRANCH   5   7
ENDBRANCH   4   5
ENDBRANCH   2   4
ENDBRANCH   1   2
BRANCH   1   9
ATOM      9  C   LIG    1       -1.433  -0.534   0.013  0.00  0.00    +0.150 C 
BRANCH   9  11
ATOM     10  C   LIG    1       -0.019   1.526   0.010  0.00  0.00    -0.010 C 
ATOM     11  C   LIG    1        0.002  -0.004   0.002  0.00  0.00    +0.220 C 
BRANCH  11  12
ATOM     12  O   LIG    1        0.693  -0.477   1.160  0.00  0.00    -0.550 OA
ATOM     13  H   LIG    1        0.294  -0.202   1.996  0.00  0.00    +0.370 HD
ENDBRANCH  11  12
ENDBRANCH   9  11
ENDBRANCH   1   9
BRANCH   1  14
ATOM     14  C   LIG    1       -2.771  -2.548   0.134  0.00  0.00    +0.130 C 
BRANCH  14  15
ATOM     15  C   LIG    1       -2.695  -4.061   0.346  0.00  0.00    +0.210 C 
ATOM     16  C   LIG    1       -4.109  -4.630   0.481  0.00  0.00    +0.020 C 
BRANCH  15  17
ATOM     17  O   LIG    1       -2.043  -4.667  -0.772  0.00  0.00    -0.560 OA
ATOM     18  H   LIG    1       -2.491  -4.519  -1.616  0.00  0.00    +0.370 HD
ENDBRANCH  15  17
ENDBRANCH  14  15
ENDBRANCH   1  14
TORSDOF 10
ENDMDL
MODEL     1434
REMARK  Name = ZINC000004894874
REMARK                            x       y       z     vdW  Elec       q    Type
REMARK                         _______ _______ _______ _____ _____    ______ ____
ROOT
ATOM      1  C   LIG    1       -2.015  -2.779   0.824  0.00  0.00    +0.520 C 
ATOM      2  N   LIG    1       -2.006  -4.077   1.186  0.00  0.00    -0.710 N 
ATOM      3  H   LIG    1       -1.246  -4.637   0.966  0.00  0.00    +0.420 HD
ATOM      4  O   LIG    1       -2.923  -2.057   1.177  0.00  0.00    -0.530 OA
ENDROOT
BRANCH   1   5
ATOM      5  C   LIG    1       -0.897  -2.225  -0.021  0.00  0.00    +0.240 C 
BRANCH   5   8
ATOM      6  C   LIG    1        0.576   1.294   0.290  0.00  0.00    +0.110 C 
ATOM      7  C   LIG    1        0.429  -0.182   0.024  0.00  0.00    +0.510 C 
ATOM      8  N   LIG    1       -0.754  -0.790   0.238  0.00  0.00    -0.720 N 
ATOM      9  H   LIG    1       -1.511  -0.279   0.564  0.00  0.00    +0.410 HD
ATOM     10  O   LIG    1        1.375  -0.821  -0.384  0.00  0.00    -0.540 OA
ENDBRANCH   5   8
BRANCH   5  11
ATOM     11  C   LIG    1       -1.218  -2.447  -1.500  0.00  0.00    -0.020 C 
ATOM     12  C   LIG    1       -1.414  -3.942  -1.762  0.00  0.00    +0.030 C 
ATOM     13  C   LIG    1       -0.061  -1.927  -2.356  0.00  0.00    +0.040 C 
ENDBRANCH   5  11
ENDBRANCH   1   5
BRANCH   2  14
ATOM     14  C   LIG    1       -3.146  -4.643   1.913  0.00  0.00    +0.300 C 
BRANCH  14  15
ATOM     15  C   LIG    1       -2.888  -6.100   2.197  0.00  0.00    +0.510 C 
ATOM     16  O   LIG    1       -1.854  -6.616   1.828  0.00  0.00    -0.540 OA
ATOM     17  N   LIG    1       -3.805  -6.830   2.861  0.00  0.00    -0.850 N 
ATOM     18  H   LIG    1       -3.639  -7.769   3.043  0.00  0.00    +0.410 HD
ATOM     19  H   LIG    1       -4.632  -6.418   3.156  0.00  0.00    +0.410 HD
ENDBRANCH  14  15
ENDBRANCH   2  14
TORSDOF 5
ENDMDL
MODEL     1435
REMARK  Name = ZINC000016382960
REMARK                            x       y       z     vdW  Elec       q    Type
REMARK                         _______ _______ _______ _____ _____    ______ ____
ROOT
ATOM      1  C   LIG    1       -1.415   4.522   0.049  0.00  0.00    +0.370 C 
ENDROOT
BRANCH   1   5
ATOM      2  O   LIG    1        0.002  -0.004   0.002  0.00  0.00    -0.470 OA
ATOM      3  C   LIG    1       -0.015   1.216   0.009  0.00  0.00    +0.410 A 
ATOM      4  C   LIG    1       -1.145   2.065   0.030  0.00  0.00    +0.020 A 
ATOM      5  N   LIG    1       -0.641   3.278   0.030  0.00  0.00    -0.150 N 
ATOM      6  N   LIG    1        0.640   3.196   0.010  0.00  0.00    -0.200 NA
ATOM      7  O   LIG    1        1.038   2.052   0.003  0.00  0.00    +0.010 OA
ENDBRANCH   1   5
BRANCH   1   8
ATOM      8  C   LIG    1       -1.147   5.269   1.357  0.00  0.00    +0.370 C 
BRANCH   8   9
ATOM      9  N   LIG    1       -1.920   6.513   1.376  0.00  0.00    -0.150 N 
ATOM     10  C   LIG    1       -2.891   6.796   2.215  0.00  0.00    +0.020 A 
ATOM     11  C   LIG    1       -3.315   8.091   1.836  0.00  0.00    +0.410 A 
ATOM     12  O   LIG    1       -2.525   8.417   0.798  0.00  0.00    +0.010 OA
ATOM     13  O   LIG    1       -4.201   8.763   2.339  0.00  0.00    -0.470 OA
ATOM     14  N   LIG    1       -1.757   7.507   0.579  0.00  0.00    -0.200 NA
ENDBRANCH   8   9
ENDBRANCH   1   8
TORSDOF 3
ENDMDL
MODEL     1436
REMARK  Name = ZINC000004611599
REMARK                            x       y       z     vdW  Elec       q    Type
REMARK                         _______ _______ _______ _____ _____    ______ ____
ROOT
ATOM      1  O   LIG    1       -0.625  -0.071  -0.066  0.00  0.00    -0.480 OA
ATOM      2  C   LIG    1       -0.510   1.138  -0.040  0.00  0.00    +0.650 C 
ATOM      3  N   LIG    1       -1.562   2.001  -0.038  0.00  0.00    -0.710 N 
ATOM      4  H   LIG    1       -2.503   1.766  -0.035  0.00  0.00    +0.440 HD
ATOM      5  C   LIG    1       -1.010   3.337  -0.040  0.00  0.00    +0.350 C 
ATOM      6  O   LIG    1       -1.556   4.380  -0.806  0.00  0.00    -0.340 OA
ATOM      7  C   LIG    1       -0.861   5.615  -0.536  0.00  0.00    +0.200 C 
ATOM      8  C   LIG    1        0.634   5.504  -0.819  0.00  0.00    +0.140 C 
ATOM      9  C   LIG    1        1.254   4.271  -0.135  0.00  0.00    +0.220 C 
ATOM     10  C   LIG    1        0.421   3.082  -0.592  0.00  0.00    +0.150 C 
ATOM     11  O   LIG    1        0.687   1.789  -0.005  0.00  0.00    -0.300 OA
ENDROOT
BRANCH   9  12
ATOM     12  O   LIG    1        2.611   4.109  -0.552  0.00  0.00    -0.540 OA
ATOM     13  H   LIG    1        3.180   4.862  -0.341  0.00  0.00    +0.390 HD
ENDBRANCH   9  12
BRANCH   8  14
ATOM     14  O   LIG    1        1.288   6.680  -0.339  0.00  0.00    -0.550 OA
ATOM     15  H   LIG    1        0.976   7.499  -0.749  0.00  0.00    +0.390 HD
ENDBRANCH   8  14
BRANCH   7  16
ATOM     16  C   LIG    1       -1.061   5.987   0.934  0.00  0.00    +0.170 C 
BRANCH  16  17
ATOM     17  O   LIG    1       -2.447   6.231   1.180  0.00  0.00    -0.560 OA
ATOM     18  H   LIG    1       -2.648   6.472   2.095  0.00  0.00    +0.390 HD
ENDBRANCH  16  17
ENDBRANCH   7  16
TORSDOF 4
ENDMDL
MODEL     1437
REMARK  Name = ZINC000004611598
REMARK                            x       y       z     vdW  Elec       q    Type
REMARK                         _______ _______ _______ _____ _____    ______ ____
ROOT
ATOM      1  O   LIG    1        0.002  -0.004   0.002  0.00  0.00    -0.490 OA
ATOM      2  C   LIG    1       -0.014   1.211   0.009  0.00  0.00    +0.650 C 
ATOM      3  N   LIG    1       -1.153   1.956   0.029  0.00  0.00    -0.720 N 
ATOM      4  H   LIG    1       -2.063   1.619   0.061  0.00  0.00    +0.440 HD
ATOM      5  C   LIG    1       -0.749   3.342  -0.006  0.00  0.00    +0.360 C 
ATOM      6  O   LIG    1       -1.425   4.308  -0.770  0.00  0.00    -0.340 OA
ATOM      7  C   LIG    1       -0.861   5.615  -0.536  0.00  0.00    +0.150 C 
ATOM      8  C   LIG    1        0.629   5.661  -0.860  0.00  0.00    +0.140 C 
ATOM      9  C   LIG    1        1.397   4.513  -0.177  0.00  0.00    +0.220 C 
ATOM     10  C   LIG    1        0.686   3.235  -0.594  0.00  0.00    +0.150 C 
ATOM     11  O   LIG    1        1.106   1.988   0.002  0.00  0.00    -0.300 OA
ENDROOT
BRANCH   9  12
ATOM     12  O   LIG    1        2.752   4.492  -0.630  0.00  0.00    -0.540 OA
ATOM     13  H   LIG    1        3.241   5.306  -0.445  0.00  0.00    +0.390 HD
ENDBRANCH   9  12
BRANCH   8  14
ATOM     14  O   LIG    1        1.164   6.909  -0.414  0.00  0.00    -0.550 OA
ATOM     15  H   LIG    1        0.755   7.682  -0.825  0.00  0.00    +0.390 HD
ENDBRANCH   8  14
BRANCH   7  16
ATOM     16  C   LIG    1       -1.591   6.636  -1.412  0.00  0.00    +0.210 C 
BRANCH  16  17
ATOM     17  O   LIG    1       -2.956   6.727  -1.001  0.00  0.00    -0.560 OA
ATOM     18  H   LIG    1       -3.480   7.358  -1.514  0.00  0.00    +0.390 HD
ENDBRANCH  16  17
ENDBRANCH   7  16
TORSDOF 4
ENDMDL
MODEL     1438
REMARK  Name = ZINC000306145577
REMARK                            x       y       z     vdW  Elec       q    Type
REMARK                         _______ _______ _______ _____ _____    ______ ____
ROOT
ATOM      1  O   LIG    1        0.002  -0.004   0.002  0.00  0.00    -0.900 OA
ATOM      2  S   LIG    1       -0.017   1.417   0.010  0.00  0.00    +2.400 S 
ATOM      3  C   LIG    1       -0.049   2.074   1.718  0.00  0.00    -0.230 C 
ATOM      4  C   LIG    1        1.504   2.029   1.548  0.00  0.00    +0.080 C 
ATOM      5  C   LIG    1        2.154   3.247   2.224  0.00  0.00    -0.330 C 
ATOM      6  S   LIG    1        3.938   3.215   1.876  0.00  0.00    +2.410 S 
ATOM      7  C   LIG    1        4.361   1.520   2.378  0.00  0.00    -0.360 C 
ATOM      8  C   LIG    1        3.432   0.543   1.652  0.00  0.00    +0.280 C 
ATOM      9  O   LIG    1        4.589   4.128   2.749  0.00  0.00    -0.930 OA
ATOM     10  O   LIG    1        4.130   3.335   0.473  0.00  0.00    -0.920 OA
ATOM     11  N   LIG    1        2.046   0.764   2.069  0.00  0.00    -0.670 NA
ATOM     12  H   LIG    1        1.959   0.720   3.073  0.00  0.00    +0.370 HD
ATOM     13  O   LIG    1       -0.881   2.151  -0.847  0.00  0.00    -0.930 OA
ATOM     14  C   LIG    1        1.678   2.107  -0.003  0.00  0.00    -0.260 C 
ENDROOT
TORSDOF 0
ENDMDL
MODEL     1439
REMARK  Name = ZINC000012959026
REMARK                            x       y       z     vdW  Elec       q    Type
REMARK                         _______ _______ _______ _____ _____    ______ ____
ROOT
ATOM      1  C1* LIG    1        2.413   1.176  -0.021  0.00  0.00    +0.410 C 
ATOM      2  O4* LIG    1        2.418   0.194  -1.079  0.00  0.00    -0.340 OA
ATOM      3  C4* LIG    1        3.414  -0.785  -0.739  0.00  0.00    +0.150 C 
ATOM      4  C3* LIG    1        3.551  -0.784   0.796  0.00  0.00    +0.140 C 
ATOM      5  C2* LIG    1        2.579   0.327   1.266  0.00  0.00    +0.160 C 
ENDROOT
BRANCH   1  12
ATOM      6  O   LIG    1        0.002  -0.004   0.002  0.00  0.00    -0.490 OA
ATOM      7  C   LIG    1       -0.015   1.217   0.009  0.00  0.00    +0.540 A 
ATOM      8  C   LIG    1       -1.237   1.899   0.030  0.00  0.00    -0.150 A 
ATOM      9  C   LIG    1       -1.236   3.281   0.038  0.00  0.00    +0.220 A 
ATOM     10  C   LIG    1       -0.003   3.963   0.024  0.00  0.00    -0.140 A 
ATOM     11  C   LIG    1        1.151   3.263   0.004  0.00  0.00    +0.330 A 
ATOM     12  N   LIG    1        1.143   1.904   0.001  0.00  0.00    -0.500 N 
BRANCH   9  13
ATOM     13  O   LIG    1       -2.403   3.970   0.059  0.00  0.00    -0.460 OA
ATOM     14  H   LIG    1       -2.292   4.930   0.062  0.00  0.00    +0.400 HD
ENDBRANCH   9  13
ENDBRANCH   1  12
BRANCH   4  15
ATOM     15  O3* LIG    1        4.892  -0.469   1.178  0.00  0.00    -0.550 OA
ATOM     16  H3* LIG    1        5.551  -1.102   0.860  0.00  0.00    +0.390 HD
ENDBRANCH   4  15
BRANCH   5  17
ATOM     17  O2* LIG    1        1.326  -0.229   1.671  0.00  0.00    -0.500 OA
ATOM     18  H2* LIG    1        1.391  -0.842   2.416  0.00  0.00    +0.370 HD
ENDBRANCH   5  17
BRANCH   3  19
ATOM     19  C5* LIG    1        2.971  -2.168  -1.224  0.00  0.00    +0.210 C 
BRANCH  19  20
ATOM     20  O5* LIG    1        2.945  -2.186  -2.652  0.00  0.00    -0.560 OA
ATOM     21  H5* LIG    1        2.673  -3.033  -3.030  0.00  0.00    +0.380 HD
ENDBRANCH  19  20
ENDBRANCH   3  19
TORSDOF 6
ENDMDL
MODEL     1440
REMARK  Name = ZINC000017129259
REMARK                            x       y       z     vdW  Elec       q    Type
REMARK                         _______ _______ _______ _____ _____    ______ ____
ROOT
ATOM      1  C   LIG    1        0.870  -2.011   1.172  0.00  0.00    +0.020 A 
ATOM      2  C   LIG    1        2.125  -2.602   1.277  0.00  0.00    +0.330 A 
ATOM      3  N   LIG    1        2.259  -3.912   1.218  0.00  0.00    -0.440 NA
ATOM      4  C   LIG    1        1.180  -4.679   1.057  0.00  0.00    +0.360 A 
ATOM      5  N   LIG    1        1.274  -6.020   0.993  0.00  0.00    -0.570 NA
ATOM      6  C   LIG    1        0.217  -6.779   0.835  0.00  0.00    +0.670 A 
ATOM      7  N   LIG    1       -1.047  -6.280   0.724  0.00  0.00    -0.660 N 
ATOM      8  H   LIG    1       -1.795  -6.887   0.608  0.00  0.00    +0.420 HD
ATOM      9  C   LIG    1       -1.265  -4.946   0.774  0.00  0.00    +0.580 A 
ATOM     10  O   LIG    1       -2.387  -4.485   0.676  0.00  0.00    -0.470 OA
ATOM     11  C   LIG    1       -0.092  -4.072   0.951  0.00  0.00    -0.060 A 
ATOM     12  N   LIG    1       -0.209  -2.753   1.018  0.00  0.00    -0.350 NA
ENDROOT
BRANCH   6  13
ATOM     13  N   LIG    1        0.391  -8.137   0.779  0.00  0.00    -0.810 N 
ATOM     14  H   LIG    1       -0.375  -8.720   0.663  0.00  0.00    +0.420 HD
ATOM     15  H   LIG    1        1.281  -8.516   0.856  0.00  0.00    +0.430 HD
ENDBRANCH   6  13
BRANCH   1  16
ATOM     16  C   LIG    1        0.742  -0.511   1.242  0.00  0.00    +0.310 C 
BRANCH  16  18
ATOM     17  C   LIG    1       -0.019   1.526   0.010  0.00  0.00    +0.020 C 
ATOM     18  C   LIG    1        0.002  -0.004   0.002  0.00  0.00    +0.150 C 
BRANCH  18  19
ATOM     19  O   LIG    1        0.671  -0.465  -1.174  0.00  0.00    -0.570 OA
ATOM     20  H   LIG    1        0.256  -0.181  -1.999  0.00  0.00    +0.380 HD
ENDBRANCH  18  19
ENDBRANCH  16  18
BRANCH  16  21
ATOM     21  O   LIG    1        2.044   0.076   1.292  0.00  0.00    -0.540 OA
ATOM     22  H   LIG    1        2.598  -0.128   0.526  0.00  0.00    +0.390 HD
ENDBRANCH  16  21
ENDBRANCH   1  16
TORSDOF 5
ENDMDL
MODEL     1441
REMARK  Name = ZINC000000895154
REMARK                            x       y       z     vdW  Elec       q    Type
REMARK                         _______ _______ _______ _____ _____    ______ ____
ROOT
ATOM      1  C   LIG    1       -1.413  -2.059   0.130  0.00  0.00    +0.210 C 
ATOM      2  C   LIG    1       -2.852  -2.597   0.161  0.00  0.00    +0.290 C 
ATOM      3  N   LIG    1       -3.506  -2.089   1.375  0.00  0.00    -0.720 N 
ATOM      4  H   LIG    1       -4.404  -1.724   1.333  0.00  0.00    +0.400 HD
ATOM      5  C   LIG    1       -2.826  -2.137   2.576  0.00  0.00    +0.340 A 
ATOM      6  C   LIG    1       -1.473  -2.313   2.596  0.00  0.00    -0.050 A 
ATOM      7  C   LIG    1       -0.805  -2.353   3.836  0.00  0.00    +0.540 A 
ATOM      8  N   LIG    1       -1.512  -2.220   4.970  0.00  0.00    -0.630 NA
ATOM      9  C   LIG    1       -2.817  -2.054   4.940  0.00  0.00    +0.650 A 
ATOM     10  O   LIG    1        0.408  -2.507   3.880  0.00  0.00    -0.530 OA
ATOM     11  N   LIG    1       -3.499  -2.008   3.763  0.00  0.00    -0.640 N 
ATOM     12  H   LIG    1       -4.461  -1.884   3.765  0.00  0.00    +0.410 HD
ATOM     13  N   LIG    1       -0.755  -2.453   1.386  0.00  0.00    -0.700 N 
ATOM     14  H   LIG    1        0.150  -2.802   1.385  0.00  0.00    +0.410 HD
ENDROOT
BRANCH   9  15
ATOM     15  N   LIG    1       -3.504  -1.923   6.120  0.00  0.00    -0.830 N 
ATOM     16  H   LIG    1       -4.466  -1.800   6.109  0.00  0.00    +0.410 HD
ATOM     17  H   LIG    1       -3.028  -1.954   6.964  0.00  0.00    +0.430 HD
ENDBRANCH   9  15
BRANCH   1  18
ATOM     18  C   LIG    1       -1.433  -0.534   0.013  0.00  0.00    +0.220 C 
BRANCH  18  20
ATOM     19  C   LIG    1       -0.019   1.526   0.010  0.00  0.00    +0.010 C 
ATOM     20  C   LIG    1        0.002  -0.004   0.002  0.00  0.00    +0.130 C 
BRANCH  20  21
ATOM     21  O   LIG    1        0.693  -0.477   1.160  0.00  0.00    -0.540 OA
ATOM     22  H   LIG    1        1.611  -0.180   1.219  0.00  0.00    +0.370 HD
ENDBRANCH  20  21
ENDBRANCH  18  20
BRANCH  18  23
ATOM     23  O   LIG    1       -2.137   0.021   1.126  0.00  0.00    -0.550 OA
ATOM     24  H   LIG    1       -1.747  -0.195   1.985  0.00  0.00    +0.380 HD
ENDBRANCH  18  23
ENDBRANCH   1  18
TORSDOF 5
ENDMDL
MODEL     1442
REMARK  Name = ZINC000016051726
REMARK                            x       y       z     vdW  Elec       q    Type
REMARK                         _______ _______ _______ _____ _____    ______ ____
ROOT
ATOM      1  C1* LIG    1        2.413   1.176  -0.021  0.00  0.00    +0.410 C 
ATOM      2  O4* LIG    1        2.418   0.194  -1.079  0.00  0.00    -0.340 OA
ATOM      3  C4* LIG    1        3.414  -0.785  -0.739  0.00  0.00    +0.150 C 
ATOM      4  C3* LIG    1        3.551  -0.784   0.796  0.00  0.00    +0.140 C 
ATOM      5  C2* LIG    1        2.579   0.327   1.266  0.00  0.00    +0.180 C 
ENDROOT
BRANCH   1  12
ATOM      6  O   LIG    1        0.002  -0.004   0.002  0.00  0.00    -0.530 OA
ATOM      7  C   LIG    1       -0.015   1.217   0.009  0.00  0.00    +0.540 A 
ATOM      8  C   LIG    1       -1.237   1.899   0.030  0.00  0.00    -0.160 A 
ATOM      9  C   LIG    1       -1.236   3.281   0.038  0.00  0.00    +0.230 A 
ATOM     10  C   LIG    1       -0.003   3.963   0.024  0.00  0.00    -0.130 A 
ATOM     11  C   LIG    1        1.151   3.263   0.004  0.00  0.00    +0.350 A 
ATOM     12  N   LIG    1        1.143   1.904   0.001  0.00  0.00    -0.500 N 
BRANCH   9  13
ATOM     13  O   LIG    1       -2.403   3.970   0.059  0.00  0.00    -0.460 OA
ATOM     14  H   LIG    1       -2.292   4.930   0.062  0.00  0.00    +0.410 HD
ENDBRANCH   9  13
ENDBRANCH   1  12
BRANCH   4  15
ATOM     15  O3* LIG    1        4.892  -0.469   1.178  0.00  0.00    -0.540 OA
ATOM     16  H3* LIG    1        5.551  -1.102   0.860  0.00  0.00    +0.390 HD
ENDBRANCH   4  15
BRANCH   5  17
ATOM     17  O2* LIG    1        3.156   1.098   2.321  0.00  0.00    -0.540 OA
ATOM     18  H2* LIG    1        3.360   0.586   3.116  0.00  0.00    +0.390 HD
ENDBRANCH   5  17
BRANCH   3  19
ATOM     19  C5* LIG    1        2.971  -2.168  -1.224  0.00  0.00    +0.200 C 
BRANCH  19  20
ATOM     20  O5* LIG    1        2.945  -2.186  -2.652  0.00  0.00    -0.560 OA
ATOM     21  H5* LIG    1        2.673  -3.033  -3.030  0.00  0.00    +0.380 HD
ENDBRANCH  19  20
ENDBRANCH   3  19
TORSDOF 6
ENDMDL
