MODEL        1
REMARK  Name = ZINC000262265987
REMARK                            x       y       z     vdW  Elec       q    Type
REMARK                         _______ _______ _______ _____ _____    ______ ____
ROOT
ATOM      1  N   LIG    1       -0.514  -2.567   1.248  0.00  0.00    -0.390 N 
ATOM      2  C   LIG    1       -0.266  -4.013   1.185  0.00  0.00    +0.260 C 
ATOM      3  C   LIG    1        0.504  -4.453   2.435  0.00  0.00    +0.340 C 
ATOM      4  N   LIG    1       -0.247  -4.016   3.623  0.00  0.00    -0.620 N 
ATOM      5  C   LIG    1       -0.679  -2.612   3.692  0.00  0.00    +0.320 C 
ATOM      6  C   LIG    1       -0.529  -4.879   4.620  0.00  0.00    +0.530 C 
ATOM      7  O   LIG    1       -0.164  -6.033   4.545  0.00  0.00    -0.500 OA
ATOM      8  C   LIG    1       -1.394  -2.261   2.383  0.00  0.00    +0.250 C 
ATOM      9  H   LIG    1        0.363  -2.081   1.365  0.00  0.00    +0.440 HD
ENDROOT
BRANCH   6  10
ATOM     10  C   LIG    1       -1.299  -4.409   5.827  0.00  0.00    -0.020 C 
ATOM     11  C   LIG    1       -2.825  -4.403   5.625  0.00  0.00    +0.340 C 
ATOM     12  N   LIG    1       -2.800  -5.787   6.148  0.00  0.00    -0.540 N 
ATOM     13  H   LIG    1       -2.691  -6.480   5.424  0.00  0.00    +0.440 HD
ATOM     14  H   LIG    1       -3.573  -5.989   6.764  0.00  0.00    +0.440 HD
ATOM     15  C   LIG    1       -1.541  -5.510   6.875  0.00  0.00    +0.370 C 
ENDBRANCH   6  10
BRANCH   1  16
ATOM     16  C   LIG    1       -1.154  -2.126   0.002  0.00  0.00    +0.290 C 
BRANCH  16  17
ATOM     17  C   LIG    1       -1.295  -0.603   0.011  0.00  0.00    +0.190 C 
BRANCH  17  19
ATOM     18  C   LIG    1       -0.017   1.425   0.010  0.00  0.00    +0.240 C 
ATOM     19  O   LIG    1        0.002  -0.004   0.002  0.00  0.00    -0.400 OA
ENDBRANCH  17  19
ENDBRANCH  16  17
ENDBRANCH   1  16
TORSDOF 4
ENDMDL
MODEL        2
REMARK  Name = ZINC000049812296
REMARK                            x       y       z     vdW  Elec       q    Type
REMARK                         _______ _______ _______ _____ _____    ______ ____
ROOT
ATOM      1  N   LIG    1       -0.780  -2.557  -1.119  0.00  0.00    -0.390 N 
ATOM      2  C   LIG    1       -0.826  -4.009  -0.902  0.00  0.00    +0.270 C 
ATOM      3  C   LIG    1       -2.286  -4.472  -0.869  0.00  0.00    +0.340 C 
ATOM      4  N   LIG    1       -2.947  -4.021  -2.104  0.00  0.00    -0.620 N 
ATOM      5  C   LIG    1       -2.812  -2.607  -2.485  0.00  0.00    +0.320 C 
ATOM      6  C   LIG    1       -3.655  -4.880  -2.864  0.00  0.00    +0.510 C 
ATOM      7  O   LIG    1       -3.756  -6.042  -2.533  0.00  0.00    -0.500 OA
ATOM      8  C   LIG    1       -1.327  -2.233  -2.442  0.00  0.00    +0.260 C 
ATOM      9  H   LIG    1       -1.326  -2.094  -0.408  0.00  0.00    +0.430 HD
ENDROOT
BRANCH   1  10
ATOM     10  C   LIG    1        0.613  -2.097  -1.041  0.00  0.00    +0.300 C 
BRANCH  10  11
ATOM     11  C   LIG    1        0.652  -0.570  -1.138  0.00  0.00    +0.190 C 
BRANCH  11  13
ATOM     12  C   LIG    1       -0.017   1.425   0.010  0.00  0.00    +0.240 C 
ATOM     13  O   LIG    1        0.002  -0.004   0.002  0.00  0.00    -0.400 OA
ENDBRANCH  11  13
ENDBRANCH  10  11
ENDBRANCH   1  10
BRANCH   6  14
ATOM     14  C   LIG    1       -4.324  -4.395  -4.125  0.00  0.00    +0.310 C 
BRANCH  14  15
ATOM     15  N   LIG    1       -5.027  -5.513  -4.767  0.00  0.00    -0.620 N 
ATOM     16  H   LIG    1       -5.474  -5.189  -5.611  0.00  0.00    +0.450 HD
ATOM     17  H   LIG    1       -5.724  -5.879  -4.136  0.00  0.00    +0.450 HD
ATOM     18  H   LIG    1       -4.365  -6.240  -4.995  0.00  0.00    +0.450 HD
ENDBRANCH  14  15
ENDBRANCH   6  14
TORSDOF 5
ENDMDL
MODEL        3
REMARK  Name = ZINC000039293913
REMARK                            x       y       z     vdW  Elec       q    Type
REMARK                         _______ _______ _______ _____ _____    ______ ____
ROOT
ATOM      1  C   LIG    1       -1.027  -2.647  -1.423  0.00  0.00    +0.090 C 
ENDROOT
BRANCH   1   2
ATOM      2  C   LIG    1       -1.244  -2.135   0.003  0.00  0.00    +0.230 C 
BRANCH   2   3
ATOM      3  N   LIG    1       -2.559  -2.577   0.486  0.00  0.00    -0.630 N 
ATOM      4  H   LIG    1       -2.598  -3.585   0.481  0.00  0.00    +0.440 HD
ATOM      5  H   LIG    1       -3.280  -2.209  -0.116  0.00  0.00    +0.440 HD
ATOM      6  H   LIG    1       -2.702  -2.240   1.426  0.00  0.00    +0.450 HD
ENDBRANCH   2   3
BRANCH   2   7
ATOM      7  C   LIG    1       -1.185  -0.630   0.010  0.00  0.00    +0.450 C 
ATOM      8  O   LIG    1       -2.208   0.015   0.023  0.00  0.00    -0.480 OA
BRANCH   7  10
ATOM      9  C   LIG    1       -0.018   1.448   0.010  0.00  0.00    +0.320 C 
ATOM     10  O   LIG    1        0.002  -0.004   0.002  0.00  0.00    -0.330 OA
ENDBRANCH   7  10
ENDBRANCH   2   7
ENDBRANCH   1   2
BRANCH   1  11
ATOM     11  C   LIG    1       -0.962  -4.176  -1.412  0.00  0.00    +0.090 C 
BRANCH  11  12
ATOM     12  C   LIG    1       -0.745  -4.688  -2.837  0.00  0.00    +0.230 C 
BRANCH  12  13
ATOM     13  N   LIG    1       -1.915  -4.354  -3.660  0.00  0.00    -0.630 N 
ATOM     14  H   LIG    1       -1.772  -4.692  -4.601  0.00  0.00    +0.450 HD
ATOM     15  H   LIG    1       -2.040  -3.353  -3.678  0.00  0.00    +0.440 HD
ATOM     16  H   LIG    1       -2.737  -4.789  -3.268  0.00  0.00    +0.440 HD
ENDBRANCH  12  13
BRANCH  12  17
ATOM     17  C   LIG    1       -0.558  -6.183  -2.811  0.00  0.00    +0.450 C 
ATOM     18  O   LIG    1       -1.481  -6.912  -3.090  0.00  0.00    -0.480 OA
BRANCH  17  19
ATOM     19  O   LIG    1        0.633  -6.705  -2.479  0.00  0.00    -0.330 OA
ATOM     20  C   LIG    1        0.740  -8.153  -2.475  0.00  0.00    +0.320 C 
ENDBRANCH  17  19
ENDBRANCH  12  17
ENDBRANCH  11  12
ENDBRANCH   1  11
TORSDOF 9
ENDMDL
MODEL        4
REMARK  Name = ZINC000039293915
REMARK                            x       y       z     vdW  Elec       q    Type
REMARK                         _______ _______ _______ _____ _____    ______ ____
ROOT
ATOM      1  C   LIG    1       -1.000  -2.663   1.418  0.00  0.00    +0.090 C 
ENDROOT
BRANCH   1   2
ATOM      2  C   LIG    1       -1.244  -2.135   0.003  0.00  0.00    +0.230 C 
BRANCH   2   3
ATOM      3  N   LIG    1       -2.568  -2.572  -0.461  0.00  0.00    -0.630 N 
ATOM      4  H   LIG    1       -2.729  -2.224  -1.395  0.00  0.00    +0.460 HD
ATOM      5  H   LIG    1       -3.277  -2.211   0.159  0.00  0.00    +0.440 HD
ATOM      6  H   LIG    1       -2.607  -3.580  -0.466  0.00  0.00    +0.440 HD
ENDBRANCH   2   3
BRANCH   2   7
ATOM      7  C   LIG    1       -1.185  -0.630   0.010  0.00  0.00    +0.450 C 
ATOM      8  O   LIG    1       -2.208   0.015   0.023  0.00  0.00    -0.480 OA
BRANCH   7  10
ATOM      9  C   LIG    1       -0.018   1.448   0.010  0.00  0.00    +0.320 C 
ATOM     10  O   LIG    1        0.002  -0.004   0.002  0.00  0.00    -0.330 OA
ENDBRANCH   7  10
ENDBRANCH   2   7
ENDBRANCH   1   2
BRANCH   1  11
ATOM     11  C   LIG    1       -0.935  -4.191   1.389  0.00  0.00    +0.090 C 
BRANCH  11  12
ATOM     12  C   LIG    1       -0.691  -4.718   2.805  0.00  0.00    +0.230 C 
BRANCH  12  13
ATOM     13  N   LIG    1       -1.845  -4.394   3.654  0.00  0.00    -0.630 N 
ATOM     14  H   LIG    1       -1.970  -3.393   3.684  0.00  0.00    +0.440 HD
ATOM     15  H   LIG    1       -1.684  -4.741   4.587  0.00  0.00    +0.450 HD
ATOM     16  H   LIG    1       -2.675  -4.824   3.273  0.00  0.00    +0.440 HD
ENDBRANCH  12  13
BRANCH  12  17
ATOM     17  C   LIG    1       -0.505  -6.213   2.759  0.00  0.00    +0.450 C 
ATOM     18  O   LIG    1       -1.422  -6.944   3.047  0.00  0.00    -0.480 OA
BRANCH  17  19
ATOM     19  O   LIG    1        0.679  -6.731   2.398  0.00  0.00    -0.330 OA
ATOM     20  C   LIG    1        0.786  -8.179   2.377  0.00  0.00    +0.320 C 
ENDBRANCH  17  19
ENDBRANCH  12  17
ENDBRANCH  11  12
ENDBRANCH   1  11
TORSDOF 9
ENDMDL
MODEL        5
REMARK  Name = ZINC000205691384
REMARK                            x       y       z     vdW  Elec       q    Type
REMARK                         _______ _______ _______ _____ _____    ______ ____
ROOT
ATOM      1  C   LIG    1        0.606  -2.171  -1.026  0.00  0.00    +0.000 C 
ATOM      2  C   LIG    1        1.348  -2.681   0.231  0.00  0.00    +0.310 C 
ATOM      3  N   LIG    1        1.811  -4.042   0.185  0.00  0.00    -0.610 N 
ATOM      4  C   LIG    1        3.175  -4.327  -0.376  0.00  0.00    +0.340 C 
ATOM      5  C   LIG    1        3.119  -4.004  -1.809  0.00  0.00    +0.240 C 
ATOM      6  N   LIG    1        2.752  -2.625  -2.113  0.00  0.00    -0.370 N 
ATOM      7  C   LIG    1        3.424  -2.172  -3.338  0.00  0.00    +0.360 C 
ATOM      8  H   LIG    1        2.985  -2.020  -1.340  0.00  0.00    +0.430 HD
ATOM      9  C   LIG    1        1.034  -5.046   0.637  0.00  0.00    +0.510 C 
ATOM     10  O   LIG    1       -0.067  -4.805   1.088  0.00  0.00    -0.500 OA
ATOM     11  C   LIG    1        1.324  -2.667  -2.303  0.00  0.00    +0.280 C 
ENDROOT
BRANCH   1  15
ATOM     12  C   LIG    1       -0.018   1.461   0.010  0.00  0.00    +0.310 C 
ATOM     13  N   LIG    1        0.002  -0.004   0.002  0.00  0.00    -0.710 N 
ATOM     14  H   LIG    1       -0.404  -0.499   0.731  0.00  0.00    +0.410 HD
ATOM     15  C   LIG    1        0.585  -0.664  -1.018  0.00  0.00    +0.510 C 
ATOM     16  O   LIG    1        1.093  -0.046  -1.929  0.00  0.00    -0.530 OA
ENDBRANCH   1  15
BRANCH   9  17
ATOM     17  C   LIG    1        1.531  -6.467   0.584  0.00  0.00    +0.300 C 
BRANCH  17  18
ATOM     18  N   LIG    1        0.506  -7.366   1.131  0.00  0.00    -0.500 N 
ATOM     19  C   LIG    1        0.991  -8.752   1.079  0.00  0.00    +0.350 C 
ATOM     20  H   LIG    1       -0.339  -7.284   0.586  0.00  0.00    +0.440 HD
ATOM     21  H   LIG    1        0.314  -7.113   2.089  0.00  0.00    +0.440 HD
ENDBRANCH  17  18
ENDBRANCH   9  17
TORSDOF 3
ENDMDL
MODEL        6
REMARK  Name = ZINC000205691408
REMARK                            x       y       z     vdW  Elec       q    Type
REMARK                         _______ _______ _______ _____ _____    ______ ____
ROOT
ATOM      1  C   LIG    1        0.606  -2.171  -1.026  0.00  0.00    -0.010 C 
ATOM      2  C   LIG    1       -0.810  -2.691  -1.009  0.00  0.00    +0.320 C 
ATOM      3  N   LIG    1       -0.888  -4.020  -0.355  0.00  0.00    -0.610 N 
ATOM      4  C   LIG    1        0.192  -5.006  -0.599  0.00  0.00    +0.300 C 
ATOM      5  C   LIG    1        0.645  -4.953  -2.035  0.00  0.00    +0.270 C 
ATOM      6  N   LIG    1        1.757  -4.000  -2.170  0.00  0.00    -0.370 N 
ATOM      7  C   LIG    1        2.537  -4.351  -3.365  0.00  0.00    +0.340 C 
ATOM      8  H   LIG    1        2.353  -4.081  -1.360  0.00  0.00    +0.420 HD
ATOM      9  C   LIG    1       -1.925  -4.327   0.448  0.00  0.00    +0.510 C 
ATOM     10  O   LIG    1       -2.804  -3.514   0.641  0.00  0.00    -0.500 OA
ATOM     11  C   LIG    1        1.331  -2.664  -2.288  0.00  0.00    +0.280 C 
ENDROOT
BRANCH   1  15
ATOM     12  C   LIG    1       -0.018   1.461   0.010  0.00  0.00    +0.310 C 
ATOM     13  N   LIG    1        0.002  -0.004   0.002  0.00  0.00    -0.720 N 
ATOM     14  H   LIG    1       -0.404  -0.499   0.731  0.00  0.00    +0.400 HD
ATOM     15  C   LIG    1        0.585  -0.664  -1.018  0.00  0.00    +0.520 C 
ATOM     16  O   LIG    1        1.093  -0.046  -1.929  0.00  0.00    -0.510 OA
ENDBRANCH   1  15
BRANCH   9  17
ATOM     17  C   LIG    1       -1.994  -5.681   1.107  0.00  0.00    +0.310 C 
BRANCH  17  18
ATOM     18  N   LIG    1       -3.211  -5.766   1.925  0.00  0.00    -0.500 N 
ATOM     19  C   LIG    1       -3.278  -7.086   2.567  0.00  0.00    +0.350 C 
ATOM     20  H   LIG    1       -4.021  -5.637   1.337  0.00  0.00    +0.440 HD
ATOM     21  H   LIG    1       -3.192  -5.048   2.634  0.00  0.00    +0.440 HD
ENDBRANCH  17  18
ENDBRANCH   9  17
TORSDOF 3
ENDMDL
MODEL        7
REMARK  Name = ZINC000225503403
REMARK                            x       y       z     vdW  Elec       q    Type
REMARK                         _______ _______ _______ _____ _____    ______ ____
ROOT
ATOM      1  C   LIG    1        1.976  -4.582  -1.175  0.00  0.00    +0.180 C 
ATOM      2  C   LIG    1        1.782  -6.110  -1.257  0.00  0.00    +0.090 C 
ATOM      3  C   LIG    1        3.163  -6.644  -1.714  0.00  0.00    +0.030 C 
ATOM      4  C   LIG    1        4.152  -5.729  -0.951  0.00  0.00    +0.160 C 
ATOM      5  C   LIG    1        3.483  -4.338  -0.980  0.00  0.00    +0.120 C 
ENDROOT
BRANCH   1   6
ATOM      6  N   LIG    1        1.227  -4.040  -0.032  0.00  0.00    -0.500 N 
ATOM      7  H   LIG    1        0.257  -4.306  -0.110  0.00  0.00    +0.440 HD
ATOM      8  H   LIG    1        1.609  -4.410   0.826  0.00  0.00    +0.440 HD
BRANCH   6  13
ATOM      9  C   LIG    1       -0.018   1.465   0.010  0.00  0.00    +0.340 C 
ATOM     10  N   LIG    1        0.002  -0.004   0.002  0.00  0.00    -0.390 N 
ATOM     11  C   LIG    1        0.709  -0.489   1.194  0.00  0.00    +0.290 C 
ATOM     12  C   LIG    1        0.663  -2.018   1.232  0.00  0.00    +0.080 C 
ATOM     13  C   LIG    1        1.336  -2.575  -0.025  0.00  0.00    +0.170 C 
ATOM     14  C   LIG    1        0.637  -2.005  -1.263  0.00  0.00    +0.080 C 
ATOM     15  C   LIG    1        0.686  -0.476  -1.208  0.00  0.00    +0.290 C 
ATOM     16  H   LIG    1       -0.945  -0.352   0.009  0.00  0.00    +0.430 HD
ENDBRANCH   6  13
ENDBRANCH   1   6
BRANCH   4  17
ATOM     17  O   LIG    1        5.416  -5.692  -1.618  0.00  0.00    -0.520 OA
ATOM     18  H   LIG    1        6.074  -5.134  -1.183  0.00  0.00    +0.380 HD
ENDBRANCH   4  17
BRANCH   5  19
ATOM     19  O   LIG    1        4.001  -3.569  -2.067  0.00  0.00    -0.540 OA
ATOM     20  H   LIG    1        4.951  -3.401  -2.012  0.00  0.00    +0.410 HD
ENDBRANCH   5  19
BRANCH   3  21
ATOM     21  C   LIG    1        3.342  -8.106  -1.302  0.00  0.00    +0.190 C 
BRANCH  21  22
ATOM     22  O   LIG    1        4.570  -8.604  -1.836  0.00  0.00    -0.560 OA
ATOM     23  H   LIG    1        4.749  -9.528  -1.614  0.00  0.00    +0.390 HD
ENDBRANCH  21  22
ENDBRANCH   3  21
TORSDOF 6
ENDMDL
MODEL        8
REMARK  Name = ZINC000257254795
REMARK                            x       y       z     vdW  Elec       q    Type
REMARK                         _______ _______ _______ _____ _____    ______ ____
ROOT
ATOM      1  C   LIG    1       -1.359  -2.014  -0.120  0.00  0.00    +0.500 C 
ATOM      2  N   LIG    1       -2.517  -2.702  -0.134  0.00  0.00    -0.610 N 
ATOM      3  C   LIG    1       -3.784  -1.954  -0.024  0.00  0.00    +0.310 C 
ATOM      4  C   LIG    1       -4.853  -2.488  -0.993  0.00  0.00    +0.280 C 
ATOM      5  N   LIG    1       -4.232  -2.809  -2.263  0.00  0.00    -0.370 N 
ATOM      6  C   LIG    1       -3.885  -4.227  -2.278  0.00  0.00    +0.290 C 
ATOM      7  C   LIG    1       -2.541  -4.543  -1.753  0.00  0.00    -0.020 C 
ATOM      8  C   LIG    1       -5.171  -2.519  -3.355  0.00  0.00    +0.340 C 
ATOM      9  H   LIG    1       -3.397  -2.255  -2.380  0.00  0.00    +0.410 HD
ATOM     10  C   LIG    1       -2.464  -4.145  -0.262  0.00  0.00    +0.330 C 
ATOM     11  O   LIG    1       -0.302  -2.602  -0.213  0.00  0.00    -0.490 OA
ENDROOT
BRANCH   7  12
ATOM     12  C   LIG    1       -2.281  -6.020  -1.894  0.00  0.00    +0.530 C 
ATOM     13  O   LIG    1       -3.127  -6.740  -2.382  0.00  0.00    -0.520 OA
ATOM     14  N   LIG    1       -1.110  -6.541  -1.478  0.00  0.00    -0.840 N 
ATOM     15  H   LIG    1       -0.943  -7.492  -1.569  0.00  0.00    +0.420 HD
ATOM     16  H   LIG    1       -0.434  -5.965  -1.088  0.00  0.00    +0.410 HD
ENDBRANCH   7  12
BRANCH   1  17
ATOM     17  C   LIG    1       -1.376  -0.512   0.012  0.00  0.00    +0.290 C 
BRANCH  17  19
ATOM     18  C   LIG    1       -0.018   1.465   0.010  0.00  0.00    +0.350 C 
ATOM     19  N   LIG    1        0.002  -0.004   0.002  0.00  0.00    -0.370 N 
ATOM     20  C   LIG    1        0.713  -0.491   1.192  0.00  0.00    +0.330 C 
ATOM     21  H   LIG    1        0.474  -0.330  -0.828  0.00  0.00    +0.430 HD
ENDBRANCH  17  19
ENDBRANCH   1  17
TORSDOF 3
ENDMDL
MODEL        9
REMARK  Name = ZINC000257254795
REMARK                            x       y       z     vdW  Elec       q    Type
REMARK                         _______ _______ _______ _____ _____    ______ ____
ROOT
ATOM      1  C   LIG    1       -1.359  -2.014  -0.120  0.00  0.00    +0.510 C 
ATOM      2  N   LIG    1       -2.517  -2.702  -0.134  0.00  0.00    -0.610 N 
ATOM      3  C   LIG    1       -3.833  -1.986  -0.025  0.00  0.00    +0.340 C 
ATOM      4  C   LIG    1       -4.517  -2.158  -1.315  0.00  0.00    +0.240 C 
ATOM      5  N   LIG    1       -4.754  -3.546  -1.702  0.00  0.00    -0.370 N 
ATOM      6  C   LIG    1       -3.618  -3.890  -2.523  0.00  0.00    +0.280 C 
ATOM      7  C   LIG    1       -2.596  -4.700  -1.691  0.00  0.00    +0.000 C 
ATOM      8  C   LIG    1       -6.000  -3.657  -2.471  0.00  0.00    +0.360 C 
ATOM      9  H   LIG    1       -4.791  -4.137  -0.885  0.00  0.00    +0.430 HD
ATOM     10  C   LIG    1       -2.514  -4.136  -0.259  0.00  0.00    +0.310 C 
ATOM     11  O   LIG    1       -0.302  -2.602  -0.213  0.00  0.00    -0.490 OA
ENDROOT
BRANCH   7  12
ATOM     12  C   LIG    1       -3.028  -6.142  -1.635  0.00  0.00    +0.520 C 
ATOM     13  O   LIG    1       -4.044  -6.493  -2.198  0.00  0.00    -0.530 OA
ATOM     14  N   LIG    1       -2.287  -7.043  -0.960  0.00  0.00    -0.830 N 
ATOM     15  H   LIG    1       -2.566  -7.971  -0.924  0.00  0.00    +0.420 HD
ATOM     16  H   LIG    1       -1.475  -6.762  -0.510  0.00  0.00    +0.410 HD
ENDBRANCH   7  12
BRANCH   1  17
ATOM     17  C   LIG    1       -1.376  -0.512   0.012  0.00  0.00    +0.290 C 
BRANCH  17  19
ATOM     18  C   LIG    1       -0.018   1.465   0.010  0.00  0.00    +0.350 C 
ATOM     19  N   LIG    1        0.002  -0.004   0.002  0.00  0.00    -0.370 N 
ATOM     20  C   LIG    1        0.713  -0.491   1.192  0.00  0.00    +0.330 C 
ATOM     21  H   LIG    1        0.474  -0.330  -0.828  0.00  0.00    +0.440 HD
ENDBRANCH  17  19
ENDBRANCH   1  17
TORSDOF 3
ENDMDL
MODEL       10
REMARK  Name = ZINC000257254794
REMARK                            x       y       z     vdW  Elec       q    Type
REMARK                         _______ _______ _______ _____ _____    ______ ____
ROOT
ATOM      1  C   LIG    1       -1.548  -1.797   0.310  0.00  0.00    +0.500 C 
ATOM      2  N   LIG    1       -2.658  -2.550   0.187  0.00  0.00    -0.600 N 
ATOM      3  C   LIG    1       -3.950  -1.926   0.384  0.00  0.00    +0.320 C 
ATOM      4  C   LIG    1       -4.362  -2.031   1.871  0.00  0.00    +0.240 C 
ATOM      5  N   LIG    1       -4.678  -3.369   2.197  0.00  0.00    -0.380 N 
ATOM      6  C   LIG    1       -3.564  -4.308   2.092  0.00  0.00    +0.300 C 
ATOM      7  C   LIG    1       -3.492  -4.842   0.679  0.00  0.00    +0.020 C 
ATOM      8  C   LIG    1       -5.181  -3.403   3.577  0.00  0.00    +0.330 C 
ATOM      9  H   LIG    1       -5.416  -3.680   1.583  0.00  0.00    +0.410 HD
ATOM     10  C   LIG    1       -2.515  -3.981  -0.150  0.00  0.00    +0.360 C 
ATOM     11  O   LIG    1       -0.455  -2.297   0.145  0.00  0.00    -0.500 OA
ENDROOT
BRANCH   7  12
ATOM     12  C   LIG    1       -4.861  -4.787   0.051  0.00  0.00    +0.480 C 
ATOM     13  O   LIG    1       -5.026  -4.189  -0.992  0.00  0.00    -0.490 OA
ATOM     14  N   LIG    1       -5.901  -5.402   0.647  0.00  0.00    -0.850 N 
ATOM     15  H   LIG    1       -6.782  -5.367   0.243  0.00  0.00    +0.430 HD
ATOM     16  H   LIG    1       -5.769  -5.880   1.481  0.00  0.00    +0.410 HD
ENDBRANCH   7  12
BRANCH   1  17
ATOM     17  C   LIG    1       -1.663  -0.334   0.653  0.00  0.00    +0.290 C 
BRANCH  17  19
ATOM     18  C   LIG    1       -0.437   1.707   0.945  0.00  0.00    +0.350 C 
ATOM     19  N   LIG    1       -0.321   0.259   0.729  0.00  0.00    -0.380 N 
ATOM     20  C   LIG    1        0.418  -0.345   1.846  0.00  0.00    +0.330 C 
ATOM     21  H   LIG    1        0.172   0.086  -0.134  0.00  0.00    +0.440 HD
ENDBRANCH  17  19
ENDBRANCH   1  17
TORSDOF 3
ENDMDL
MODEL       11
REMARK  Name = ZINC000257254794
REMARK                            x       y       z     vdW  Elec       q    Type
REMARK                         _______ _______ _______ _____ _____    ______ ____
ROOT
ATOM      1  C   LIG    1       -1.359  -2.014  -0.120  0.00  0.00    +0.510 C 
ATOM      2  N   LIG    1       -2.517  -2.702  -0.134  0.00  0.00    -0.610 N 
ATOM      3  C   LIG    1       -3.777  -2.019  -0.030  0.00  0.00    +0.300 C 
ATOM      4  C   LIG    1       -4.346  -1.826   1.393  0.00  0.00    +0.260 C 
ATOM      5  N   LIG    1       -4.169  -3.058   2.208  0.00  0.00    -0.380 N 
ATOM      6  C   LIG    1       -4.403  -4.228   1.402  0.00  0.00    +0.310 C 
ATOM      7  C   LIG    1       -3.015  -4.724   1.019  0.00  0.00    -0.040 C 
ATOM      8  C   LIG    1       -5.121  -3.043   3.326  0.00  0.00    +0.340 C 
ATOM      9  H   LIG    1       -3.228  -3.085   2.571  0.00  0.00    +0.420 HD
ATOM     10  C   LIG    1       -2.518  -4.202  -0.265  0.00  0.00    +0.360 C 
ATOM     11  O   LIG    1       -0.302  -2.602  -0.213  0.00  0.00    -0.490 OA
ENDROOT
BRANCH   7  12
ATOM     12  C   LIG    1       -3.050  -6.229   0.936  0.00  0.00    +0.520 C 
ATOM     13  O   LIG    1       -4.082  -6.824   1.161  0.00  0.00    -0.510 OA
ATOM     14  N   LIG    1       -1.935  -6.912   0.610  0.00  0.00    -0.840 N 
ATOM     15  H   LIG    1       -1.958  -7.880   0.557  0.00  0.00    +0.420 HD
ATOM     16  H   LIG    1       -1.110  -6.436   0.430  0.00  0.00    +0.410 HD
ENDBRANCH   7  12
BRANCH   1  17
ATOM     17  C   LIG    1       -1.376  -0.512   0.012  0.00  0.00    +0.290 C 
BRANCH  17  19
ATOM     18  C   LIG    1       -0.018   1.465   0.010  0.00  0.00    +0.350 C 
ATOM     19  N   LIG    1        0.002  -0.004   0.002  0.00  0.00    -0.380 N 
ATOM     20  C   LIG    1        0.713  -0.491   1.192  0.00  0.00    +0.330 C 
ATOM     21  H   LIG    1        0.474  -0.330  -0.828  0.00  0.00    +0.440 HD
ENDBRANCH  17  19
ENDBRANCH   1  17
TORSDOF 3
ENDMDL
MODEL       12
REMARK  Name = ZINC000020465675
REMARK                            x       y       z     vdW  Elec       q    Type
REMARK                         _______ _______ _______ _____ _____    ______ ____
ROOT
ATOM      1  C   LIG    1       -1.376  -0.512   0.012  0.00  0.00    +0.190 C 
ATOM      2  C   LIG    1       -1.385  -2.055  -0.074  0.00  0.00    +0.170 C 
ATOM      3  O   LIG    1       -1.461  -2.501   1.298  0.00  0.00    -0.340 OA
ATOM      4  C   LIG    1       -2.393  -1.603   1.938  0.00  0.00    +0.170 C 
ATOM      5  C   LIG    1       -2.056  -0.205   1.365  0.00  0.00    +0.200 C 
ENDROOT
BRANCH   1   7
ATOM      6  C   LIG    1       -0.018   1.465   0.010  0.00  0.00    +0.360 C 
ATOM      7  N   LIG    1        0.002  -0.004   0.002  0.00  0.00    -0.500 N 
ATOM      8  H   LIG    1        0.490  -0.338   0.820  0.00  0.00    +0.440 HD
ATOM      9  H   LIG    1        0.474  -0.330  -0.828  0.00  0.00    +0.420 HD
ENDBRANCH   1   7
BRANCH   5  10
ATOM     10  O   LIG    1       -1.158   0.489   2.234  0.00  0.00    -0.570 OA
ATOM     11  H   LIG    1       -1.514   0.652   3.118  0.00  0.00    +0.420 HD
ENDBRANCH   5  10
BRANCH   4  12
ATOM     12  C   LIG    1       -2.195  -1.622   3.455  0.00  0.00    +0.220 C 
BRANCH  12  13
ATOM     13  O   LIG    1       -2.555  -2.907   3.967  0.00  0.00    -0.560 OA
ATOM     14  H   LIG    1       -2.454  -2.991   4.925  0.00  0.00    +0.400 HD
ENDBRANCH  12  13
ENDBRANCH   4  12
BRANCH   2  15
ATOM     15  C   LIG    1       -0.097  -2.559  -0.729  0.00  0.00    +0.270 C 
BRANCH  15  16
ATOM     16  N   LIG    1       -0.177  -4.014  -0.910  0.00  0.00    -0.500 N 
ATOM     17  H   LIG    1       -0.965  -4.237  -1.501  0.00  0.00    +0.440 HD
ATOM     18  H   LIG    1       -0.294  -4.459  -0.012  0.00  0.00    +0.440 HD
BRANCH  16  19
ATOM     19  C   LIG    1        1.059  -4.498  -1.540  0.00  0.00    +0.160 C 
ATOM     20  C   LIG    1        0.926  -5.992  -1.842  0.00  0.00    +0.100 C 
ATOM     21  C   LIG    1        2.237  -4.272  -0.590  0.00  0.00    +0.090 C 
ENDBRANCH  16  19
ENDBRANCH  15  16
ENDBRANCH   2  15
TORSDOF 7
ENDMDL
MODEL       13
REMARK  Name = ZINC000409429299
REMARK                            x       y       z     vdW  Elec       q    Type
REMARK                         _______ _______ _______ _____ _____    ______ ____
ROOT
ATOM      1  N   LIG    1        0.035   0.979   4.905  0.00  0.00    -0.360 N 
ATOM      2  C   LIG    1        1.369   1.556   4.925  0.00  0.00    +0.260 C 
ATOM      3  C   LIG    1        1.322   3.067   4.985  0.00  0.00    +0.110 C 
ATOM      4  C   LIG    1        0.364   3.628   5.982  0.00  0.00    +0.000 C 
ATOM      5  C   LIG    1        1.004   4.023   7.288  0.00  0.00    +0.530 C 
ATOM      6  N   LIG    1        0.191   3.641   8.287  0.00  0.00    -0.680 N 
ATOM      7  H   LIG    1        0.381   3.827   9.220  0.00  0.00    +0.430 HD
ATOM      8  C   LIG    1       -0.903   2.980   7.885  0.00  0.00    +0.530 C 
ATOM      9  O   LIG    1       -1.796   2.590   8.607  0.00  0.00    -0.440 OA
ATOM     10  O   LIG    1        2.069   4.588   7.416  0.00  0.00    -0.440 OA
ATOM     11  C   LIG    1       -0.831   2.789   6.388  0.00  0.00    +0.020 C 
ATOM     12  C   LIG    1       -0.733   1.321   6.080  0.00  0.00    +0.300 C 
ATOM     13  H   LIG    1        0.115  -0.026   4.848  0.00  0.00    +0.440 HD
ENDROOT
BRANCH   1  14
ATOM     14  C   LIG    1       -0.675   1.465   3.715  0.00  0.00    +0.270 C 
BRANCH  14  15
ATOM     15  C   LIG    1        0.041   0.972   2.456  0.00  0.00    +0.040 C 
BRANCH  15  16
ATOM     16  C   LIG    1       -0.699   1.479   1.216  0.00  0.00    +0.300 C 
BRANCH  16  17
ATOM     17  N   LIG    1       -0.012   1.005   0.008  0.00  0.00    -0.640 N 
ATOM     18  H   LIG    1       -0.500   1.339  -0.810  0.00  0.00    +0.450 HD
ATOM     19  H   LIG    1        0.935   1.354   0.000  0.00  0.00    +0.440 HD
ATOM     20  H   LIG    1        0.002  -0.004   0.002  0.00  0.00    +0.440 HD
ENDBRANCH  16  17
ENDBRANCH  15  16
ENDBRANCH  14  15
ENDBRANCH   1  14
TORSDOF 4
ENDMDL
MODEL       14
REMARK  Name = ZINC000409429301
REMARK                            x       y       z     vdW  Elec       q    Type
REMARK                         _______ _______ _______ _____ _____    ______ ____
ROOT
ATOM      1  N   LIG    1        0.035   0.979   4.905  0.00  0.00    -0.390 N 
ATOM      2  C   LIG    1        1.378   1.556   4.919  0.00  0.00    +0.260 C 
ATOM      3  C   LIG    1        2.168   1.174   6.188  0.00  0.00    +0.120 C 
ATOM      4  C   LIG    1        1.330   1.650   7.355  0.00  0.00    -0.010 C 
ATOM      5  C   LIG    1        1.772   1.369   8.755  0.00  0.00    +0.540 C 
ATOM      6  N   LIG    1        0.631   1.177   9.474  0.00  0.00    -0.690 N 
ATOM      7  H   LIG    1        0.610   1.157  10.444  0.00  0.00    +0.430 HD
ATOM      8  C   LIG    1       -0.476   1.015   8.698  0.00  0.00    +0.560 C 
ATOM      9  O   LIG    1       -1.633   1.044   9.060  0.00  0.00    -0.440 OA
ATOM     10  O   LIG    1        2.911   1.323   9.166  0.00  0.00    -0.430 OA
ATOM     11  C   LIG    1        0.017   0.812   7.295  0.00  0.00    -0.030 C 
ATOM     12  C   LIG    1       -0.756   1.324   6.105  0.00  0.00    +0.340 C 
ATOM     13  H   LIG    1        0.114  -0.026   4.846  0.00  0.00    +0.430 HD
ENDROOT
BRANCH   1  14
ATOM     14  C   LIG    1       -0.675   1.465   3.715  0.00  0.00    +0.290 C 
BRANCH  14  15
ATOM     15  C   LIG    1        0.041   0.972   2.456  0.00  0.00    +0.030 C 
BRANCH  15  16
ATOM     16  C   LIG    1       -0.699   1.479   1.216  0.00  0.00    +0.300 C 
BRANCH  16  17
ATOM     17  N   LIG    1       -0.012   1.005   0.008  0.00  0.00    -0.640 N 
ATOM     18  H   LIG    1       -0.500   1.339  -0.810  0.00  0.00    +0.450 HD
ATOM     19  H   LIG    1        0.935   1.354   0.000  0.00  0.00    +0.440 HD
ATOM     20  H   LIG    1        0.002  -0.004   0.002  0.00  0.00    +0.440 HD
ENDBRANCH  16  17
ENDBRANCH  15  16
ENDBRANCH  14  15
ENDBRANCH   1  14
TORSDOF 4
ENDMDL
MODEL       15
REMARK  Name = ZINC000409429296
REMARK                            x       y       z     vdW  Elec       q    Type
REMARK                         _______ _______ _______ _____ _____    ______ ____
ROOT
ATOM      1  N   LIG    1        0.035   0.979   4.905  0.00  0.00    -0.380 N 
ATOM      2  C   LIG    1        1.414   1.461   4.860  0.00  0.00    +0.260 C 
ATOM      3  C   LIG    1        1.511   2.994   4.980  0.00  0.00    +0.120 C 
ATOM      4  C   LIG    1        0.805   3.365   6.263  0.00  0.00    -0.010 C 
ATOM      5  C   LIG    1        0.625   4.801   6.636  0.00  0.00    +0.540 C 
ATOM      6  N   LIG    1       -0.566   4.868   7.293  0.00  0.00    -0.690 N 
ATOM      7  H   LIG    1       -0.849   5.642   7.804  0.00  0.00    +0.430 HD
ATOM      8  C   LIG    1       -1.320   3.742   7.162  0.00  0.00    +0.560 C 
ATOM      9  O   LIG    1       -2.304   3.442   7.803  0.00  0.00    -0.430 OA
ATOM     10  O   LIG    1        1.383   5.717   6.402  0.00  0.00    -0.430 OA
ATOM     11  C   LIG    1       -0.682   2.939   6.070  0.00  0.00    -0.030 C 
ATOM     12  C   LIG    1       -0.691   1.431   6.113  0.00  0.00    +0.330 C 
ATOM     13  H   LIG    1        0.043  -0.030   4.889  0.00  0.00    +0.440 HD
ENDROOT
BRANCH   1  14
ATOM     14  C   LIG    1       -0.675   1.465   3.715  0.00  0.00    +0.270 C 
BRANCH  14  15
ATOM     15  C   LIG    1       -0.037   0.867   2.459  0.00  0.00    +0.040 C 
BRANCH  15  16
ATOM     16  C   LIG    1       -0.777   1.373   1.220  0.00  0.00    +0.290 C 
BRANCH  16  17
ATOM     17  N   LIG    1       -0.165   0.799   0.015  0.00  0.00    -0.640 N 
ATOM     18  H   LIG    1       -0.653   1.133  -0.803  0.00  0.00    +0.450 HD
ATOM     19  H   LIG    1        0.804   1.076  -0.035  0.00  0.00    +0.440 HD
ATOM     20  H   LIG    1       -0.225  -0.208   0.054  0.00  0.00    +0.440 HD
ENDBRANCH  16  17
ENDBRANCH  15  16
ENDBRANCH  14  15
ENDBRANCH   1  14
TORSDOF 4
ENDMDL
MODEL       16
REMARK  Name = ZINC000409429300
REMARK                            x       y       z     vdW  Elec       q    Type
REMARK                         _______ _______ _______ _____ _____    ______ ____
ROOT
ATOM      1  N   LIG    1        0.035   0.979   4.905  0.00  0.00    -0.370 N 
ATOM      2  C   LIG    1        1.367   1.559   4.929  0.00  0.00    +0.270 C 
ATOM      3  C   LIG    1        1.331   3.067   4.991  0.00  0.00    +0.100 C 
ATOM      4  C   LIG    1        0.436   3.629   6.071  0.00  0.00    +0.030 C 
ATOM      5  C   LIG    1       -0.213   4.901   5.538  0.00  0.00    +0.520 C 
ATOM      6  N   LIG    1       -1.536   4.708   5.449  0.00  0.00    -0.680 N 
ATOM      7  H   LIG    1       -2.142   5.376   5.092  0.00  0.00    +0.430 HD
ATOM      8  C   LIG    1       -1.952   3.513   5.898  0.00  0.00    +0.520 C 
ATOM      9  O   LIG    1       -3.092   3.102   5.871  0.00  0.00    -0.450 OA
ATOM     10  O   LIG    1        0.373   5.921   5.243  0.00  0.00    -0.440 OA
ATOM     11  C   LIG    1       -0.751   2.765   6.448  0.00  0.00    +0.020 C 
ATOM     12  C   LIG    1       -0.731   1.325   6.084  0.00  0.00    +0.320 C 
ATOM     13  H   LIG    1        0.116  -0.026   4.850  0.00  0.00    +0.440 HD
ENDROOT
BRANCH   1  14
ATOM     14  C   LIG    1       -0.675   1.465   3.715  0.00  0.00    +0.260 C 
BRANCH  14  15
ATOM     15  C   LIG    1        0.041   0.972   2.456  0.00  0.00    +0.050 C 
BRANCH  15  16
ATOM     16  C   LIG    1       -0.699   1.479   1.216  0.00  0.00    +0.290 C 
BRANCH  16  17
ATOM     17  N   LIG    1       -0.012   1.005   0.008  0.00  0.00    -0.640 N 
ATOM     18  H   LIG    1       -0.500   1.339  -0.810  0.00  0.00    +0.450 HD
ATOM     19  H   LIG    1        0.935   1.354   0.000  0.00  0.00    +0.440 HD
ATOM     20  H   LIG    1        0.002  -0.004   0.002  0.00  0.00    +0.440 HD
ENDBRANCH  16  17
ENDBRANCH  15  16
ENDBRANCH  14  15
ENDBRANCH   1  14
TORSDOF 4
ENDMDL
MODEL       17
REMARK  Name = ZINC000387477523
REMARK                            x       y       z     vdW  Elec       q    Type
REMARK                         _______ _______ _______ _____ _____    ______ ____
ROOT
ATOM      1  O   LIG    1        0.002  -0.004   0.002  0.00  0.00    -0.430 OA
ATOM      2  C   LIG    1       -0.014   1.208   0.009  0.00  0.00    +0.530 C 
ATOM      3  N   LIG    1       -1.117   1.966   0.029  0.00  0.00    -0.670 N 
ATOM      4  H   LIG    1       -2.011   1.592   0.039  0.00  0.00    +0.440 HD
ATOM      5  C   LIG    1       -0.884   3.284   0.033  0.00  0.00    +0.530 C 
ATOM      6  C   LIG    1        0.608   3.530   0.013  0.00  0.00    +0.030 C 
ATOM      7  C   LIG    1        1.001   4.157  -1.341  0.00  0.00    +0.310 C 
ATOM      8  N   LIG    1        2.204   3.401  -1.772  0.00  0.00    -0.390 N 
ATOM      9  C   LIG    1        1.906   1.996  -1.393  0.00  0.00    +0.310 C 
ATOM     10  H   LIG    1        3.022   3.732  -1.284  0.00  0.00    +0.440 HD
ATOM     11  O   LIG    1       -1.736   4.146   0.051  0.00  0.00    -0.430 OA
ATOM     12  C   LIG    1        1.208   2.099   0.002  0.00  0.00    +0.040 C 
ENDROOT
BRANCH   8  13
ATOM     13  C   LIG    1        2.390   3.516  -3.224  0.00  0.00    +0.180 C 
ATOM     14  C   LIG    1        2.578   4.988  -3.602  0.00  0.00    +0.090 C 
ATOM     15  C   LIG    1        2.850   5.093  -5.104  0.00  0.00    +0.300 C 
ATOM     16  N   LIG    1        4.067   4.343  -5.438  0.00  0.00    -0.510 N 
ATOM     17  C   LIG    1        3.868   2.918  -5.145  0.00  0.00    +0.300 C 
ATOM     18  H   LIG    1        4.838   4.692  -4.889  0.00  0.00    +0.430 HD
ATOM     19  H   LIG    1        4.273   4.458  -6.418  0.00  0.00    +0.450 HD
ATOM     20  C   LIG    1        3.635   2.729  -3.645  0.00  0.00    +0.090 C 
ENDBRANCH   8  13
TORSDOF 1
ENDMDL
