MODEL        1
REMARK  Name = ZINC000045887878
REMARK                            x       y       z     vdW  Elec       q    Type
REMARK                         _______ _______ _______ _____ _____    ______ ____
ROOT
ATOM      1  N   LIG    1        0.052  -3.250   1.418  0.00  0.00    -0.520 N 
ATOM      2  C   LIG    1        0.074  -4.603   0.850  0.00  0.00    +0.310 C 
ATOM      3  C   LIG    1       -0.346  -5.541   2.004  0.00  0.00    -0.080 C 
ATOM      4  C   LIG    1        0.067  -4.717   3.246  0.00  0.00    +0.110 C 
ATOM      5  C   LIG    1        0.059  -3.284   2.762  0.00  0.00    +0.520 C 
ATOM      6  O   LIG    1        0.053  -2.308   3.481  0.00  0.00    -0.500 OA
ENDROOT
BRANCH   1  11
ATOM      7  C   LIG    1       -0.018   1.461   0.010  0.00  0.00    +0.420 C 
ATOM      8  N   LIG    1        0.002  -0.004   0.002  0.00  0.00    -0.210 N 
ATOM      9  N   LIG    1        0.008  -0.765  -1.039  0.00  0.00    +0.010 NA
ATOM     10  N   LIG    1        0.026  -1.997  -0.673  0.00  0.00    -0.320 NA
ATOM     11  C   LIG    1        0.033  -2.075   0.658  0.00  0.00    +0.440 A 
ATOM     12  N   LIG    1        0.024  -0.845   1.127  0.00  0.00    -0.300 NA
ENDBRANCH   1  11
BRANCH   3  13
ATOM     13  C   LIG    1        0.411  -6.843   1.943  0.00  0.00    +0.510 C 
ATOM     14  O   LIG    1        0.780  -7.283   0.868  0.00  0.00    -0.690 OA
ATOM     15  O   LIG    1        0.653  -7.455   2.969  0.00  0.00    -0.690 OA
ENDBRANCH   3  13
TORSDOF 2
ENDMDL
MODEL        2
REMARK  Name = ZINC000017020202
REMARK                            x       y       z     vdW  Elec       q    Type
REMARK                         _______ _______ _______ _____ _____    ______ ____
ROOT
ATOM      1  O   LIG    1        0.002  -0.004   0.002  0.00  0.00    -0.590 OA
ATOM      2  C   LIG    1       -0.014   1.212   0.009  0.00  0.00    +0.630 A 
ATOM      3  N   LIG    1       -1.195   1.859   0.029  0.00  0.00    -0.670 NA
ATOM      4  C   LIG    1       -1.226   3.207   0.037  0.00  0.00    +0.520 A 
ATOM      5  C   LIG    1        0.037   3.951   0.023  0.00  0.00    -0.570 A 
ATOM      6  N   LIG    1        1.161   3.290   0.004  0.00  0.00    -0.080 NA
ATOM      7  O   LIG    1       -2.289   3.799   0.056  0.00  0.00    -0.550 OA
ATOM      8  N   LIG    1        1.147   1.890   0.001  0.00  0.00    -0.570 N 
ATOM      9  H   LIG    1        1.986   1.403  -0.013  0.00  0.00    +0.420 HD
ENDROOT
BRANCH   5  10
ATOM     10  S   LIG    1        0.037   5.713   0.034  0.00  0.00    +2.740 S 
ATOM     11  O   LIG    1       -1.041   6.119  -0.798  0.00  0.00    -0.920 OA
ATOM     12  O   LIG    1        1.382   6.115  -0.185  0.00  0.00    -0.950 OA
BRANCH  10  13
ATOM     13  N   LIG    1       -0.350   6.194   1.571  0.00  0.00    -1.000 NA
ATOM     14  C   LIG    1       -1.709   6.438   2.075  0.00  0.00    +0.270 C 
ATOM     15  C   LIG    1       -1.579   6.891   3.544  0.00  0.00    +0.020 C 
ATOM     16  C   LIG    1       -0.122   7.420   3.616  0.00  0.00    +0.030 C 
ATOM     17  C   LIG    1        0.610   6.442   2.661  0.00  0.00    +0.260 C 
ENDBRANCH  10  13
ENDBRANCH   5  10
TORSDOF 2
ENDMDL
MODEL        3
REMARK  Name = ZINC000005163044
REMARK                            x       y       z     vdW  Elec       q    Type
REMARK                         _______ _______ _______ _____ _____    ______ ____
ROOT
ATOM      1  C   LIG    1        0.002  -0.004   0.002  0.00  0.00    +0.500 A 
ATOM      2  C   LIG    1       -1.195  -0.739   0.004  0.00  0.00    -0.110 A 
ATOM      3  N   LIG    1       -2.511  -0.417   0.012  0.00  0.00    -0.480 NA
ATOM      4  C   LIG    1       -3.224  -1.506   0.010  0.00  0.00    +0.470 A 
ATOM      5  N   LIG    1       -2.407  -2.597  -0.001  0.00  0.00    -0.460 N 
ATOM      6  C   LIG    1       -1.113  -2.142  -0.005  0.00  0.00    +0.310 A 
ATOM      7  N   LIG    1        0.085  -2.718  -0.015  0.00  0.00    -0.540 NA
ATOM      8  C   LIG    1        1.181  -1.989  -0.016  0.00  0.00    +0.550 A 
ATOM      9  N   LIG    1        1.153  -0.668  -0.013  0.00  0.00    -0.600 NA
ENDROOT
BRANCH   1  10
ATOM     10  N   LIG    1       -0.017   1.380   0.010  0.00  0.00    -0.830 N 
ATOM     11  H   LIG    1       -0.863   1.853   0.016  0.00  0.00    +0.420 HD
ATOM     12  H   LIG    1        0.817   1.876   0.004  0.00  0.00    +0.410 HD
ENDBRANCH   1  10
BRANCH   5  13
ATOM     13  C   LIG    1       -2.833  -3.999  -0.007  0.00  0.00    +0.290 C 
BRANCH  13  14
ATOM     14  C   LIG    1       -2.853  -4.532   1.427  0.00  0.00    +0.120 C 
BRANCH  14  15
ATOM     15  C   LIG    1       -3.408  -5.934   1.434  0.00  0.00    +0.480 C 
ATOM     16  O   LIG    1       -4.566  -6.132   1.111  0.00  0.00    -0.690 OA
ATOM     17  O   LIG    1       -2.697  -6.869   1.762  0.00  0.00    -0.680 OA
ENDBRANCH  14  15
BRANCH  14  18
ATOM     18  O   LIG    1       -1.523  -4.544   1.950  0.00  0.00    -0.550 OA
ATOM     19  H   LIG    1       -0.908  -5.096   1.448  0.00  0.00    +0.370 HD
ENDBRANCH  14  18
ENDBRANCH  13  14
ENDBRANCH   5  13
TORSDOF 5
ENDMDL
MODEL        4
REMARK  Name = ZINC000409418944
REMARK                            x       y       z     vdW  Elec       q    Type
REMARK                         _______ _______ _______ _____ _____    ______ ____
ROOT
ATOM      1  C   LIG    1       -1.200  -0.637   0.010  0.00  0.00    +0.140 A 
ATOM      2  C   LIG    1       -1.248  -2.035   0.009  0.00  0.00    +0.050 A 
ATOM      3  C   LIG    1       -2.461  -2.687   0.018  0.00  0.00    +0.020 A 
ATOM      4  C   LIG    1       -3.648  -1.944   0.027  0.00  0.00    -0.150 A 
ATOM      5  C   LIG    1       -3.600  -0.538   0.029  0.00  0.00    +0.140 A 
ATOM      6  N   LIG    1       -4.894  -0.067   0.039  0.00  0.00    -0.560 N 
ATOM      7  H   LIG    1       -5.147   0.870   0.042  0.00  0.00    +0.420 HD
ATOM      8  CA  LIG    1       -5.785  -1.136   0.044  0.00  0.00    -0.040 A 
ATOM      9  C   LIG    1       -5.064  -2.317   0.037  0.00  0.00    +0.190 A 
ATOM     10  C   LIG    1       -2.365   0.104   0.025  0.00  0.00    -0.080 A 
ENDROOT
BRANCH   8  11
ATOM     11  C   LIG    1       -7.191  -1.033   0.054  0.00  0.00    +0.490 C 
ATOM     12  OXT LIG    1       -7.940  -2.135   0.058  0.00  0.00    -0.700 OA
ATOM     13  O   LIG    1       -7.771   0.168   0.061  0.00  0.00    -0.720 OA
ENDBRANCH   8  11
BRANCH   9  14
ATOM     14  N   LIG    1       -5.581  -3.602   0.039  0.00  0.00    -0.840 N 
ATOM     15  H   LIG    1       -4.982  -4.365   0.034  0.00  0.00    +0.380 HD
ATOM     16  H   LIG    1       -6.541  -3.739   0.046  0.00  0.00    +0.420 HD
ENDBRANCH   9  14
BRANCH   1  18
ATOM     17  C   LIG    1       -0.017   1.425   0.010  0.00  0.00    +0.230 C 
ATOM     18  O   LIG    1        0.002  -0.004   0.002  0.00  0.00    -0.310 OA
ENDBRANCH   1  18
BRANCH   2  19
ATOM     19  O   LIG    1       -0.092  -2.752  -0.000  0.00  0.00    -0.310 OA
ATOM     20  C   LIG    1       -0.213  -4.176  -0.001  0.00  0.00    +0.220 C 
ENDBRANCH   2  19
TORSDOF 4
ENDMDL
MODEL        5
REMARK  Name = ZINC000004133952
REMARK                            x       y       z     vdW  Elec       q    Type
REMARK                         _______ _______ _______ _____ _____    ______ ____
ROOT
ATOM      1  C   LIG    1       -0.018   1.461   0.010  0.00  0.00    +0.340 C 
ATOM      2  N   LIG    1        0.002  -0.004   0.002  0.00  0.00    -0.510 N 
ATOM      3  C   LIG    1       -1.189  -0.713   0.004  0.00  0.00    +0.330 A 
ATOM      4  C   LIG    1       -1.141  -2.102  -0.004  0.00  0.00    -0.150 A 
ATOM      5  N   LIG    1       -2.460  -2.538   0.001  0.00  0.00    -0.400 N 
ATOM      6  C   LIG    1       -3.240  -1.425   0.011  0.00  0.00    +0.550 A 
ATOM      7  C   LIG    1        0.108  -2.747  -0.013  0.00  0.00    +0.590 A 
ATOM      8  N   LIG    1        1.234  -2.004  -0.015  0.00  0.00    -0.650 N 
ATOM      9  H   LIG    1        2.098  -2.445  -0.021  0.00  0.00    +0.430 HD
ATOM     10  O   LIG    1        0.173  -3.964  -0.021  0.00  0.00    -0.510 OA
ATOM     11  N   LIG    1       -2.474  -0.354   0.012  0.00  0.00    -0.540 NA
ATOM     12  C   LIG    1        1.177  -0.661  -0.013  0.00  0.00    +0.710 A 
ATOM     13  O   LIG    1        2.213  -0.023  -0.014  0.00  0.00    -0.560 OA
ENDROOT
BRANCH   6  14
ATOM     14  N   LIG    1       -4.616  -1.419   0.018  0.00  0.00    -0.820 N 
ATOM     15  H   LIG    1       -5.097  -0.577   0.025  0.00  0.00    +0.420 HD
ATOM     16  H   LIG    1       -5.105  -2.257   0.017  0.00  0.00    +0.410 HD
ENDBRANCH   6  14
BRANCH   5  17
ATOM     17  C   LIG    1       -2.921  -3.929  -0.004  0.00  0.00    +0.220 C 
BRANCH  17  18
ATOM     18  C   LIG    1       -3.071  -4.413   1.415  0.00  0.00    +0.490 C 
ATOM     19  O   LIG    1       -3.447  -5.552   1.634  0.00  0.00    -0.680 OA
ATOM     20  O   LIG    1       -2.818  -3.665   2.344  0.00  0.00    -0.670 OA
ENDBRANCH  17  18
ENDBRANCH   5  17
TORSDOF 3
ENDMDL
MODEL        6
REMARK  Name = ZINC000257292331
REMARK                            x       y       z     vdW  Elec       q    Type
REMARK                         _______ _______ _______ _____ _____    ______ ____
ROOT
ATOM      1  C   LIG    1        1.133  -4.287  -1.921  0.00  0.00    +0.260 C 
ATOM      2  C   LIG    1        2.352  -4.805  -1.128  0.00  0.00    +0.140 C 
ATOM      3  N   LIG    1        2.738  -6.064  -1.815  0.00  0.00    -0.480 NA
ATOM      4  C   LIG    1        2.560  -5.761  -3.259  0.00  0.00    +0.180 C 
ATOM      5  C   LIG    1        1.267  -4.916  -3.323  0.00  0.00    +0.150 C 
ENDROOT
BRANCH   1   7
ATOM      6  C   LIG    1        0.614  -2.074  -1.042  0.00  0.00    +0.510 C 
ATOM      7  N   LIG    1        1.170  -2.825  -2.014  0.00  0.00    -0.720 N 
ATOM      8  H   LIG    1        1.595  -2.398  -2.774  0.00  0.00    +0.400 HD
ATOM      9  O   LIG    1        0.082  -2.608  -0.092  0.00  0.00    -0.510 OA
BRANCH   6  10
ATOM     10  C   LIG    1        0.652  -0.570  -1.138  0.00  0.00    +0.200 C 
BRANCH  10  12
ATOM     11  C   LIG    1       -0.017   1.425   0.010  0.00  0.00    +0.200 C 
ATOM     12  O   LIG    1        0.002  -0.004   0.002  0.00  0.00    -0.370 OA
ENDBRANCH  10  12
ENDBRANCH   6  10
ENDBRANCH   1   7
BRANCH   5  13
ATOM     13  O   LIG    1        0.142  -5.750  -3.607  0.00  0.00    -0.550 OA
ATOM     14  H   LIG    1        0.196  -6.206  -4.458  0.00  0.00    +0.380 HD
ENDBRANCH   5  13
BRANCH   3  15
ATOM     15  C   LIG    1        4.132  -6.419  -1.520  0.00  0.00    +0.080 C 
BRANCH  15  16
ATOM     16  C   LIG    1        4.563  -7.551  -2.416  0.00  0.00    +0.500 C 
ATOM     17  O   LIG    1        5.694  -7.999  -2.331  0.00  0.00    -0.700 OA
ATOM     18  O   LIG    1        3.781  -8.019  -3.226  0.00  0.00    -0.680 OA
ENDBRANCH  15  16
ENDBRANCH   3  15
TORSDOF 6
ENDMDL
MODEL        7
REMARK  Name = ZINC000006277173
REMARK                            x       y       z     vdW  Elec       q    Type
REMARK                         _______ _______ _______ _____ _____    ______ ____
ROOT
ATOM      1  C   LIG    1        0.002  -0.004   0.002  0.00  0.00    +0.500 A 
ATOM      2  C   LIG    1       -1.195  -0.739   0.004  0.00  0.00    -0.120 A 
ATOM      3  N   LIG    1       -2.511  -0.417   0.012  0.00  0.00    -0.470 NA
ATOM      4  C   LIG    1       -3.224  -1.506   0.010  0.00  0.00    +0.450 A 
ATOM      5  N   LIG    1       -2.407  -2.597  -0.001  0.00  0.00    -0.460 N 
ATOM      6  C   LIG    1       -1.113  -2.142  -0.005  0.00  0.00    +0.310 A 
ATOM      7  N   LIG    1        0.085  -2.718  -0.015  0.00  0.00    -0.530 NA
ATOM      8  C   LIG    1        1.181  -1.989  -0.016  0.00  0.00    +0.540 A 
ATOM      9  N   LIG    1        1.153  -0.668  -0.013  0.00  0.00    -0.600 NA
ENDROOT
BRANCH   1  10
ATOM     10  N   LIG    1       -0.017   1.380   0.010  0.00  0.00    -0.830 N 
ATOM     11  H   LIG    1       -0.863   1.853   0.016  0.00  0.00    +0.410 HD
ATOM     12  H   LIG    1        0.817   1.876   0.004  0.00  0.00    +0.400 HD
ENDBRANCH   1  10
BRANCH   5  13
ATOM     13  C   LIG    1       -2.833  -3.999  -0.007  0.00  0.00    +0.330 C 
BRANCH  13  14
ATOM     14  C   LIG    1       -2.750  -4.543  -1.410  0.00  0.00    +0.500 C 
ATOM     15  O   LIG    1       -3.771  -4.798  -2.026  0.00  0.00    -0.670 OA
ATOM     16  O   LIG    1       -1.663  -4.728  -1.929  0.00  0.00    -0.660 OA
ENDBRANCH  13  14
BRANCH  13  17
ATOM     17  N   LIG    1       -4.218  -4.092   0.473  0.00  0.00    -0.800 NA
ATOM     18  H   LIG    1       -4.841  -3.562  -0.116  0.00  0.00    +0.350 HD
ATOM     19  H   LIG    1       -4.288  -3.793   1.435  0.00  0.00    +0.330 HD
ENDBRANCH  13  17
ENDBRANCH   5  13
TORSDOF 4
ENDMDL
MODEL        8
REMARK  Name = ZINC000006277172
REMARK                            x       y       z     vdW  Elec       q    Type
REMARK                         _______ _______ _______ _____ _____    ______ ____
ROOT
ATOM      1  C   LIG    1        0.002  -0.004   0.002  0.00  0.00    +0.500 A 
ATOM      2  C   LIG    1       -1.195  -0.739   0.004  0.00  0.00    -0.110 A 
ATOM      3  N   LIG    1       -2.511  -0.417   0.012  0.00  0.00    -0.480 NA
ATOM      4  C   LIG    1       -3.224  -1.506   0.010  0.00  0.00    +0.490 A 
ATOM      5  N   LIG    1       -2.407  -2.597  -0.001  0.00  0.00    -0.430 N 
ATOM      6  C   LIG    1       -1.113  -2.142  -0.005  0.00  0.00    +0.310 A 
ATOM      7  N   LIG    1        0.085  -2.718  -0.015  0.00  0.00    -0.530 NA
ATOM      8  C   LIG    1        1.181  -1.989  -0.016  0.00  0.00    +0.540 A 
ATOM      9  N   LIG    1        1.153  -0.668  -0.013  0.00  0.00    -0.600 NA
ENDROOT
BRANCH   1  10
ATOM     10  N   LIG    1       -0.017   1.380   0.010  0.00  0.00    -0.830 N 
ATOM     11  H   LIG    1       -0.863   1.853   0.016  0.00  0.00    +0.420 HD
ATOM     12  H   LIG    1        0.817   1.876   0.004  0.00  0.00    +0.400 HD
ENDBRANCH   1  10
BRANCH   5  13
ATOM     13  C   LIG    1       -2.833  -3.999  -0.007  0.00  0.00    +0.340 C 
BRANCH  13  14
ATOM     14  C   LIG    1       -2.853  -4.524   1.405  0.00  0.00    +0.460 C 
ATOM     15  O   LIG    1       -1.855  -5.042   1.877  0.00  0.00    -0.660 OA
ATOM     16  O   LIG    1       -3.867  -4.431   2.076  0.00  0.00    -0.680 OA
ENDBRANCH  13  14
BRANCH  13  17
ATOM     17  N   LIG    1       -4.179  -4.099  -0.586  0.00  0.00    -0.840 NA
ATOM     18  H   LIG    1       -4.844  -3.561  -0.050  0.00  0.00    +0.350 HD
ATOM     19  H   LIG    1       -4.470  -5.062  -0.661  0.00  0.00    +0.360 HD
ENDBRANCH  13  17
ENDBRANCH   5  13
TORSDOF 4
ENDMDL
MODEL        9
REMARK  Name = ZINC000005631688
REMARK                            x       y       z     vdW  Elec       q    Type
REMARK                         _______ _______ _______ _____ _____    ______ ____
ROOT
ATOM      1  CA  ASN A  1       -1.722  -4.579  -0.006  0.00  0.00    +0.190 C 
ENDROOT
BRANCH   1   3
ATOM      2  C   UNK A  0       -0.997  -2.253  -0.001  0.00  0.00    +0.510 C 
ATOM      3  N   ASN A  1       -2.010  -3.143   0.004  0.00  0.00    -0.690 N 
ATOM      4  H   ASN A  1       -2.928  -2.832   0.015  0.00  0.00    +0.390 HD
ATOM      5  O   UNK A  0        0.152  -2.642  -0.014  0.00  0.00    -0.510 OA
BRANCH   2   6
ATOM      6  C   UNK A  0       -1.293  -0.775   0.010  0.00  0.00    +0.050 C 
BRANCH   6   8
ATOM      7  C   UNK A  0       -0.018   1.503   0.010  0.00  0.00    +0.060 C 
ATOM      8  C   UNK A  0        0.002  -0.004   0.002  0.00  0.00    +0.340 C 
ATOM      9  O   UNK A  0        1.056  -0.594  -0.011  0.00  0.00    -0.410 OA
ENDBRANCH   6   8
ENDBRANCH   2   6
ENDBRANCH   1   3
BRANCH   1  10
ATOM     10  C   ASN A  1       -1.489  -5.055   1.405  0.00  0.00    +0.490 C 
ATOM     11  OXT ASN A  1       -0.739  -5.993   1.615  0.00  0.00    -0.690 OA
ATOM     12  O   ASN A  1       -2.050  -4.502   2.335  0.00  0.00    -0.690 OA
ENDBRANCH   1  10
BRANCH   1  13
ATOM     13  CB  ASN A  1       -2.910  -5.332  -0.609  0.00  0.00    +0.070 C 
BRANCH  13  14
ATOM     14  CG  ASN A  1       -3.067  -4.947  -2.057  0.00  0.00    +0.510 C 
ATOM     15  OD1 ASN A  1       -2.304  -4.148  -2.558  0.00  0.00    -0.530 OA
ATOM     16  ND2 ASN A  1       -4.056  -5.489  -2.795  0.00  0.00    -0.860 N 
ATOM     17 HD21 ASN A  1       -4.157  -5.241  -3.727  0.00  0.00    +0.390 HD
ATOM     18 HD22 ASN A  1       -4.666  -6.128  -2.394  0.00  0.00    +0.400 HD
ENDBRANCH  13  14
ENDBRANCH   1  13
TORSDOF 6
ENDMDL
MODEL       10
REMARK  Name = ZINC000006425006
REMARK                            x       y       z     vdW  Elec       q    Type
REMARK                         _______ _______ _______ _____ _____    ______ ____
ROOT
ATOM      1  C   LIG    1        1.740  -2.172  -3.034  0.00  0.00    -0.430 C 
ENDROOT
BRANCH   1   2
ATOM      2  P   LIG    1        3.405  -1.434  -2.970  0.00  0.00    +2.110 P 
ATOM      3  O   LIG    1        4.163  -1.740  -4.307  0.00  0.00    -1.130 OA
ATOM      4  O   LIG    1        4.201  -2.045  -1.767  0.00  0.00    -1.120 OA
ATOM      5  O   LIG    1        3.283   0.117  -2.783  0.00  0.00    -1.100 OA
ENDBRANCH   1   2
BRANCH   1   6
ATOM      6  N   LIG    1        1.854  -3.626  -3.210  0.00  0.00    -0.600 N 
ATOM      7  H   LIG    1        0.932  -4.034  -3.245  0.00  0.00    +0.400 HD
ATOM      8  H   LIG    1        2.367  -4.019  -2.435  0.00  0.00    +0.430 HD
ATOM      9  H   LIG    1        2.342  -3.822  -4.071  0.00  0.00    +0.430 HD
ENDBRANCH   1   6
BRANCH   1  10
ATOM     10  C   LIG    1        0.999  -1.873  -1.729  0.00  0.00    +0.060 C 
BRANCH  10  11
ATOM     11  C   LIG    1        0.880  -0.358  -1.545  0.00  0.00    -0.300 C 
BRANCH  11  13
ATOM     12  C   LIG    1       -0.022   1.810   0.012  0.00  0.00    -0.260 C 
ATOM     13  S   LIG    1        0.002  -0.004   0.002  0.00  0.00    +2.420 S 
ATOM     14  O   LIG    1       -1.334  -0.474  -0.117  0.00  0.00    -0.960 OA
ATOM     15  O   LIG    1        0.801  -0.452   1.088  0.00  0.00    -0.940 OA
ENDBRANCH  11  13
ENDBRANCH  10  11
ENDBRANCH   1  10
TORSDOF 5
ENDMDL
MODEL       11
REMARK  Name = ZINC000005771492
REMARK                            x       y       z     vdW  Elec       q    Type
REMARK                         _______ _______ _______ _____ _____    ______ ____
ROOT
ATOM      1  C   LIG    1       -1.269  -0.800   0.245  0.00  0.00    -0.100 A 
ATOM      2  C   LIG    1       -2.483  -0.129   0.356  0.00  0.00    +0.010 A 
ATOM      3  C   LIG    1       -3.669  -0.802   0.130  0.00  0.00    +0.000 A 
ATOM      4  C   LIG    1       -3.658  -2.144  -0.206  0.00  0.00    +0.000 A 
ATOM      5  C   LIG    1       -2.462  -2.827  -0.322  0.00  0.00    +0.080 A 
ATOM      6  C   LIG    1       -1.258  -2.164  -0.104  0.00  0.00    -0.040 A 
ENDROOT
BRANCH   1  10
ATOM      7  N   LIG    1        0.282   1.042  -0.201  0.00  0.00    -0.860 N 
ATOM      8  H   LIG    1       -0.349   1.381  -0.855  0.00  0.00    +0.390 HD
ATOM      9  H   LIG    1        1.116   1.512  -0.043  0.00  0.00    +0.400 HD
ATOM     10  C   LIG    1        0.003  -0.084   0.485  0.00  0.00    +0.570 C 
ATOM     11  O   LIG    1        0.796  -0.511   1.301  0.00  0.00    -0.500 OA
ENDBRANCH   1  10
BRANCH   6  12
ATOM     12  C   LIG    1        0.025  -2.890  -0.226  0.00  0.00    +0.550 C 
ATOM     13  N   LIG    1        0.028  -4.223  -0.426  0.00  0.00    -1.130 NA
ATOM     14  O   LIG    1        1.076  -2.285  -0.147  0.00  0.00    -0.600 OA
BRANCH  13  15
ATOM     15  S   LIG    1        1.464  -5.037  -0.563  0.00  0.00    +2.750 S 
ATOM     16  O   LIG    1        2.096  -4.952   0.707  0.00  0.00    -1.040 OA
ATOM     17  O   LIG    1        2.069  -4.582  -1.765  0.00  0.00    -1.050 OA
BRANCH  15  18
ATOM     18  N   LIG    1        1.101  -6.635  -0.798  0.00  0.00    -1.250 NA
ATOM     19  H   LIG    1        0.289  -7.009  -0.420  0.00  0.00    +0.410 HD
ATOM     20  H   LIG    1        1.700  -7.198  -1.313  0.00  0.00    +0.400 HD
ENDBRANCH  15  18
ENDBRANCH  13  15
ENDBRANCH   6  12
TORSDOF 4
ENDMDL
MODEL       12
REMARK  Name = ZINC000070569327
REMARK                            x       y       z     vdW  Elec       q    Type
REMARK                         _______ _______ _______ _____ _____    ______ ____
ROOT
ATOM      1  C   LIG    1       -1.330   1.951   0.019  0.00  0.00    -0.090 C 
ATOM      2  C   LIG    1       -2.276   1.513   1.151  0.00  0.00    +0.300 C 
ATOM      3  N   LIG    1       -2.572   2.948   1.323  0.00  0.00    -0.620 N 
ATOM      4  C   LIG    1       -3.613   3.645   1.821  0.00  0.00    +0.600 C 
ATOM      5  O   LIG    1       -4.585   3.058   2.256  0.00  0.00    -0.540 OA
ATOM      6  C   LIG    1       -1.271   3.314   0.731  0.00  0.00    +0.300 C 
ENDROOT
BRANCH   4   7
ATOM      7  C   LIG    1       -3.573   5.123   1.838  0.00  0.00    +0.030 A 
ATOM      8  N   LIG    1       -2.524   5.755   1.363  0.00  0.00    -0.170 NA
ATOM      9  N   LIG    1       -2.441   7.036   1.355  0.00  0.00    -0.440 N 
ATOM     10  H   LIG    1       -1.645   7.455   0.993  0.00  0.00    +0.440 HD
ATOM     11  C   LIG    1       -3.429   7.814   1.836  0.00  0.00    +0.480 A 
ATOM     12  C   LIG    1       -4.593   7.214   2.366  0.00  0.00    -0.020 A 
ATOM     13  O   LIG    1       -3.320   9.029   1.815  0.00  0.00    -0.530 OA
ATOM     14  C   LIG    1       -4.668   5.852   2.362  0.00  0.00    +0.130 A 
ENDBRANCH   4   7
BRANCH   1  16
ATOM     15  O   LIG    1        0.002  -0.004   0.002  0.00  0.00    -0.690 OA
ATOM     16  C   LIG    1       -0.015   1.215   0.009  0.00  0.00    +0.500 C 
ATOM     17  O   LIG    1        1.033   1.839   0.002  0.00  0.00    -0.690 OA
ENDBRANCH   1  16
TORSDOF 2
ENDMDL
MODEL       13
REMARK  Name = ZINC000070569577
REMARK                            x       y       z     vdW  Elec       q    Type
REMARK                         _______ _______ _______ _____ _____    ______ ____
ROOT
ATOM      1  C   LIG    1       -2.629   3.310   2.746  0.00  0.00    +0.170 C 
ENDROOT
BRANCH   1   2
ATOM      2  C   LIG    1       -3.174   4.708   2.891  0.00  0.00    +0.520 C 
ATOM      3  N   LIG    1       -3.312   5.253   4.116  0.00  0.00    -0.630 N 
ATOM      4  C   LIG    1       -2.931   4.506   5.325  0.00  0.00    +0.250 C 
ATOM      5  C   LIG    1       -2.019   5.397   6.177  0.00  0.00    +0.220 C 
ATOM      6  O   LIG    1       -2.656   6.660   6.385  0.00  0.00    -0.380 OA
ATOM      7  C   LIG    1       -2.890   7.402   5.185  0.00  0.00    +0.220 C 
ATOM      8  C   LIG    1       -3.841   6.616   4.283  0.00  0.00    +0.250 C 
ATOM      9  O   LIG    1       -3.488   5.341   1.906  0.00  0.00    -0.510 OA
ENDBRANCH   1   2
BRANCH   1  12
ATOM     10  C   LIG    1       -1.330   1.951   0.019  0.00  0.00    -0.090 C 
ATOM     11  C   LIG    1       -2.276   1.512   1.151  0.00  0.00    +0.180 C 
ATOM     12  N   LIG    1       -2.577   2.950   1.323  0.00  0.00    -0.470 NA
ATOM     13  C   LIG    1       -1.271   3.314   0.731  0.00  0.00    +0.180 C 
BRANCH  10  15
ATOM     14  O   LIG    1        0.002  -0.004   0.002  0.00  0.00    -0.700 OA
ATOM     15  C   LIG    1       -0.015   1.215   0.009  0.00  0.00    +0.500 C 
ATOM     16  O   LIG    1        1.033   1.839   0.002  0.00  0.00    -0.700 OA
ENDBRANCH  10  15
ENDBRANCH   1  12
TORSDOF 3
ENDMDL
MODEL       14
REMARK  Name = ZINC000070569632
REMARK                            x       y       z     vdW  Elec       q    Type
REMARK                         _______ _______ _______ _____ _____    ______ ____
ROOT
ATOM      1  N   LIG    1        1.401  -2.532  -0.162  0.00  0.00    -0.740 N 
ATOM      2  H   LIG    1        1.835  -1.870  -0.723  0.00  0.00    +0.400 HD
ATOM      3  C   LIG    1        1.505  -3.841  -0.462  0.00  0.00    +0.520 C 
ATOM      4  O   LIG    1        0.963  -4.669   0.239  0.00  0.00    -0.520 OA
ENDROOT
BRANCH   1   5
ATOM      5  C   LIG    1        0.633  -2.108   1.011  0.00  0.00    +0.270 C 
BRANCH   5   6
ATOM      6  C   LIG    1        0.673  -0.582   1.123  0.00  0.00    +0.180 C 
BRANCH   6   8
ATOM      7  C   LIG    1       -0.017   1.425   0.010  0.00  0.00    +0.200 C 
ATOM      8  O   LIG    1        0.002  -0.004   0.002  0.00  0.00    -0.390 OA
ENDBRANCH   6   8
ENDBRANCH   5   6
ENDBRANCH   1   5
BRANCH   3   9
ATOM      9  C   LIG    1        2.296  -4.277  -1.669  0.00  0.00    +0.170 C 
BRANCH   9  10
ATOM     10  N   LIG    1        2.257  -5.742  -1.777  0.00  0.00    -0.460 NA
ATOM     11  C   LIG    1        1.166  -6.177  -2.668  0.00  0.00    +0.180 C 
ATOM     12  C   LIG    1        2.131  -7.220  -3.250  0.00  0.00    -0.090 C 
ATOM     13  C   LIG    1        3.207  -6.222  -2.797  0.00  0.00    +0.160 C 
BRANCH  12  14
ATOM     14  C   LIG    1        2.034  -7.386  -4.744  0.00  0.00    +0.500 C 
ATOM     15  O   LIG    1        0.971  -7.193  -5.311  0.00  0.00    -0.700 OA
ATOM     16  O   LIG    1        3.017  -7.713  -5.387  0.00  0.00    -0.700 OA
ENDBRANCH  12  14
ENDBRANCH   9  10
ENDBRANCH   3   9
TORSDOF 6
ENDMDL
MODEL       15
REMARK  Name = ZINC000079420106
REMARK                            x       y       z     vdW  Elec       q    Type
REMARK                         _______ _______ _______ _____ _____    ______ ____
ROOT
ATOM      1  C   LIG    1        0.615  -2.102   1.209  0.00  0.00    +0.260 C 
ATOM      2  C   LIG    1       -0.660  -2.696   1.817  0.00  0.00    +0.210 C 
ATOM      3  N   LIG    1       -0.500  -4.149   1.960  0.00  0.00    -0.520 NA
ATOM      4  C   LIG    1        0.587  -4.476   2.892  0.00  0.00    +0.190 C 
ATOM      5  C   LIG    1        1.913  -3.955   2.328  0.00  0.00    +0.280 C 
ATOM      6  N   LIG    1        1.765  -2.523   2.023  0.00  0.00    -0.600 N 
ATOM      7  C   LIG    1        2.656  -1.623   2.482  0.00  0.00    +0.510 C 
ATOM      8  O   LIG    1        2.584  -0.464   2.130  0.00  0.00    -0.540 OA
ATOM      9  C   LIG    1        3.743  -2.055   3.433  0.00  0.00    +0.100 C 
ENDROOT
BRANCH   1  10
ATOM     10  C   LIG    1        0.521  -0.598   1.206  0.00  0.00    +0.480 C 
ATOM     11  O   LIG    1        0.301  -0.004   2.235  0.00  0.00    -0.490 OA
BRANCH  10  13
ATOM     12  C   LIG    1        0.579   1.529   0.132  0.00  0.00    +0.250 C 
ATOM     13  O   LIG    1        0.682   0.082   0.060  0.00  0.00    -0.360 OA
ENDBRANCH  10  13
ENDBRANCH   1  10
BRANCH   3  14
ATOM     14  C   LIG    1       -1.760  -4.779   2.378  0.00  0.00    +0.140 C 
BRANCH  14  15
ATOM     15  C   LIG    1       -2.129  -4.296   3.757  0.00  0.00    +0.460 C 
ATOM     16  O   LIG    1       -3.095  -4.771   4.330  0.00  0.00    -0.700 OA
ATOM     17  O   LIG    1       -1.462  -3.432   4.299  0.00  0.00    -0.680 OA
ENDBRANCH  14  15
ENDBRANCH   3  14
TORSDOF 4
ENDMDL
MODEL       16
REMARK  Name = ZINC000079420105
REMARK                            x       y       z     vdW  Elec       q    Type
REMARK                         _______ _______ _______ _____ _____    ______ ____
ROOT
ATOM      1  C   LIG    1        0.698  -2.112   1.084  0.00  0.00    +0.270 C 
ATOM      2  C   LIG    1        1.741  -2.639   0.093  0.00  0.00    +0.180 C 
ATOM      3  N   LIG    1        1.888  -4.090   0.267  0.00  0.00    -0.510 NA
ATOM      4  C   LIG    1        2.395  -4.418   1.605  0.00  0.00    +0.180 C 
ATOM      5  C   LIG    1        1.379  -3.964   2.659  0.00  0.00    +0.300 C 
ATOM      6  N   LIG    1        1.077  -2.541   2.439  0.00  0.00    -0.600 N 
ATOM      7  C   LIG    1        1.152  -1.653   3.450  0.00  0.00    +0.510 C 
ATOM      8  O   LIG    1        0.797  -0.506   3.279  0.00  0.00    -0.530 OA
ATOM      9  C   LIG    1        1.677  -2.086   4.795  0.00  0.00    +0.100 C 
ENDROOT
BRANCH   1  10
ATOM     10  C   LIG    1        0.657  -0.607   1.022  0.00  0.00    +0.480 C 
ATOM     11  O   LIG    1        1.643   0.036   1.294  0.00  0.00    -0.500 OA
BRANCH  10  13
ATOM     12  C   LIG    1       -0.443   1.470   0.628  0.00  0.00    +0.260 C 
ATOM     13  O   LIG    1       -0.476   0.019   0.665  0.00  0.00    -0.360 OA
ENDBRANCH  10  13
ENDBRANCH   1  10
BRANCH   3  14
ATOM     14  C   LIG    1        2.749  -4.661  -0.777  0.00  0.00    +0.090 C 
BRANCH  14  15
ATOM     15  C   LIG    1        2.681  -6.165  -0.718  0.00  0.00    +0.500 C 
ATOM     16  O   LIG    1        3.327  -6.837  -1.505  0.00  0.00    -0.700 OA
ATOM     17  O   LIG    1        1.979  -6.711   0.116  0.00  0.00    -0.680 OA
ENDBRANCH  14  15
ENDBRANCH   3  14
TORSDOF 4
ENDMDL
MODEL       17
REMARK  Name = ZINC000012660694
REMARK                            x       y       z     vdW  Elec       q    Type
REMARK                         _______ _______ _______ _____ _____    ______ ____
ROOT
ATOM      1  N   LIG    1        0.711  -0.489   1.189  0.00  0.00    -0.610 N 
ATOM      2  C   LIG    1        2.005  -0.232   1.542  0.00  0.00    +0.740 C 
ATOM      3  N   LIG    1        2.453  -1.092   2.518  0.00  0.00    -0.730 N 
ATOM      4  H   LIG    1        3.228  -0.993   3.093  0.00  0.00    +0.420 HD
ATOM      5  C   LIG    1        1.527  -2.148   2.486  0.00  0.00    +0.380 C 
ATOM      6  N   LIG    1        1.057  -3.241   3.227  0.00  0.00    -0.720 N 
ATOM      7  H   LIG    1        1.499  -3.692   3.964  0.00  0.00    +0.420 HD
ATOM      8  C   LIG    1       -0.167  -3.531   2.679  0.00  0.00    +0.730 C 
ATOM      9  N   LIG    1       -0.619  -2.528   1.870  0.00  0.00    -0.740 N 
ATOM     10  H   LIG    1       -1.324  -2.582   1.206  0.00  0.00    +0.430 HD
ATOM     11  O   LIG    1       -0.779  -4.561   2.890  0.00  0.00    -0.560 OA
ATOM     12  O   LIG    1        2.681   0.653   1.053  0.00  0.00    -0.530 OA
ATOM     13  C   LIG    1        0.179  -1.347   2.249  0.00  0.00    +0.410 C 
ENDROOT
BRANCH   1  15
ATOM     14  C   LIG    1       -0.019   1.526   0.010  0.00  0.00    +0.030 C 
ATOM     15  C   LIG    1        0.002  -0.004   0.002  0.00  0.00    +0.190 C 
BRANCH  15  16
ATOM     16  C   LIG    1        0.707  -0.490  -1.238  0.00  0.00    +0.490 C 
ATOM     17  O   LIG    1        0.183  -0.354  -2.330  0.00  0.00    -0.700 OA
ATOM     18  O   LIG    1        1.802  -1.020  -1.149  0.00  0.00    -0.670 OA
ENDBRANCH  15  16
ENDBRANCH   1  15
TORSDOF 2
ENDMDL
MODEL       18
REMARK  Name = ZINC000103693386
REMARK                            x       y       z     vdW  Elec       q    Type
REMARK                         _______ _______ _______ _____ _____    ______ ____
ROOT
ATOM      1  C   LIG    1       -0.018   1.461   0.010  0.00  0.00    +0.240 C 
ATOM      2  N   LIG    1        0.002  -0.004   0.002  0.00  0.00    -0.520 NA
ATOM      3  C   LIG    1        0.586  -0.655   0.973  0.00  0.00    +0.380 A 
ATOM      4  S   LIG    1        1.405   0.020   2.394  0.00  0.00    +0.130 S 
ATOM      5  N   LIG    1        1.822  -1.491   3.049  0.00  0.00    -0.620 N 
ATOM      6  C   LIG    1        1.349  -2.420   2.208  0.00  0.00    +0.690 A 
ATOM      7  O   LIG    1        1.509  -3.605   2.435  0.00  0.00    -0.540 OA
ATOM      8  C   LIG    1        2.557  -1.732   4.293  0.00  0.00    +0.360 C 
ATOM      9  N   LIG    1        0.699  -2.021   1.126  0.00  0.00    -0.510 N 
ENDROOT
BRANCH   9  10
ATOM     10  C   LIG    1        0.148  -2.965   0.151  0.00  0.00    +0.250 C 
BRANCH  10  11
ATOM     11  C   LIG    1       -1.264  -3.321   0.540  0.00  0.00    +0.490 C 
ATOM     12  O   LIG    1       -1.907  -4.099  -0.144  0.00  0.00    -0.690 OA
ATOM     13  O   LIG    1       -1.763  -2.832   1.539  0.00  0.00    -0.680 OA
ENDBRANCH  10  11
ENDBRANCH   9  10
TORSDOF 2
ENDMDL
MODEL       19
REMARK  Name = ZINC000001701814
REMARK                            x       y       z     vdW  Elec       q    Type
REMARK                         _______ _______ _______ _____ _____    ______ ____
ROOT
ATOM      1  C   LIG    1        1.457  -2.418  -2.386  0.00  0.00    +0.180 C 
ENDROOT
BRANCH   1   2
ATOM      2  C   LIG    1        1.095  -3.879  -2.472  0.00  0.00    +0.470 C 
ATOM      3  O   LIG    1        0.134  -4.300  -1.873  0.00  0.00    -0.540 OA
BRANCH   2   4
ATOM      4  O   LIG    1        1.841  -4.712  -3.215  0.00  0.00    -0.280 OA
ATOM      5  C   LIG    1        1.434  -6.105  -3.252  0.00  0.00    +0.220 C 
ENDBRANCH   2   4
ENDBRANCH   1   2
BRANCH   1   6
ATOM      6  O   LIG    1        2.879  -2.277  -2.413  0.00  0.00    -0.510 OA
ATOM      7  H   LIG    1        3.333  -2.727  -1.688  0.00  0.00    +0.370 HD
ENDBRANCH   1   6
BRANCH   1   8
ATOM      8  C   LIG    1        0.912  -1.835  -1.081  0.00  0.00    +0.120 C 
BRANCH   8   9
ATOM      9  C   LIG    1        1.515  -2.569   0.089  0.00  0.00    +0.470 C 
ATOM     10  O   LIG    1        2.218  -3.533  -0.101  0.00  0.00    -0.510 OA
BRANCH   9  12
ATOM     11  C   LIG    1        1.884  -2.908   2.419  0.00  0.00    +0.250 C 
ATOM     12  O   LIG    1        1.270  -2.152   1.341  0.00  0.00    -0.360 OA
ENDBRANCH   9  12
ENDBRANCH   8   9
ENDBRANCH   1   8
BRANCH   1  13
ATOM     13  C   LIG    1        0.847  -1.671  -3.573  0.00  0.00    -0.020 C 
BRANCH  13  14
ATOM     14  C   LIG    1        1.472  -2.165  -4.852  0.00  0.00    +0.490 C 
ATOM     15  O   LIG    1        1.123  -1.695  -5.922  0.00  0.00    -0.710 OA
ATOM     16  O   LIG    1        2.326  -3.034  -4.818  0.00  0.00    -0.650 OA
ENDBRANCH  13  14
ENDBRANCH   1  13
TORSDOF 8
ENDMDL
MODEL       20
REMARK  Name = ZINC000016136251
REMARK                            x       y       z     vdW  Elec       q    Type
REMARK                         _______ _______ _______ _____ _____    ______ ____
ROOT
ATOM      1  C   LIG    1        0.037   5.458   0.032  0.00  0.00    +0.300 C 
ENDROOT
BRANCH   1   6
ATOM      2  O   LIG    1        0.002  -0.004   0.002  0.00  0.00    -0.610 OA
ATOM      3  C   LIG    1       -0.014   1.212   0.009  0.00  0.00    +0.630 A 
ATOM      4  N   LIG    1       -1.195   1.859   0.029  0.00  0.00    -0.690 NA
ATOM      5  C   LIG    1       -1.226   3.207   0.037  0.00  0.00    +0.490 A 
ATOM      6  C   LIG    1        0.037   3.951   0.023  0.00  0.00    -0.040 A 
ATOM      7  N   LIG    1        1.161   3.290   0.004  0.00  0.00    -0.180 NA
ATOM      8  O   LIG    1       -2.289   3.799   0.056  0.00  0.00    -0.560 OA
ATOM      9  N   LIG    1        1.147   1.890   0.001  0.00  0.00    -0.580 N 
ATOM     10  H   LIG    1        1.986   1.403  -0.013  0.00  0.00    +0.410 HD
ENDBRANCH   1   6
BRANCH   1  11
ATOM     11  O   LIG    1       -0.653   5.941  -1.122  0.00  0.00    -0.530 OA
ATOM     12  H   LIG    1       -0.261   5.661  -1.960  0.00  0.00    +0.360 HD
ENDBRANCH   1  11
BRANCH   1  13
ATOM     13  C   LIG    1        1.480   5.968   0.015  0.00  0.00    +0.170 C 
BRANCH  13  14
ATOM     14  O   LIG    1        2.171   5.405  -1.102  0.00  0.00    -0.530 OA
ATOM     15  H   LIG    1        1.779   5.626  -1.959  0.00  0.00    +0.370 HD
ENDBRANCH  13  14
BRANCH  13  16
ATOM     16  C   LIG    1        1.480   7.494  -0.102  0.00  0.00    +0.190 C 
BRANCH  16  17
ATOM     17  O   LIG    1        0.789   8.057   1.015  0.00  0.00    -0.540 OA
ATOM     18  H   LIG    1        1.180   7.836   1.872  0.00  0.00    +0.370 HD
ENDBRANCH  16  17
BRANCH  16  19
ATOM     19  C   LIG    1        2.922   8.004  -0.119  0.00  0.00    +0.160 C 
BRANCH  19  20
ATOM     20  O   LIG    1        2.925   9.415  -0.345  0.00  0.00    -0.570 OA
ATOM     21  H   LIG    1        3.809   9.807  -0.369  0.00  0.00    +0.380 HD
ENDBRANCH  19  20
ENDBRANCH  16  19
ENDBRANCH  13  16
ENDBRANCH   1  13
TORSDOF 8
ENDMDL
MODEL       21
REMARK  Name = ZINC000016136247
REMARK                            x       y       z     vdW  Elec       q    Type
REMARK                         _______ _______ _______ _____ _____    ______ ____
ROOT
ATOM      1  C   LIG    1        0.037   5.458   0.032  0.00  0.00    +0.290 C 
ENDROOT
BRANCH   1   6
ATOM      2  O   LIG    1        0.002  -0.004   0.002  0.00  0.00    -0.610 OA
ATOM      3  C   LIG    1       -0.014   1.212   0.009  0.00  0.00    +0.630 A 
ATOM      4  N   LIG    1       -1.195   1.859   0.029  0.00  0.00    -0.690 NA
ATOM      5  C   LIG    1       -1.226   3.207   0.037  0.00  0.00    +0.490 A 
ATOM      6  C   LIG    1        0.037   3.951   0.023  0.00  0.00    -0.040 A 
ATOM      7  N   LIG    1        1.161   3.290   0.004  0.00  0.00    -0.180 NA
ATOM      8  O   LIG    1       -2.289   3.799   0.056  0.00  0.00    -0.560 OA
ATOM      9  N   LIG    1        1.147   1.890   0.001  0.00  0.00    -0.580 N 
ATOM     10  H   LIG    1        1.986   1.403  -0.013  0.00  0.00    +0.410 HD
ENDBRANCH   1   6
BRANCH   1  11
ATOM     11  O   LIG    1       -0.653   5.941  -1.122  0.00  0.00    -0.530 OA
ATOM     12  H   LIG    1       -0.261   5.661  -1.960  0.00  0.00    +0.370 HD
ENDBRANCH   1  11
BRANCH   1  13
ATOM     13  C   LIG    1        1.480   5.968   0.015  0.00  0.00    +0.170 C 
BRANCH  13  14
ATOM     14  O   LIG    1        2.170   5.485   1.169  0.00  0.00    -0.530 OA
ATOM     15  H   LIG    1        1.778   5.765   2.007  0.00  0.00    +0.370 HD
ENDBRANCH  13  14
BRANCH  13  16
ATOM     16  C   LIG    1        1.480   7.498   0.024  0.00  0.00    +0.200 C 
BRANCH  16  17
ATOM     17  O   LIG    1        0.723   7.968   1.141  0.00  0.00    -0.540 OA
ATOM     18  H   LIG    1        1.065   7.677   1.998  0.00  0.00    +0.370 HD
ENDBRANCH  16  17
BRANCH  16  19
ATOM     19  C   LIG    1        2.918   8.008   0.132  0.00  0.00    +0.150 C 
BRANCH  19  20
ATOM     20  O   LIG    1        2.928   9.432   0.024  0.00  0.00    -0.570 OA
ATOM     21  H   LIG    1        3.810   9.825   0.084  0.00  0.00    +0.380 HD
ENDBRANCH  19  20
ENDBRANCH  16  19
ENDBRANCH  13  16
ENDBRANCH   1  13
TORSDOF 8
ENDMDL
MODEL       22
REMARK  Name = ZINC000004222787
REMARK                            x       y       z     vdW  Elec       q    Type
REMARK                         _______ _______ _______ _____ _____    ______ ____
ROOT
ATOM      1  C   LIG    1       -1.295  -0.603   0.011  0.00  0.00    +0.140 C 
ATOM      2  C   LIG    1       -1.736  -0.932   1.453  0.00  0.00    +0.170 C 
ATOM      3  O   LIG    1       -2.409  -2.196   1.419  0.00  0.00    -0.370 OA
ATOM      4  C   LIG    1       -2.436  -2.715   0.082  0.00  0.00    +0.180 C 
ATOM      5  C   LIG    1       -1.974  -4.190   0.114  0.00  0.00    +0.180 C 
ATOM      6  C   LIG    1       -0.452  -4.123  -0.108  0.00  0.00    +0.150 C 
ATOM      7  O   LIG    1       -0.091  -2.736  -0.191  0.00  0.00    -0.370 OA
ATOM      8  C   LIG    1       -1.262  -1.998  -0.663  0.00  0.00    +0.160 C 
ENDROOT
BRANCH   1  10
ATOM      9  C   LIG    1       -0.017   1.425   0.010  0.00  0.00    +0.190 C 
ATOM     10  O   LIG    1        0.002  -0.004   0.002  0.00  0.00    -0.360 OA
ENDBRANCH   1  10
BRANCH   5  11
ATOM     11  N   LIG    1       -2.617  -4.950  -0.960  0.00  0.00    -1.170 NA
BRANCH  11  12
ATOM     12  S   LIG    1       -2.289  -6.563  -1.145  0.00  0.00    +2.510 S 
ATOM     13  O   LIG    1       -2.781  -7.159   0.048  0.00  0.00    -1.050 OA
ATOM     14  O   LIG    1       -0.905  -6.604  -1.467  0.00  0.00    -1.050 OA
ATOM     15  C   LIG    1       -3.291  -7.069  -2.570  0.00  0.00    -0.320 C 
ENDBRANCH  11  12
ENDBRANCH   5  11
TORSDOF 3
ENDMDL
MODEL       23
REMARK  Name = ZINC000039214982
REMARK                            x       y       z     vdW  Elec       q    Type
REMARK                         _______ _______ _______ _____ _____    ______ ____
ROOT
ATOM      1  C   LIG    1       -1.200  -0.637   0.010  0.00  0.00    +0.140 A 
ATOM      2  C   LIG    1       -1.248  -2.035   0.009  0.00  0.00    +0.050 A 
ATOM      3  C   LIG    1       -2.461  -2.687   0.018  0.00  0.00    +0.020 A 
ATOM      4  C   LIG    1       -3.648  -1.944   0.027  0.00  0.00    -0.150 A 
ATOM      5  C   LIG    1       -3.600  -0.538   0.029  0.00  0.00    +0.140 A 
ATOM      6  N   LIG    1       -4.894  -0.067   0.039  0.00  0.00    -0.560 N 
ATOM      7  H   LIG    1       -5.147   0.870   0.042  0.00  0.00    +0.420 HD
ATOM      8  CA  LIG    1       -5.785  -1.136   0.044  0.00  0.00    -0.040 A 
ATOM      9  C   LIG    1       -5.064  -2.317   0.037  0.00  0.00    +0.190 A 
ATOM     10  C   LIG    1       -2.365   0.104   0.025  0.00  0.00    -0.080 A 
ENDROOT
BRANCH   8  11
ATOM     11  C   LIG    1       -7.191  -1.033   0.054  0.00  0.00    +0.490 C 
ATOM     12  OXT LIG    1       -7.940  -2.135   0.058  0.00  0.00    -0.700 OA
ATOM     13  O   LIG    1       -7.771   0.168   0.061  0.00  0.00    -0.720 OA
ENDBRANCH   8  11
BRANCH   9  14
ATOM     14  N   LIG    1       -5.581  -3.602   0.039  0.00  0.00    -0.840 N 
ATOM     15  H   LIG    1       -4.982  -4.365   0.034  0.00  0.00    +0.380 HD
ATOM     16  H   LIG    1       -6.541  -3.739   0.046  0.00  0.00    +0.420 HD
ENDBRANCH   9  14
BRANCH   1  18
ATOM     17  C   LIG    1       -0.017   1.425   0.010  0.00  0.00    +0.230 C 
ATOM     18  O   LIG    1        0.002  -0.004   0.002  0.00  0.00    -0.310 OA
ENDBRANCH   1  18
BRANCH   2  19
ATOM     19  O   LIG    1       -0.092  -2.752  -0.000  0.00  0.00    -0.310 OA
ATOM     20  C   LIG    1       -0.213  -4.176  -0.001  0.00  0.00    +0.220 C 
ENDBRANCH   2  19
TORSDOF 4
ENDMDL
MODEL       24
REMARK  Name = ZINC000066339601
REMARK                            x       y       z     vdW  Elec       q    Type
REMARK                         _______ _______ _______ _____ _____    ______ ____
ROOT
ATOM      1  N   LIG    1       -1.103  -0.590   0.135  0.00  0.00    -0.530 N 
ENDROOT
BRANCH   1   5
ATOM      2  N   LIG    1       -0.050   1.497   0.180  0.00  0.00    -0.790 N 
ATOM      3  H   LIG    1       -0.912   1.925   0.295  0.00  0.00    +0.440 HD
ATOM      4  H   LIG    1        0.751   2.037   0.083  0.00  0.00    +0.420 HD
ATOM      5  C   LIG    1        0.035   0.168   0.148  0.00  0.00    +0.730 C 
BRANCH   5   6
ATOM      6  N   LIG    1        1.229  -0.422   0.131  0.00  0.00    -0.800 N 
ATOM      7  H   LIG    1        1.291  -1.390   0.108  0.00  0.00    +0.440 HD
ATOM      8  H   LIG    1        2.037   0.115   0.140  0.00  0.00    +0.420 HD
ENDBRANCH   5   6
ENDBRANCH   1   5
BRANCH   1   9
ATOM      9  C   LIG    1       -2.292  -0.139   0.862  0.00  0.00    -0.300 C 
BRANCH   9  10
ATOM     10  P   LIG    1       -3.420   0.716  -0.288  0.00  0.00    +2.220 P 
ATOM     11  O   LIG    1       -3.951  -0.292  -1.332  0.00  0.00    -1.070 OA
ATOM     12  O   LIG    1       -2.658   1.850  -1.009  0.00  0.00    -1.080 OA
BRANCH  10  13
ATOM     13  O   LIG    1       -4.656   1.338   0.535  0.00  0.00    -0.900 OA
ATOM     14  H   LIG    1       -5.297   1.808  -0.015  0.00  0.00    +0.420 HD
ENDBRANCH  10  13
ENDBRANCH   9  10
ENDBRANCH   1   9
BRANCH   1  15
ATOM     15  C   LIG    1       -1.133  -1.853  -0.607  0.00  0.00    +0.240 C 
BRANCH  15  16
ATOM     16  C   LIG    1       -0.697  -2.977   0.297  0.00  0.00    +0.470 C 
ATOM     17  O   LIG    1       -0.652  -4.119  -0.128  0.00  0.00    -0.680 OA
ATOM     18  O   LIG    1       -0.390  -2.744   1.454  0.00  0.00    -0.690 OA
ENDBRANCH  15  16
ENDBRANCH   1  15
TORSDOF 7
ENDMDL
MODEL       25
REMARK  Name = ZINC000039599905
REMARK                            x       y       z     vdW  Elec       q    Type
REMARK                         _______ _______ _______ _____ _____    ______ ____
ROOT
ATOM      1  O   LIG    1        0.002  -0.004   0.002  0.00  0.00    -0.500 OA
ATOM      2  C   LIG    1       -0.014   1.210   0.009  0.00  0.00    +0.480 A 
ATOM      3  N   LIG    1       -1.192   1.865   0.029  0.00  0.00    -0.640 NA
ATOM      4  C   LIG    1       -1.212   3.241   0.039  0.00  0.00    +0.290 A 
ATOM      5  C   LIG    1       -2.392   3.925  -0.221  0.00  0.00    -0.110 C 
ATOM      6  C   LIG    1       -2.358   5.304  -0.063  0.00  0.00    +0.250 C 
ATOM      7  N   LIG    1       -3.118   6.271  -0.507  0.00  0.00    -0.600 NA
ATOM      8  C   LIG    1       -2.489   7.450  -0.436  0.00  0.00    +0.470 C 
ATOM      9  N   LIG    1       -1.354   7.391   0.212  0.00  0.00    -0.560 NA
ATOM     10  C   LIG    1       -1.245   6.019   0.681  0.00  0.00    +0.170 C 
ATOM     11  C   LIG    1        0.038   5.308   0.432  0.00  0.00    -0.010 C 
ATOM     12  C   LIG    1        0.043   3.995   0.195  0.00  0.00    +0.090 A 
ATOM     13  N   LIG    1        1.266   3.326   0.067  0.00  0.00    -0.660 N 
ATOM     14  H   LIG    1        2.095   3.829   0.029  0.00  0.00    +0.400 HD
ATOM     15  C   LIG    1        1.268   1.970   0.001  0.00  0.00    +0.460 A 
ATOM     16  O   LIG    1        2.319   1.372  -0.108  0.00  0.00    -0.510 OA
ENDROOT
TORSDOF 0
ENDMDL
MODEL       26
REMARK  Name = ZINC000039599908
REMARK                            x       y       z     vdW  Elec       q    Type
REMARK                         _______ _______ _______ _____ _____    ______ ____
ROOT
ATOM      1  O   LIG    1        0.002  -0.004   0.002  0.00  0.00    -0.500 OA
ATOM      2  C   LIG    1       -0.014   1.210   0.009  0.00  0.00    +0.480 A 
ATOM      3  N   LIG    1       -1.192   1.865   0.029  0.00  0.00    -0.640 NA
ATOM      4  C   LIG    1       -1.212   3.241   0.035  0.00  0.00    +0.290 A 
ATOM      5  C   LIG    1       -2.384   3.921   0.336  0.00  0.00    -0.110 C 
ATOM      6  C   LIG    1       -2.355   5.302   0.193  0.00  0.00    +0.250 C 
ATOM      7  N   LIG    1       -3.101   6.265   0.669  0.00  0.00    -0.600 NA
ATOM      8  C   LIG    1       -2.474   7.444   0.594  0.00  0.00    +0.470 C 
ATOM      9  N   LIG    1       -1.358   7.392  -0.087  0.00  0.00    -0.560 NA
ATOM     10  C   LIG    1       -1.263   6.026  -0.575  0.00  0.00    +0.170 C 
ATOM     11  C   LIG    1        0.026   5.312  -0.369  0.00  0.00    -0.010 C 
ATOM     12  C   LIG    1        0.038   3.997  -0.148  0.00  0.00    +0.090 A 
ATOM     13  N   LIG    1        1.264   3.327  -0.062  0.00  0.00    -0.660 N 
ATOM     14  H   LIG    1        2.094   3.829  -0.043  0.00  0.00    +0.400 HD
ATOM     15  C   LIG    1        1.268   1.970   0.001  0.00  0.00    +0.460 A 
ATOM     16  O   LIG    1        2.322   1.372   0.072  0.00  0.00    -0.510 OA
ENDROOT
TORSDOF 0
ENDMDL
MODEL       27
REMARK  Name = ZINC000004530778
REMARK                            x       y       z     vdW  Elec       q    Type
REMARK                         _______ _______ _______ _____ _____    ______ ____
ROOT
ATOM      1  C   LIG    1       -2.479   0.941   0.019  0.00  0.00    +0.220 C 
ATOM      2  O   LIG    1       -2.467   0.205  -1.206  0.00  0.00    -0.360 OA
ATOM      3  C   LIG    1       -3.490  -0.788  -1.300  0.00  0.00    +0.320 C 
ATOM      4  C   LIG    1       -4.862  -0.115  -1.218  0.00  0.00    +0.130 C 
ATOM      5  C   LIG    1       -4.959   0.671   0.093  0.00  0.00    +0.150 C 
ATOM      6  C   LIG    1       -3.811   1.683   0.154  0.00  0.00    +0.150 C 
ENDROOT
BRANCH   5   7
ATOM      7  O   LIG    1       -4.865  -0.229   1.198  0.00  0.00    -0.530 OA
ATOM      8  H   LIG    1       -5.559  -0.902   1.218  0.00  0.00    +0.380 HD
ENDBRANCH   5   7
BRANCH   4   9
ATOM      9  O   LIG    1       -5.886  -1.112  -1.255  0.00  0.00    -0.550 OA
ATOM     10  H   LIG    1       -5.881  -1.651  -2.058  0.00  0.00    +0.380 HD
ENDBRANCH   4   9
BRANCH   3  11
ATOM     11  O   LIG    1       -3.350  -1.719  -0.225  0.00  0.00    -0.560 OA
ATOM     12  H   LIG    1       -2.502  -2.183  -0.214  0.00  0.00    +0.390 HD
ENDBRANCH   3  11
BRANCH   6  13
ATOM     13  O   LIG    1       -3.849   2.373   1.405  0.00  0.00    -0.540 OA
ATOM     14  H   LIG    1       -4.669   2.863   1.559  0.00  0.00    +0.370 HD
ENDBRANCH   6  13
BRANCH   1  15
ATOM     15  C   LIG    1       -1.330   1.951   0.019  0.00  0.00    -0.040 C 
BRANCH  15  17
ATOM     16  O   LIG    1        0.002  -0.004   0.002  0.00  0.00    -0.690 OA
ATOM     17  C   LIG    1       -0.015   1.215   0.009  0.00  0.00    +0.500 C 
ATOM     18  O   LIG    1        1.033   1.839   0.002  0.00  0.00    -0.710 OA
ENDBRANCH  15  17
ENDBRANCH   1  15
TORSDOF 6
ENDMDL
MODEL       28
REMARK  Name = ZINC000002036686
REMARK                            x       y       z     vdW  Elec       q    Type
REMARK                         _______ _______ _______ _____ _____    ______ ____
ROOT
ATOM      1  C   LIG    1        1.434  -2.623  -2.301  0.00  0.00    +0.190 C 
ENDROOT
BRANCH   1   2
ATOM      2  C   LIG    1        1.398  -4.089  -2.647  0.00  0.00    +0.450 C 
ATOM      3  O   LIG    1        1.332  -4.915  -1.767  0.00  0.00    -0.520 OA
BRANCH   2   4
ATOM      4  O   LIG    1        1.438  -4.477  -3.931  0.00  0.00    -0.340 OA
ATOM      5  C   LIG    1        1.400  -5.906  -4.189  0.00  0.00    +0.250 C 
ENDBRANCH   2   4
ENDBRANCH   1   2
BRANCH   1   6
ATOM      6  O   LIG    1        0.728  -1.881  -3.298  0.00  0.00    -0.510 OA
ATOM      7  H   LIG    1       -0.203  -2.130  -3.388  0.00  0.00    +0.370 HD
ENDBRANCH   1   6
BRANCH   1   8
ATOM      8  C   LIG    1        0.774  -2.403  -0.939  0.00  0.00    +0.140 C 
BRANCH   8   9
ATOM      9  C   LIG    1       -0.632  -2.945  -0.969  0.00  0.00    +0.480 C 
ATOM     10  O   LIG    1       -1.091  -3.377  -1.999  0.00  0.00    -0.520 OA
BRANCH   9  12
ATOM     11  C   LIG    1       -2.720  -3.483   0.046  0.00  0.00    +0.260 C 
ATOM     12  O   LIG    1       -1.375  -2.946   0.149  0.00  0.00    -0.350 OA
ENDBRANCH   9  12
ENDBRANCH   8   9
ENDBRANCH   1   8
BRANCH   1  13
ATOM     13  C   LIG    1        2.887  -2.147  -2.246  0.00  0.00    -0.020 C 
BRANCH  13  14
ATOM     14  C   LIG    1        2.921  -0.665  -1.977  0.00  0.00    +0.500 C 
ATOM     15  O   LIG    1        3.986  -0.105  -1.780  0.00  0.00    -0.700 OA
ATOM     16  O   LIG    1        1.883  -0.025  -1.956  0.00  0.00    -0.670 OA
ENDBRANCH  13  14
ENDBRANCH   1  13
TORSDOF 8
ENDMDL
MODEL       29
REMARK  Name = ZINC000003103775
REMARK                            x       y       z     vdW  Elec       q    Type
REMARK                         _______ _______ _______ _____ _____    ______ ____
ROOT
ATOM      1  N   LIG    1       -2.953   1.936   2.770  0.00  0.00    -0.560 NA
ATOM      2  C   LIG    1       -3.145   3.394   2.751  0.00  0.00    +0.430 C 
ATOM      3  N   LIG    1       -3.809   3.809   3.989  0.00  0.00    -0.670 N 
ATOM      4  H   LIG    1       -3.650   4.697   4.344  0.00  0.00    +0.440 HD
ATOM      5  C   LIG    1       -4.636   2.971   4.638  0.00  0.00    +0.590 C 
ATOM      6  N   LIG    1       -4.874   1.729   4.182  0.00  0.00    -0.670 N 
ATOM      7  H   LIG    1       -5.470   1.143   4.674  0.00  0.00    +0.440 HD
ATOM      8  S   LIG    1       -5.404   3.497   6.075  0.00  0.00    -0.680 S 
ATOM      9  C   LIG    1       -4.243   1.252   2.949  0.00  0.00    +0.430 C 
ENDROOT
BRANCH   1  10
ATOM     10  C   LIG    1       -2.280   1.478   1.546  0.00  0.00    +0.250 C 
BRANCH  10  11
ATOM     11  C   LIG    1       -0.848   2.016   1.520  0.00  0.00    -0.460 C 
BRANCH  11  13
ATOM     12  O   LIG    1        0.002  -0.004   0.002  0.00  0.00    -1.060 OA
ATOM     13  S   LIG    1       -0.018   1.450   0.010  0.00  0.00    +2.640 S 
ATOM     14  O   LIG    1       -0.752   1.947  -1.143  0.00  0.00    -1.060 OA
ATOM     15  O   LIG    1        1.341   1.970  -0.000  0.00  0.00    -1.060 OA
ENDBRANCH  11  13
ENDBRANCH  10  11
ENDBRANCH   1  10
TORSDOF 3
ENDMDL
MODEL       30
REMARK  Name = ZINC000096515995
REMARK                            x       y       z     vdW  Elec       q    Type
REMARK                         _______ _______ _______ _____ _____    ______ ____
ROOT
ATOM      1  C   LIG    1        0.605  -2.132  -1.026  0.00  0.00    +0.030 C 
ATOM      2  N   LIG    1        0.054  -2.784  -0.050  0.00  0.00    -0.170 NA
ATOM      3  N   LIG    1        0.056  -4.183  -0.023  0.00  0.00    -0.410 N 
ATOM      4  C   LIG    1        0.933  -4.878  -0.773  0.00  0.00    +0.500 C 
ATOM      5  C   LIG    1        1.914  -4.144  -1.651  0.00  0.00    +0.080 C 
ATOM      6  O   LIG    1        0.932  -6.090  -0.742  0.00  0.00    -0.520 OA
ATOM      7  C   LIG    1        1.259  -2.859  -2.171  0.00  0.00    +0.100 C 
ENDROOT
BRANCH   1  11
ATOM      8  C   LIG    1       -0.018   1.461   0.010  0.00  0.00    +0.290 C 
ATOM      9  N   LIG    1        0.002  -0.004   0.002  0.00  0.00    -0.720 N 
ATOM     10  H   LIG    1       -0.404  -0.499   0.731  0.00  0.00    +0.420 HD
ATOM     11  C   LIG    1        0.585  -0.664  -1.018  0.00  0.00    +0.590 C 
ATOM     12  O   LIG    1        1.095  -0.044  -1.932  0.00  0.00    -0.540 OA
ENDBRANCH   1  11
BRANCH   3  13
ATOM     13  C   LIG    1       -0.903  -4.895   0.826  0.00  0.00    +0.240 C 
BRANCH  13  14
ATOM     14  C   LIG    1       -0.299  -5.118   2.188  0.00  0.00    +0.490 C 
ATOM     15  O   LIG    1       -0.937  -5.698   3.050  0.00  0.00    -0.690 OA
ATOM     16  O   LIG    1        0.828  -4.719   2.428  0.00  0.00    -0.680 OA
ENDBRANCH  13  14
ENDBRANCH   3  13
TORSDOF 3
ENDMDL
MODEL       31
REMARK  Name = ZINC000002048484
REMARK                            x       y       z     vdW  Elec       q    Type
REMARK                         _______ _______ _______ _____ _____    ______ ____
ROOT
ATOM      1  CA  GLN A  1       -2.307  -3.058   0.008  0.00  0.00    +0.160 C 
ENDROOT
BRANCH   1   2
ATOM      2  N   GLN A  1       -3.037  -2.800  -1.236  0.00  0.00    -0.690 N 
ATOM      3  H   GLN A  1       -2.556  -2.530  -2.034  0.00  0.00    +0.390 HD
ATOM      4  C   UNK A  0       -4.378  -2.938  -1.272  0.00  0.00    +0.480 C 
ATOM      5  O   UNK A  0       -4.979  -3.277  -0.274  0.00  0.00    -0.530 OA
BRANCH   4   6
ATOM      6  C   UNK A  0       -5.129  -2.673  -2.551  0.00  0.00    +0.250 C 
ATOM      7  F   UNK A  0       -6.496  -2.881  -2.341  0.00  0.00    -0.200 F 
ENDBRANCH   4   6
ENDBRANCH   1   2
BRANCH   1   8
ATOM      8  C   GLN A  1       -2.013  -4.532   0.121  0.00  0.00    +0.490 C 
ATOM      9  OXT GLN A  1       -2.214  -5.269  -0.830  0.00  0.00    -0.690 OA
ATOM     10  O   GLN A  1       -1.575  -4.988   1.163  0.00  0.00    -0.690 OA
ENDBRANCH   1   8
BRANCH   1  11
ATOM     11  CB  GLN A  1       -0.993  -2.276  -0.001  0.00  0.00    +0.070 C 
BRANCH  11  12
ATOM     12  CG  GLN A  1       -1.293  -0.775   0.010  0.00  0.00    +0.040 C 
BRANCH  12  16
ATOM     13  NE2 GLN A  1       -0.016   1.344   0.009  0.00  0.00    -0.860 N 
ATOM     14 HE21 GLN A  1       -0.863   1.817   0.016  0.00  0.00    +0.400 HD
ATOM     15 HE22 GLN A  1        0.817   1.840   0.004  0.00  0.00    +0.400 HD
ATOM     16  CD  GLN A  1        0.002  -0.004   0.002  0.00  0.00    +0.510 C 
ATOM     17  OE1 GLN A  1        1.060  -0.596  -0.011  0.00  0.00    -0.540 OA
ENDBRANCH  12  16
ENDBRANCH  11  12
ENDBRANCH   1  11
TORSDOF 6
ENDMDL
MODEL       32
REMARK  Name = ZINC000001664046
REMARK                            x       y       z     vdW  Elec       q    Type
REMARK                         _______ _______ _______ _____ _____    ______ ____
ROOT
ATOM      1  CA  GLN A  1       -2.307  -3.058   0.008  0.00  0.00    +0.160 C 
ENDROOT
BRANCH   1   2
ATOM      2  N   GLN A  1       -3.013  -2.814   1.268  0.00  0.00    -0.690 N 
ATOM      3  H   GLN A  1       -2.517  -2.551   2.059  0.00  0.00    +0.390 HD
ATOM      4  C   UNK A  0       -4.353  -2.952   1.327  0.00  0.00    +0.480 C 
ATOM      5  O   UNK A  0       -4.973  -3.280   0.338  0.00  0.00    -0.530 OA
BRANCH   4   6
ATOM      6  C   UNK A  0       -5.079  -2.701   2.623  0.00  0.00    +0.250 C 
ATOM      7  F   UNK A  0       -6.450  -2.907   2.437  0.00  0.00    -0.190 F 
ENDBRANCH   4   6
ENDBRANCH   1   2
BRANCH   1   8
ATOM      8  C   GLN A  1       -2.016  -4.531  -0.127  0.00  0.00    +0.490 C 
ATOM      9  OXT GLN A  1       -1.955  -5.042  -1.232  0.00  0.00    -0.690 OA
ATOM     10  O   GLN A  1       -1.841  -5.211   0.870  0.00  0.00    -0.690 OA
ENDBRANCH   1   8
BRANCH   1  11
ATOM     11  CB  GLN A  1       -0.993  -2.276  -0.001  0.00  0.00    +0.070 C 
BRANCH  11  12
ATOM     12  CG  GLN A  1       -1.293  -0.775   0.010  0.00  0.00    +0.040 C 
BRANCH  12  16
ATOM     13  NE2 GLN A  1       -0.016   1.344   0.009  0.00  0.00    -0.860 N 
ATOM     14 HE21 GLN A  1       -0.863   1.817   0.016  0.00  0.00    +0.400 HD
ATOM     15 HE22 GLN A  1        0.817   1.840   0.004  0.00  0.00    +0.400 HD
ATOM     16  CD  GLN A  1        0.002  -0.004   0.002  0.00  0.00    +0.510 C 
ATOM     17  OE1 GLN A  1        1.060  -0.596  -0.011  0.00  0.00    -0.540 OA
ENDBRANCH  12  16
ENDBRANCH  11  12
ENDBRANCH   1  11
TORSDOF 6
ENDMDL
MODEL       33
REMARK  Name = ZINC000225961357
REMARK                            x       y       z     vdW  Elec       q    Type
REMARK                         _______ _______ _______ _____ _____    ______ ____
ROOT
ATOM      1  C   LIG    1       -0.018   1.503   0.010  0.00  0.00    +0.150 C 
ATOM      2  C   LIG    1        0.002  -0.004   0.002  0.00  0.00    +0.070 A 
ATOM      3  N   LIG    1        0.005  -0.638  -1.137  0.00  0.00    -0.250 NA
ATOM      4  N   LIG    1        0.023  -1.915  -1.241  0.00  0.00    -0.350 N 
ATOM      5  C   LIG    1        0.039  -2.716  -0.156  0.00  0.00    +0.490 A 
ATOM      6  C   LIG    1        0.037  -2.093   1.173  0.00  0.00    -0.170 A 
ATOM      7  O   LIG    1        0.056  -3.929  -0.277  0.00  0.00    -0.490 OA
ATOM      8  C   LIG    1        0.023  -0.697   1.217  0.00  0.00    +0.070 A 
ENDROOT
BRANCH   6   9
ATOM      9  C   LIG    1        0.054  -2.901   2.401  0.00  0.00    +0.530 C 
ATOM     10  O   LIG    1        0.071  -4.123   2.330  0.00  0.00    -0.650 OA
ATOM     11  O   LIG    1        0.052  -2.352   3.495  0.00  0.00    -0.680 OA
ENDBRANCH   6   9
BRANCH   4  12
ATOM     12  C   LIG    1        0.025  -2.522  -2.574  0.00  0.00    +0.350 C 
BRANCH  12  13
ATOM     13  C   LIG    1       -1.395  -2.750  -3.025  0.00  0.00    +0.510 C 
ATOM     14  O   LIG    1       -2.318  -2.436  -2.304  0.00  0.00    -0.520 OA
ATOM     15  N   LIG    1       -1.639  -3.302  -4.230  0.00  0.00    -0.850 N 
ATOM     16  H   LIG    1       -2.553  -3.448  -4.521  0.00  0.00    +0.400 HD
ATOM     17  H   LIG    1       -0.901  -3.552  -4.807  0.00  0.00    +0.400 HD
ENDBRANCH  12  13
ENDBRANCH   4  12
TORSDOF 3
ENDMDL
MODEL       34
REMARK  Name = ZINC000026898885
REMARK                            x       y       z     vdW  Elec       q    Type
REMARK                         _______ _______ _______ _____ _____    ______ ____
ROOT
ATOM      1  C   LIG    1        1.460  -3.867  -2.508  0.00  0.00    -0.430 A 
ATOM      2  C   LIG    1        0.469  -4.586  -3.162  0.00  0.00    +0.510 A 
ATOM      3  N   LIG    1        0.473  -5.944  -3.093  0.00  0.00    -0.650 N 
ATOM      4  H   LIG    1       -0.218  -6.451  -3.548  0.00  0.00    +0.420 HD
ATOM      5  C   LIG    1        1.428  -6.590  -2.400  0.00  0.00    +0.710 A 
ATOM      6  N   LIG    1        2.399  -5.914  -1.759  0.00  0.00    -0.650 N 
ATOM      7  H   LIG    1        3.078  -6.400  -1.265  0.00  0.00    +0.420 HD
ATOM      8  O   LIG    1        1.413  -7.805  -2.352  0.00  0.00    -0.580 OA
ATOM      9  O   LIG    1       -0.481  -3.950  -3.852  0.00  0.00    -0.650 OA
ATOM     10  C   LIG    1        2.438  -4.556  -1.803  0.00  0.00    +0.510 A 
ATOM     11  O   LIG    1        3.404  -3.890  -1.166  0.00  0.00    -0.650 OA
ENDROOT
BRANCH   1  12
ATOM     12  C   LIG    1        1.479  -2.361  -2.569  0.00  0.00    +0.220 C 
BRANCH  12  13
ATOM     13  C   LIG    1        0.786  -1.801  -1.353  0.00  0.00    +0.460 C 
ATOM     14  O   LIG    1        0.325  -2.548  -0.523  0.00  0.00    -0.510 OA
BRANCH  13  15
ATOM     15  O   LIG    1        0.682  -0.472  -1.193  0.00  0.00    -0.370 OA
BRANCH  15  17
ATOM     16  C   LIG    1       -0.019   1.526   0.010  0.00  0.00    +0.040 C 
ATOM     17  C   LIG    1        0.002  -0.004   0.002  0.00  0.00    +0.180 C 
ENDBRANCH  15  17
ENDBRANCH  13  15
ENDBRANCH  12  13
ENDBRANCH   1  12
TORSDOF 4
ENDMDL
MODEL       35
REMARK  Name = ZINC000020215877
REMARK                            x       y       z     vdW  Elec       q    Type
REMARK                         _______ _______ _______ _____ _____    ______ ____
ROOT
ATOM      1  C   UNK A  0        0.041  -3.294  -1.522  0.00  0.00    +0.590 C 
ATOM      2  N   SER A  1        0.061  -4.521  -0.965  0.00  0.00    -0.680 N 
ATOM      3  H   SER A  1        0.066  -4.615   0.001  0.00  0.00    +0.390 HD
ATOM      4  O   UNK A  0        0.034  -3.176  -2.732  0.00  0.00    -0.560 OA
ENDROOT
BRANCH   1   8
ATOM      5  C   UNK A  0       -0.018   1.461   0.010  0.00  0.00    +0.360 C 
ATOM      6  N   UNK A  0        0.002  -0.004   0.002  0.00  0.00    -0.370 N 
ATOM      7  C   UNK A  0        0.008  -0.782  -1.092  0.00  0.00    +0.310 A 
ATOM      8  C   UNK A  0        0.028  -2.095  -0.665  0.00  0.00    -0.270 A 
ATOM      9  C   UNK A  0        0.034  -2.074   0.748  0.00  0.00    +0.270 A 
ATOM     10  N   UNK A  0        0.025  -0.828   1.133  0.00  0.00    -0.310 NA
ENDBRANCH   1   8
BRANCH   2  11
ATOM     11  CA  SER A  1        0.074  -5.713  -1.817  0.00  0.00    +0.160 C 
BRANCH  11  12
ATOM     12  C   SER A  1        1.492  -6.030  -2.216  0.00  0.00    +0.500 C 
ATOM     13  OXT SER A  1        1.711  -6.872  -3.070  0.00  0.00    -0.700 OA
ATOM     14  O   SER A  1        2.420  -5.444  -1.685  0.00  0.00    -0.680 OA
ENDBRANCH  11  12
BRANCH  11  15
ATOM     15  CB  SER A  1       -0.516  -6.896  -1.047  0.00  0.00    +0.190 C 
BRANCH  15  16
ATOM     16  OG  SER A  1        0.330  -7.214   0.060  0.00  0.00    -0.560 OA
ATOM     17  H   SER A  1        0.017  -7.957   0.594  0.00  0.00    +0.370 HD
ENDBRANCH  15  16
ENDBRANCH  11  15
ENDBRANCH   2  11
TORSDOF 5
ENDMDL
MODEL       36
REMARK  Name = ZINC000005502659
REMARK                            x       y       z     vdW  Elec       q    Type
REMARK                         _______ _______ _______ _____ _____    ______ ____
ROOT
ATOM      1  C   LIG    1       -0.018   1.461   0.010  0.00  0.00    +0.300 C 
ATOM      2  N   LIG    1        0.002  -0.004   0.002  0.00  0.00    -0.590 N 
ATOM      3  C   LIG    1       -1.244  -0.787   0.004  0.00  0.00    +0.320 C 
ATOM      4  CA  LIG    1       -1.070  -1.982   0.906  0.00  0.00    +0.050 C 
ATOM      5  N   LIG    1        0.106  -2.510   1.112  0.00  0.00    -0.370 NA
ATOM      6  C   LIG    1        1.214  -1.990   0.581  0.00  0.00    -0.190 A 
ATOM      7  C   LIG    1        2.450  -2.690   0.607  0.00  0.00    +0.570 A 
ATOM      8  O   LIG    1        2.537  -3.787   1.130  0.00  0.00    -0.510 OA
ATOM      9  N   LIG    1        3.528  -2.103   0.043  0.00  0.00    -0.660 N 
ATOM     10  H   LIG    1        4.382  -2.564   0.043  0.00  0.00    +0.410 HD
ATOM     11  C   LIG    1        3.427  -0.873  -0.531  0.00  0.00    +0.660 A 
ATOM     12  N   LIG    1        2.291  -0.200  -0.551  0.00  0.00    -0.610 NA
ATOM     13  C   LIG    1        1.187  -0.704  -0.013  0.00  0.00    +0.430 A 
ENDROOT
BRANCH  11  14
ATOM     14  N   LIG    1        4.535  -0.317  -1.103  0.00  0.00    -0.820 N 
ATOM     15  H   LIG    1        5.377  -0.798  -1.097  0.00  0.00    +0.410 HD
ATOM     16  H   LIG    1        4.480   0.559  -1.516  0.00  0.00    +0.430 HD
ENDBRANCH  11  14
BRANCH   4  17
ATOM     17  C   LIG    1       -2.203  -2.543   1.541  0.00  0.00    +0.530 C 
ATOM     18  OXT LIG    1       -3.313  -2.057   1.356  0.00  0.00    -0.700 OA
ATOM     19  O   LIG    1       -2.075  -3.514   2.277  0.00  0.00    -0.660 OA
ENDBRANCH   4  17
TORSDOF 2
ENDMDL
MODEL       37
REMARK  Name = ZINC000002556596
REMARK                            x       y       z     vdW  Elec       q    Type
REMARK                         _______ _______ _______ _____ _____    ______ ____
ROOT
ATOM      1  CA  GLY A  1       -1.420  -0.615  -0.200  0.00  0.00    +0.240 C 
ENDROOT
BRANCH   1   2
ATOM      2  C   GLY A  1       -2.374  -0.017   0.801  0.00  0.00    +0.500 C 
ATOM      3  N   GLY A  1       -2.099  -0.086   2.119  0.00  0.00    -0.690 N 
ATOM      4  H   GLY A  1       -1.321  -0.578   2.427  0.00  0.00    +0.410 HD
ATOM      5  O   GLY A  1       -3.390   0.526   0.422  0.00  0.00    -0.560 OA
BRANCH   3   6
ATOM      6  CA  GLY A  1       -2.973   0.582   3.086  0.00  0.00    +0.190 C 
BRANCH   6   7
ATOM      7  C   GLY A  1       -2.448   0.353   4.480  0.00  0.00    +0.490 C 
ATOM      8  OXT GLY A  1       -3.034   0.828   5.438  0.00  0.00    -0.690 OA
ATOM      9  O   GLY A  1       -1.437  -0.306   4.650  0.00  0.00    -0.690 OA
ENDBRANCH   6   7
ENDBRANCH   3   6
ENDBRANCH   1   2
BRANCH   1  10
ATOM     10  N   GLY A  1       -2.144  -0.940  -1.431  0.00  0.00    -0.710 N 
ATOM     11  H   GLY A  1       -2.958  -0.463  -1.655  0.00  0.00    +0.410 HD
ATOM     12  C   UNK A  0       -1.679  -1.902  -2.253  0.00  0.00    +0.620 C 
ATOM     13  O   UNK A  0       -0.661  -2.498  -1.973  0.00  0.00    -0.550 OA
ENDBRANCH   1  10
BRANCH   1  15
ATOM     14  CG1 GLY A  1        0.734  -0.264  -1.417  0.00  0.00    +0.030 C 
ATOM     15  CB  GLY A  1       -0.311   0.392  -0.512  0.00  0.00    -0.020 C 
ATOM     16  CG2 GLY A  1       -0.910   1.607  -1.222  0.00  0.00    +0.020 C 
ENDBRANCH   1  15
TORSDOF 5
ENDMDL
MODEL       38
REMARK  Name = ZINC000002528806
REMARK                            x       y       z     vdW  Elec       q    Type
REMARK                         _______ _______ _______ _____ _____    ______ ____
ROOT
ATOM      1  N   LIG    1       -0.039   1.349   0.109  0.00  0.00    -0.870 N 
ATOM      2  H   LIG    1       -0.887   1.821   0.109  0.00  0.00    +0.390 HD
ATOM      3  H   LIG    1        0.793   1.848   0.120  0.00  0.00    +0.410 HD
ATOM      4  C   LIG    1       -0.018   0.002   0.089  0.00  0.00    +0.710 C 
ATOM      5  N   LIG    1       -1.170  -0.692   0.176  0.00  0.00    -0.630 N 
ATOM      6  C   LIG    1       -2.464   0.005   0.171  0.00  0.00    +0.250 C 
ATOM      7  C   LIG    1       -3.327  -0.573  -0.958  0.00  0.00    +0.250 C 
ATOM      8  N   LIG    1       -3.312  -2.039  -0.857  0.00  0.00    -0.600 N 
ATOM      9  C   LIG    1       -2.018  -2.735  -0.852  0.00  0.00    +0.280 C 
ATOM     10  C   LIG    1       -4.464  -2.733  -0.772  0.00  0.00    +0.460 C 
ATOM     11  O   LIG    1       -5.527  -2.158  -0.875  0.00  0.00    -0.550 OA
ATOM     12  C   LIG    1       -1.155  -2.158   0.271  0.00  0.00    +0.290 C 
ATOM     13  O   LIG    1        1.041  -0.588  -0.007  0.00  0.00    -0.600 OA
ENDROOT
BRANCH  10  14
ATOM     14  C   LIG    1       -4.432  -4.213  -0.549  0.00  0.00    +0.500 C 
ATOM     15  O   LIG    1       -3.367  -4.808  -0.557  0.00  0.00    -0.650 OA
ATOM     16  O   LIG    1       -5.471  -4.824  -0.360  0.00  0.00    -0.630 OA
ENDBRANCH  10  14
TORSDOF 1
ENDMDL
MODEL       39
REMARK  Name = ZINC000034067081
REMARK                            x       y       z     vdW  Elec       q    Type
REMARK                         _______ _______ _______ _____ _____    ______ ____
ROOT
ATOM      1  C   LIG    1       -2.465  -2.746   0.011  0.00  0.00    +0.260 C 
ATOM      2  C   LIG    1       -2.461  -4.270   0.130  0.00  0.00    +0.190 C 
ATOM      3  C   LIG    1       -3.067  -4.181  -1.245  0.00  0.00    +0.510 C 
ATOM      4  O   LIG    1       -3.439  -5.034  -2.023  0.00  0.00    -0.490 OA
ATOM      5  N   LIG    1       -3.058  -2.839  -1.324  0.00  0.00    -0.950 N 
ENDROOT
BRANCH   5   6
ATOM      6  S   LIG    1       -3.529  -1.736  -2.466  0.00  0.00    +2.760 S 
ATOM      7  O   LIG    1       -4.921  -1.415  -2.192  0.00  0.00    -1.070 OA
ATOM      8  O   LIG    1       -3.361  -2.377  -3.761  0.00  0.00    -1.060 OA
ATOM      9  O   LIG    1       -2.661  -0.578  -2.314  0.00  0.00    -1.050 OA
ENDBRANCH   5   6
BRANCH   2  10
ATOM     10  N   LIG    1       -1.121  -4.872   0.165  0.00  0.00    -0.810 NA
ATOM     11  H   LIG    1       -0.582  -4.603  -0.645  0.00  0.00    +0.350 HD
ATOM     12  H   LIG    1       -1.177  -5.876   0.243  0.00  0.00    +0.360 HD
ENDBRANCH   2  10
BRANCH   1  13
ATOM     13  C   LIG    1       -1.059  -2.142   0.001  0.00  0.00    +0.260 C 
BRANCH  13  14
ATOM     14  O   LIG    1       -1.155  -0.693   0.009  0.00  0.00    -0.340 OA
BRANCH  14  18
ATOM     15  N   LIG    1       -0.016   1.344   0.009  0.00  0.00    -0.830 N 
ATOM     16  H   LIG    1       -0.863   1.817   0.016  0.00  0.00    +0.410 HD
ATOM     17  H   LIG    1        0.817   1.840   0.004  0.00  0.00    +0.420 HD
ATOM     18  C   LIG    1        0.002  -0.004   0.002  0.00  0.00    +0.660 C 
ATOM     19  O   LIG    1        1.062  -0.597  -0.011  0.00  0.00    -0.590 OA
ENDBRANCH  14  18
ENDBRANCH  13  14
ENDBRANCH   1  13
TORSDOF 5
ENDMDL
MODEL       40
REMARK  Name = ZINC000001707724
REMARK                            x       y       z     vdW  Elec       q    Type
REMARK                         _______ _______ _______ _____ _____    ______ ____
ROOT
ATOM      1  N   LIG    1        0.760  -0.038  -2.290  0.00  0.00    -0.860 N 
ATOM      2  H   LIG    1        0.197  -0.066  -3.079  0.00  0.00    +0.400 HD
ATOM      3  H   LIG    1        1.593   0.460  -2.307  0.00  0.00    +0.420 HD
ATOM      4  C   LIG    1        0.389  -0.693  -1.173  0.00  0.00    +0.700 C 
ATOM      5  N   LIG    1       -0.768  -1.384  -1.149  0.00  0.00    -0.680 N 
ATOM      6  H   LIG    1       -1.333  -1.409  -1.937  0.00  0.00    +0.400 HD
ATOM      7  C   LIG    1       -1.139  -2.039  -0.032  0.00  0.00    +0.620 C 
ATOM      8  O   LIG    1       -0.431  -2.007   0.954  0.00  0.00    -0.430 OA
ATOM      9  O   LIG    1        1.097  -0.661  -0.186  0.00  0.00    -0.530 OA
ENDROOT
BRANCH   7  10
ATOM     10  C   LIG    1       -2.413  -2.799  -0.006  0.00  0.00    +0.050 A 
ATOM     11  N   LIG    1       -3.571  -2.157   0.103  0.00  0.00    -0.420 NA
ATOM     12  C   LIG    1       -4.701  -2.836   0.125  0.00  0.00    +0.200 A 
ATOM     13  C   LIG    1       -4.688  -4.224   0.035  0.00  0.00    +0.220 A 
ATOM     14  N   LIG    1       -3.546  -4.872  -0.073  0.00  0.00    -0.400 NA
ATOM     15  CA  LIG    1       -2.400  -4.199  -0.103  0.00  0.00    +0.080 A 
BRANCH  15  16
ATOM     16  C   LIG    1       -1.114  -4.925  -0.226  0.00  0.00    +0.530 C 
ATOM     17  OXT LIG    1       -0.058  -4.315  -0.147  0.00  0.00    -0.640 OA
ATOM     18  O   LIG    1       -1.109  -6.134  -0.405  0.00  0.00    -0.650 OA
ENDBRANCH  15  16
ENDBRANCH   7  10
TORSDOF 2
ENDMDL
MODEL       41
REMARK  Name = ZINC000001590963
REMARK                            x       y       z     vdW  Elec       q    Type
REMARK                         _______ _______ _______ _____ _____    ______ ____
ROOT
ATOM      1  C   LIG    1       -1.136  -2.159   0.001  0.00  0.00    +0.280 C 
ATOM      2  C   LIG    1       -0.570  -2.616  -1.330  0.00  0.00    +0.490 C 
ATOM      3  N   LIG    1        0.533  -3.394  -1.305  0.00  0.00    -0.700 NA
ATOM      4  C   LIG    1        1.117  -3.757  -0.158  0.00  0.00    +0.680 C 
ATOM      5  N   LIG    1        0.692  -3.405   1.061  0.00  0.00    -0.690 N 
ATOM      6  H   LIG    1        1.181  -3.717   1.838  0.00  0.00    +0.390 HD
ATOM      7  O   LIG    1        2.107  -4.459  -0.228  0.00  0.00    -0.590 OA
ATOM      8  O   LIG    1       -1.089  -2.294  -2.377  0.00  0.00    -0.550 OA
ATOM      9  C   LIG    1       -0.397  -2.627   1.240  0.00  0.00    +0.550 C 
ATOM     10  O   LIG    1       -0.771  -2.316   2.351  0.00  0.00    -0.510 OA
ENDROOT
BRANCH   1  15
ATOM     11  N   LIG    1       -0.016   1.344   0.009  0.00  0.00    -0.860 N 
ATOM     12  H   LIG    1       -0.863   1.817   0.016  0.00  0.00    +0.390 HD
ATOM     13  H   LIG    1        0.817   1.840   0.004  0.00  0.00    +0.410 HD
ATOM     14  C   LIG    1        0.002  -0.004   0.002  0.00  0.00    +0.700 C 
ATOM     15  N   LIG    1       -1.156  -0.694   0.009  0.00  0.00    -0.710 N 
ATOM     16  H   LIG    1       -2.002  -0.220   0.020  0.00  0.00    +0.400 HD
ATOM     17  O   LIG    1        1.063  -0.598  -0.011  0.00  0.00    -0.570 OA
ENDBRANCH   1  15
BRANCH   1  18
ATOM     18  N   LIG    1       -2.524  -2.632   0.090  0.00  0.00    -0.820 NA
ATOM     19  H   LIG    1       -2.559  -3.638   0.153  0.00  0.00    +0.360 HD
ATOM     20  H   LIG    1       -3.070  -2.299  -0.690  0.00  0.00    +0.360 HD
ENDBRANCH   1  18
TORSDOF 2
ENDMDL
MODEL       42
REMARK  Name = ZINC000110771227
REMARK                            x       y       z     vdW  Elec       q    Type
REMARK                         _______ _______ _______ _____ _____    ______ ____
ROOT
ATOM      1  C   LIG    1       -1.330   1.951   0.019  0.00  0.00    -0.060 C 
ATOM      2  C   LIG    1       -1.469   2.984  -1.114  0.00  0.00    +0.010 C 
ATOM      3  C   LIG    1       -2.187   3.862  -0.086  0.00  0.00    +0.020 C 
ATOM      4  C   LIG    1       -1.860   5.352  -0.127  0.00  0.00    -0.320 C 
ATOM      5  S   LIG    1       -0.255   5.543   0.723  0.00  0.00    +2.380 S 
ATOM      6  C   LIG    1        0.012   3.783   1.129  0.00  0.00    -0.260 C 
ATOM      7  O   LIG    1       -0.445   6.280   1.923  0.00  0.00    -0.950 OA
ATOM      8  O   LIG    1        0.726   5.963  -0.216  0.00  0.00    -0.950 OA
ATOM      9  C   LIG    1       -1.364   3.148   0.995  0.00  0.00    +0.010 C 
ENDROOT
BRANCH   1  11
ATOM     10  O   LIG    1        0.455   0.790   1.051  0.00  0.00    -0.700 OA
ATOM     11  C   LIG    1       -0.015   1.215   0.009  0.00  0.00    +0.500 C 
ATOM     12  O   LIG    1        0.578   1.040  -1.042  0.00  0.00    -0.680 OA
ENDBRANCH   1  11
BRANCH   2  13
ATOM     13  C   LIG    1       -2.365   2.521  -2.265  0.00  0.00    +0.180 C 
BRANCH  13  14
ATOM     14  O   LIG    1       -1.598   1.733  -3.178  0.00  0.00    -0.540 OA
ATOM     15  H   LIG    1       -2.103   1.405  -3.934  0.00  0.00    +0.360 HD
ENDBRANCH  13  14
ENDBRANCH   2  13
TORSDOF 3
ENDMDL
MODEL       43
REMARK  Name = ZINC000033773194
REMARK                            x       y       z     vdW  Elec       q    Type
REMARK                         _______ _______ _______ _____ _____    ______ ____
ROOT
ATOM      1  O   LIG    1        0.002  -0.004   0.002  0.00  0.00    -0.590 OA
ATOM      2  C   LIG    1       -0.014   1.211   0.009  0.00  0.00    +0.660 A 
ATOM      3  N   LIG    1       -1.190   1.869   0.029  0.00  0.00    -0.690 NA
ATOM      4  C   LIG    1       -1.209   3.216   0.036  0.00  0.00    +0.660 A 
ATOM      5  N   LIG    1       -0.051   3.906   0.024  0.00  0.00    -0.590 N 
ATOM      6  C   LIG    1        1.125   3.248   0.004  0.00  0.00    +0.710 A 
ATOM      7  O   LIG    1        2.169   3.870  -0.007  0.00  0.00    -0.570 OA
ATOM      8  O   LIG    1       -2.269   3.810   0.055  0.00  0.00    -0.580 OA
ATOM      9  N   LIG    1        1.143   1.901   0.001  0.00  0.00    -0.700 N 
ATOM     10  H   LIG    1        1.990   1.427  -0.013  0.00  0.00    +0.410 HD
ENDROOT
BRANCH   5  11
ATOM     11  C   LIG    1       -0.071   5.371   0.033  0.00  0.00    +0.460 C 
BRANCH  11  12
ATOM     12  N   LIG    1       -0.058   5.853   1.420  0.00  0.00    -0.540 NA
ATOM     13  C   LIG    1       -0.747   4.909   2.312  0.00  0.00    +0.160 C 
ATOM     14  C   LIG    1       -0.658   5.419   3.753  0.00  0.00    +0.230 C 
ATOM     15  O   LIG    1       -1.215   6.734   3.823  0.00  0.00    -0.390 OA
ATOM     16  C   LIG    1       -0.567   7.680   2.967  0.00  0.00    +0.230 C 
ATOM     17  C   LIG    1       -0.655   7.193   1.518  0.00  0.00    +0.160 C 
ENDBRANCH  11  12
ENDBRANCH   5  11
TORSDOF 2
ENDMDL
MODEL       44
REMARK  Name = ZINC000002522563
REMARK                            x       y       z     vdW  Elec       q    Type
REMARK                         _______ _______ _______ _____ _____    ______ ____
ROOT
ATOM      1  C   VAL A  1        2.132   0.024  -1.268  0.00  0.00    +0.480 C 
ATOM      2  N   GLN A  2        2.381   1.288  -1.662  0.00  0.00    -0.690 N 
ATOM      3  H   GLN A  2        1.650   1.863  -1.940  0.00  0.00    +0.390 HD
ATOM      4  O   VAL A  1        3.046  -0.694  -0.921  0.00  0.00    -0.550 OA
ENDROOT
BRANCH   1   5
ATOM      5  CA  VAL A  1        0.718  -0.497  -1.257  0.00  0.00    +0.170 C 
BRANCH   5   7
ATOM      6  CG1 VAL A  1       -0.019   1.526   0.010  0.00  0.00    +0.040 C 
ATOM      7  CB  VAL A  1        0.002  -0.004   0.002  0.00  0.00    -0.010 C 
ATOM      8  CG2 VAL A  1       -1.433  -0.534   0.013  0.00  0.00    +0.030 C 
ENDBRANCH   5   7
BRANCH   5   9
ATOM      9  N   VAL A  1        0.738  -1.966  -1.265  0.00  0.00    -0.820 NA
ATOM     10  H1  VAL A  1        1.222  -2.326  -0.456  0.00  0.00    +0.350 HD
ATOM     11  H2  VAL A  1        1.149  -2.318  -2.117  0.00  0.00    +0.340 HD
ENDBRANCH   5   9
ENDBRANCH   1   5
BRANCH   2  12
ATOM     12  CA  GLN A  2        3.755   1.796  -1.673  0.00  0.00    +0.150 C 
BRANCH  12  13
ATOM     13  C   GLN A  2        4.112   2.307  -0.301  0.00  0.00    +0.490 C 
ATOM     14  OXT GLN A  2        5.219   2.775  -0.094  0.00  0.00    -0.700 OA
ATOM     15  O   GLN A  2        3.295   2.253   0.602  0.00  0.00    -0.680 OA
ENDBRANCH  12  13
BRANCH  12  16
ATOM     16  CB  GLN A  2        3.871   2.934  -2.688  0.00  0.00    +0.070 C 
BRANCH  16  17
ATOM     17  CG  GLN A  2        3.630   2.389  -4.097  0.00  0.00    +0.040 C 
BRANCH  17  18
ATOM     18  CD  GLN A  2        3.744   3.510  -5.096  0.00  0.00    +0.510 C 
ATOM     19  OE1 GLN A  2        3.994   4.636  -4.719  0.00  0.00    -0.540 OA
ATOM     20  NE2 GLN A  2        3.569   3.263  -6.410  0.00  0.00    -0.860 N 
ATOM     21 HE21 GLN A  2        3.643   3.985  -7.053  0.00  0.00    +0.400 HD
ATOM     22 HE22 GLN A  2        3.370   2.363  -6.711  0.00  0.00    +0.400 HD
ENDBRANCH  17  18
ENDBRANCH  16  17
ENDBRANCH  12  16
ENDBRANCH   2  12
TORSDOF 8
ENDMDL
MODEL       45
REMARK  Name = ZINC000016136293
REMARK                            x       y       z     vdW  Elec       q    Type
REMARK                         _______ _______ _______ _____ _____    ______ ____
ROOT
ATOM      1  N   LIG    1        0.002  -0.004   0.002  0.00  0.00    -0.400 N 
ATOM      2  C   LIG    1        1.177  -0.661  -0.007  0.00  0.00    +0.660 A 
ATOM      3  N   LIG    1        1.219  -2.005  -0.014  0.00  0.00    -0.540 N 
ATOM      4  H   LIG    1        2.077  -2.457  -0.021  0.00  0.00    +0.450 HD
ATOM      5  N   LIG    1        0.041  -2.761  -0.013  0.00  0.00    -0.180 NA
ATOM      6  C   LIG    1       -1.117  -2.159  -0.005  0.00  0.00    +0.100 A 
ATOM      7  O   LIG    1        2.216  -0.029  -0.009  0.00  0.00    -0.560 OA
ATOM      8  C   LIG    1       -1.157  -0.694   0.009  0.00  0.00    +0.520 A 
ATOM      9  O   LIG    1       -2.224  -0.107   0.018  0.00  0.00    -0.460 OA
ENDROOT
BRANCH   1  10
ATOM     10  N   LIG    1       -0.016   1.362   0.009  0.00  0.00    -0.580 N 
ATOM     11  H   LIG    1       -0.555   1.720  -0.765  0.00  0.00    +0.360 HD
ATOM     12  H   LIG    1        0.920   1.736   0.003  0.00  0.00    +0.380 HD
ENDBRANCH   1  10
BRANCH   6  13
ATOM     13  C   LIG    1       -2.394  -2.959  -0.004  0.00  0.00    +0.180 C 
BRANCH  13  14
ATOM     14  C   LIG    1       -2.060  -4.452  -0.013  0.00  0.00    -0.040 C 
BRANCH  14  15
ATOM     15  C   LIG    1       -3.337  -5.253  -0.012  0.00  0.00    +0.490 C 
ATOM     16  O   LIG    1       -3.293  -6.471  -0.019  0.00  0.00    -0.700 OA
ATOM     17  O   LIG    1       -4.414  -4.681  -0.004  0.00  0.00    -0.700 OA
ENDBRANCH  14  15
ENDBRANCH  13  14
ENDBRANCH   6  13
TORSDOF 4
ENDMDL
MODEL       46
REMARK  Name = ZINC000005187431
REMARK                            x       y       z     vdW  Elec       q    Type
REMARK                         _______ _______ _______ _____ _____    ______ ____
ROOT
ATOM      1  C   LIG    1       -3.477  -0.967   0.030  0.00  0.00    +0.210 C 
ATOM      2  C   LIG    1       -3.278  -1.936   1.180  0.00  0.00    +0.460 C 
ATOM      3  N   LIG    1       -4.250  -2.002   2.115  0.00  0.00    -0.690 NA
ATOM      4  C   LIG    1       -5.353  -1.249   2.045  0.00  0.00    +0.660 C 
ATOM      5  N   LIG    1       -5.615  -0.369   1.072  0.00  0.00    -0.690 N 
ATOM      6  H   LIG    1       -6.444   0.135   1.103  0.00  0.00    +0.400 HD
ATOM      7  O   LIG    1       -6.177  -1.372   2.929  0.00  0.00    -0.570 OA
ATOM      8  O   LIG    1       -2.284  -2.625   1.257  0.00  0.00    -0.520 OA
ATOM      9  C   LIG    1       -4.762  -0.161   0.047  0.00  0.00    +0.520 C 
ATOM     10  O   LIG    1       -5.013   0.640  -0.828  0.00  0.00    -0.480 OA
ENDROOT
BRANCH   1  11
ATOM     11  N   LIG    1       -2.348  -0.027   0.024  0.00  0.00    -0.440 NA
ATOM     12  H   LIG    1       -2.399   0.605   0.810  0.00  0.00    +0.350 HD
BRANCH  11  13
ATOM     13  N   LIG    1       -1.156  -0.694   0.009  0.00  0.00    -0.500 N 
ATOM     14  H   LIG    1       -1.143  -1.664   0.004  0.00  0.00    +0.450 HD
BRANCH  13  15
ATOM     15  C   LIG    1        0.002  -0.004   0.002  0.00  0.00    +0.590 C 
ATOM     16  S   LIG    1        1.496  -0.840  -0.017  0.00  0.00    -0.650 S 
BRANCH  15  17
ATOM     17  N   LIG    1       -0.016   1.344   0.009  0.00  0.00    -0.800 N 
ATOM     18  H   LIG    1       -0.863   1.817   0.016  0.00  0.00    +0.400 HD
ATOM     19  H   LIG    1        0.817   1.840   0.004  0.00  0.00    +0.430 HD
ENDBRANCH  15  17
ENDBRANCH  13  15
ENDBRANCH  11  13
ENDBRANCH   1  11
BRANCH   1  20
ATOM     20  O   LIG    1       -3.436  -1.714  -1.188  0.00  0.00    -0.520 OA
ATOM     21  H   LIG    1       -4.147  -2.363  -1.275  0.00  0.00    +0.400 HD
ENDBRANCH   1  20
TORSDOF 5
ENDMDL
MODEL       47
REMARK  Name = ZINC000309233930
REMARK                            x       y       z     vdW  Elec       q    Type
REMARK                         _______ _______ _______ _____ _____    ______ ____
ROOT
ATOM      1  C   LIG    1        1.387  -2.493  -2.405  0.00  0.00    +0.310 C 
ATOM      2  O   LIG    1        0.647  -2.170  -3.584  0.00  0.00    -0.350 OA
ATOM      3  C   LIG    1       -0.704  -2.634  -3.570  0.00  0.00    +0.060 C 
ATOM      4  C   LIG    1       -0.717  -4.161  -3.460  0.00  0.00    +0.130 C 
ATOM      5  C   LIG    1        0.036  -4.581  -2.195  0.00  0.00    +0.200 C 
ATOM      6  C   LIG    1        1.459  -4.014  -2.248  0.00  0.00    +0.180 C 
ENDROOT
BRANCH   3   7
ATOM      7  C   LIG    1       -1.393  -2.215  -4.843  0.00  0.00    +0.510 C 
ATOM      8  O   LIG    1       -2.583  -2.433  -4.993  0.00  0.00    -0.680 OA
ATOM      9  O   LIG    1       -0.759  -1.659  -5.724  0.00  0.00    -0.670 OA
ENDBRANCH   3   7
BRANCH   5  10
ATOM     10  O   LIG    1        0.091  -6.007  -2.122  0.00  0.00    -0.560 OA
ATOM     11  H   LIG    1       -0.776  -6.433  -2.091  0.00  0.00    +0.380 HD
ENDBRANCH   5  10
BRANCH   4  12
ATOM     12  O   LIG    1       -2.067  -4.623  -3.389  0.00  0.00    -0.570 OA
ATOM     13  H   LIG    1       -2.604  -4.388  -4.158  0.00  0.00    +0.400 HD
ENDBRANCH   4  12
BRANCH   6  14
ATOM     14  O   LIG    1        2.149  -4.339  -1.040  0.00  0.00    -0.540 OA
ATOM     15  H   LIG    1        3.057  -4.011  -1.005  0.00  0.00    +0.370 HD
ENDBRANCH   6  14
BRANCH   1  16
ATOM     16  O   LIG    1        0.738  -1.926  -1.265  0.00  0.00    -0.390 OA
BRANCH  16  17
ATOM     17  C   LIG    1        0.718  -0.497  -1.257  0.00  0.00    +0.170 C 
BRANCH  17  19
ATOM     18  C   LIG    1       -0.019   1.526   0.010  0.00  0.00    +0.020 C 
ATOM     19  C   LIG    1        0.002  -0.004   0.002  0.00  0.00    +0.020 C 
ENDBRANCH  17  19
ENDBRANCH  16  17
ENDBRANCH   1  16
TORSDOF 7
ENDMDL
MODEL       48
REMARK  Name = ZINC000255963339
REMARK                            x       y       z     vdW  Elec       q    Type
REMARK                         _______ _______ _______ _____ _____    ______ ____
ROOT
ATOM      1  C   LIG    1       -0.885   1.775   1.465  0.00  0.00    +0.030 C 
ATOM      2  C   LIG    1       -0.645   3.297   1.633  0.00  0.00    -0.310 C 
ATOM      3  S   LIG    1       -0.779   3.481   3.458  0.00  0.00    +2.440 S 
ATOM      4  C   LIG    1        0.012   1.871   3.843  0.00  0.00    -0.430 C 
ATOM      5  C   LIG    1        1.260   1.497   3.035  0.00  0.00    +0.000 C 
ATOM      6  O   LIG    1       -2.147   3.450   3.842  0.00  0.00    -0.880 OA
ATOM      7  O   LIG    1        0.060   4.542   3.894  0.00  0.00    -0.900 OA
ATOM      8  C   LIG    1       -0.145   1.026   2.570  0.00  0.00    -0.020 C 
ENDROOT
BRANCH   1   9
ATOM      9  N   LIG    1       -0.383   1.341   0.154  0.00  0.00    -0.600 N 
ATOM     10  H   LIG    1       -0.929   1.774  -0.576  0.00  0.00    +0.430 HD
ATOM     11  H   LIG    1        0.584   1.612   0.058  0.00  0.00    +0.430 HD
ATOM     12  H   LIG    1       -0.460   0.337   0.081  0.00  0.00    +0.420 HD
ENDBRANCH   1   9
BRANCH   5  13
ATOM     13  C   LIG    1        1.928   2.586   2.236  0.00  0.00    +0.500 C 
ATOM     14  O   LIG    1        2.241   2.385   1.074  0.00  0.00    -0.700 OA
ATOM     15  O   LIG    1        2.157   3.667   2.750  0.00  0.00    -0.630 OA
ENDBRANCH   5  13
BRANCH   1  16
ATOM     16  C   LIG    1       -2.361   1.485   1.560  0.00  0.00    +0.480 C 
ATOM     17  O   LIG    1       -2.977   1.783   2.570  0.00  0.00    -0.590 OA
ATOM     18  O   LIG    1       -2.940   0.953   0.629  0.00  0.00    -0.680 OA
ENDBRANCH   1  16
TORSDOF 3
ENDMDL
MODEL       49
REMARK  Name = ZINC000096532884
REMARK                            x       y       z     vdW  Elec       q    Type
REMARK                         _______ _______ _______ _____ _____    ______ ____
ROOT
ATOM      1  C   LIG    1       -1.300   1.938   0.019  0.00  0.00    +0.090 C 
ATOM      2  N   LIG    1       -2.506   1.409   0.027  0.00  0.00    -0.260 NA
ATOM      3  O   LIG    1       -3.527   2.428  -0.001  0.00  0.00    -0.210 OA
ATOM      4  C   LIG    1       -2.899   3.481  -0.692  0.00  0.00    +0.130 C 
ATOM      5  C   LIG    1       -3.306   4.929  -0.653  0.00  0.00    -0.270 C 
ATOM      6  S   LIG    1       -1.713   5.819  -0.909  0.00  0.00    +2.380 S 
ATOM      7  C   LIG    1       -0.625   4.330  -0.826  0.00  0.00    -0.230 C 
ATOM      8  O   LIG    1       -1.456   6.660   0.207  0.00  0.00    -0.930 OA
ATOM      9  O   LIG    1       -1.678   6.357  -2.224  0.00  0.00    -0.930 OA
ATOM     10  C   LIG    1       -1.504   3.413   0.028  0.00  0.00    -0.010 C 
ENDROOT
BRANCH   1  12
ATOM     11  O   LIG    1        0.002  -0.004   0.002  0.00  0.00    -0.650 OA
ATOM     12  C   LIG    1       -0.015   1.219   0.009  0.00  0.00    +0.550 C 
ATOM     13  O   LIG    1        1.036   1.845   0.002  0.00  0.00    -0.650 OA
ENDBRANCH   1  12
TORSDOF 1
ENDMDL
MODEL       50
REMARK  Name = ZINC000096532878
REMARK                            x       y       z     vdW  Elec       q    Type
REMARK                         _______ _______ _______ _____ _____    ______ ____
ROOT
ATOM      1  C   LIG    1       -1.300   1.938   0.019  0.00  0.00    +0.090 C 
ATOM      2  N   LIG    1       -2.510   1.412   0.027  0.00  0.00    -0.260 NA
ATOM      3  O   LIG    1       -3.525   2.435   0.068  0.00  0.00    -0.210 OA
ATOM      4  C   LIG    1       -2.888   3.493   0.760  0.00  0.00    +0.140 C 
ATOM      5  C   LIG    1       -3.308   4.947   0.603  0.00  0.00    -0.270 C 
ATOM      6  S   LIG    1       -1.747   5.809   1.084  0.00  0.00    +2.380 S 
ATOM      7  C   LIG    1       -0.606   4.425   0.659  0.00  0.00    -0.240 C 
ATOM      8  O   LIG    1       -1.737   6.020   2.489  0.00  0.00    -0.930 OA
ATOM      9  O   LIG    1       -1.517   6.899   0.201  0.00  0.00    -0.930 OA
ATOM     10  C   LIG    1       -1.508   3.405   0.028  0.00  0.00    -0.010 C 
ENDROOT
BRANCH   1  12
ATOM     11  O   LIG    1        0.002  -0.004   0.002  0.00  0.00    -0.650 OA
ATOM     12  C   LIG    1       -0.015   1.219   0.009  0.00  0.00    +0.550 C 
ATOM     13  O   LIG    1        1.036   1.845   0.002  0.00  0.00    -0.650 OA
ENDBRANCH   1  12
TORSDOF 1
ENDMDL
MODEL       51
REMARK  Name = ZINC000096532880
REMARK                            x       y       z     vdW  Elec       q    Type
REMARK                         _______ _______ _______ _____ _____    ______ ____
ROOT
ATOM      1  C   LIG    1       -1.300   1.938   0.019  0.00  0.00    +0.070 C 
ATOM      2  N   LIG    1       -2.474   1.397   0.027  0.00  0.00    -0.260 NA
ATOM      3  O   LIG    1       -3.518   2.356   0.041  0.00  0.00    -0.220 OA
ATOM      4  C   LIG    1       -2.940   3.586   0.507  0.00  0.00    +0.160 C 
ATOM      5  C   LIG    1       -3.635   4.802  -0.096  0.00  0.00    -0.290 C 
ATOM      6  S   LIG    1       -2.675   5.249  -1.583  0.00  0.00    +2.400 S 
ATOM      7  C   LIG    1       -1.410   3.938  -1.454  0.00  0.00    -0.280 C 
ATOM      8  O   LIG    1       -2.063   6.515  -1.383  0.00  0.00    -0.940 OA
ATOM      9  O   LIG    1       -3.469   5.022  -2.739  0.00  0.00    -0.930 OA
ATOM     10  C   LIG    1       -1.481   3.452   0.028  0.00  0.00    +0.040 C 
ENDROOT
BRANCH   1  12
ATOM     11  O   LIG    1        0.002  -0.004   0.002  0.00  0.00    -0.650 OA
ATOM     12  C   LIG    1       -0.015   1.219   0.009  0.00  0.00    +0.550 C 
ATOM     13  O   LIG    1        1.036   1.845   0.002  0.00  0.00    -0.660 OA
ENDBRANCH   1  12
TORSDOF 1
ENDMDL
MODEL       52
REMARK  Name = ZINC000096532921
REMARK                            x       y       z     vdW  Elec       q    Type
REMARK                         _______ _______ _______ _____ _____    ______ ____
ROOT
ATOM      1  C   LIG    1       -1.434   1.984   0.142  0.00  0.00    -0.060 C 
ATOM      2  C   LIG    1       -1.535   2.888  -1.051  0.00  0.00    -0.020 C 
ATOM      3  C   LIG    1       -0.441   3.647  -1.767  0.00  0.00    -0.260 C 
ATOM      4  S   LIG    1       -0.745   3.231  -3.536  0.00  0.00    +2.360 S 
ATOM      5  C   LIG    1       -2.030   1.945  -3.210  0.00  0.00    -0.300 C 
ATOM      6  O   LIG    1        0.414   2.621  -4.087  0.00  0.00    -0.940 OA
ATOM      7  O   LIG    1       -1.341   4.343  -4.190  0.00  0.00    -0.960 OA
ATOM      8  C   LIG    1       -1.586   1.512  -1.808  0.00  0.00    +0.010 C 
ATOM      9  C   LIG    1       -2.510   1.182  -0.667  0.00  0.00    +0.030 C 
ENDROOT
BRANCH   1  11
ATOM     10  O   LIG    1        0.802   1.537  -0.485  0.00  0.00    -0.680 OA
ATOM     11  C   LIG    1       -0.108   1.283   0.285  0.00  0.00    +0.510 C 
ATOM     12  O   LIG    1        0.056   0.466   1.175  0.00  0.00    -0.680 OA
ENDBRANCH   1  11
BRANCH   9  13
ATOM     13  C   LIG    1       -2.591  -0.307  -0.327  0.00  0.00    +0.190 C 
BRANCH  13  14
ATOM     14  O   LIG    1       -3.551  -0.507   0.713  0.00  0.00    -0.570 OA
ATOM     15  H   LIG    1       -3.655  -1.431   0.980  0.00  0.00    +0.370 HD
ENDBRANCH  13  14
ENDBRANCH   9  13
TORSDOF 3
ENDMDL
MODEL       53
REMARK  Name = ZINC000096532882
REMARK                            x       y       z     vdW  Elec       q    Type
REMARK                         _______ _______ _______ _____ _____    ______ ____
ROOT
ATOM      1  C   LIG    1       -1.300   1.938   0.019  0.00  0.00    +0.060 C 
ATOM      2  N   LIG    1       -2.475   1.397   0.027  0.00  0.00    -0.250 NA
ATOM      3  O   LIG    1       -3.518   2.357   0.029  0.00  0.00    -0.220 OA
ATOM      4  C   LIG    1       -2.945   3.584  -0.451  0.00  0.00    +0.160 C 
ATOM      5  C   LIG    1       -3.614   4.805   0.179  0.00  0.00    -0.290 C 
ATOM      6  S   LIG    1       -2.831   4.972   1.821  0.00  0.00    +2.400 S 
ATOM      7  C   LIG    1       -1.361   3.943   1.491  0.00  0.00    -0.290 C 
ATOM      8  O   LIG    1       -3.644   4.333   2.795  0.00  0.00    -0.930 OA
ATOM      9  O   LIG    1       -2.426   6.321   2.012  0.00  0.00    -0.940 OA
ATOM     10  C   LIG    1       -1.482   3.453   0.028  0.00  0.00    +0.040 C 
ENDROOT
BRANCH   1  12
ATOM     11  O   LIG    1        0.002  -0.004   0.002  0.00  0.00    -0.650 OA
ATOM     12  C   LIG    1       -0.015   1.219   0.009  0.00  0.00    +0.550 C 
ATOM     13  O   LIG    1        1.036   1.845   0.002  0.00  0.00    -0.660 OA
ENDBRANCH   1  12
TORSDOF 1
ENDMDL
MODEL       54
REMARK  Name = ZINC000096516002
REMARK                            x       y       z     vdW  Elec       q    Type
REMARK                         _______ _______ _______ _____ _____    ______ ____
ROOT
ATOM      1  C   LIG    1       -1.136  -2.172   0.001  0.00  0.00    -0.030 A 
ATOM      2  N   LIG    1        0.012  -2.812  -0.008  0.00  0.00    -0.150 NA
ATOM      3  N   LIG    1        0.083  -4.094  -0.015  0.00  0.00    -0.280 N 
ATOM      4  C   LIG    1       -1.021  -4.865  -0.014  0.00  0.00    +0.480 A 
ATOM      5  C   LIG    1       -2.296  -4.257  -0.004  0.00  0.00    -0.040 A 
ATOM      6  O   LIG    1       -0.920  -6.080  -0.021  0.00  0.00    -0.520 OA
ATOM      7  C   LIG    1       -2.353  -2.895   0.009  0.00  0.00    +0.130 A 
ENDROOT
BRANCH   1  11
ATOM      8  C   LIG    1       -0.018   1.461   0.010  0.00  0.00    +0.290 C 
ATOM      9  N   LIG    1        0.002  -0.004   0.002  0.00  0.00    -0.720 N 
ATOM     10  H   LIG    1        0.849  -0.478  -0.009  0.00  0.00    +0.410 HD
ATOM     11  C   LIG    1       -1.156  -0.694   0.009  0.00  0.00    +0.600 C 
ATOM     12  O   LIG    1       -2.217  -0.100   0.023  0.00  0.00    -0.540 OA
ENDBRANCH   1  11
BRANCH   3  13
ATOM     13  C   LIG    1        1.400  -4.735  -0.024  0.00  0.00    +0.240 C 
BRANCH  13  14
ATOM     14  C   LIG    1        1.845  -4.947  -1.448  0.00  0.00    +0.490 C 
ATOM     15  O   LIG    1        2.922  -5.470  -1.679  0.00  0.00    -0.680 OA
ATOM     16  O   LIG    1        1.129  -4.595  -2.370  0.00  0.00    -0.680 OA
ENDBRANCH  13  14
ENDBRANCH   3  13
TORSDOF 3
ENDMDL
MODEL       55
REMARK  Name = ZINC000004403778
REMARK                            x       y       z     vdW  Elec       q    Type
REMARK                         _______ _______ _______ _____ _____    ______ ____
ROOT
ATOM      1  C   LIG    1       -1.330   1.951   0.019  0.00  0.00    +0.100 C 
ATOM      2  O   LIG    1       -1.096   3.362  -0.076  0.00  0.00    -0.360 OA
ATOM      3  C   LIG    1       -2.273   4.167   0.001  0.00  0.00    +0.380 C 
ATOM      4  O   LIG    1       -2.983   3.895   1.215  0.00  0.00    -0.390 OA
ATOM      5  C   LIG    1       -3.347   2.522   1.347  0.00  0.00    +0.110 C 
ATOM      6  C   LIG    1       -4.080   2.251   2.660  0.00  0.00    +0.230 C 
ATOM      7  O   LIG    1       -4.313   0.840   2.757  0.00  0.00    -0.380 OA
ATOM      8  C   LIG    1       -3.137   0.035   2.679  0.00  0.00    +0.390 C 
ATOM      9  O   LIG    1       -2.427   0.306   1.464  0.00  0.00    -0.350 OA
ATOM     10  C   LIG    1       -2.063   1.678   1.331  0.00  0.00    +0.120 C 
ENDROOT
BRANCH   1  12
ATOM     11  O   LIG    1        0.002  -0.004   0.002  0.00  0.00    -0.670 OA
ATOM     12  C   LIG    1       -0.015   1.215   0.009  0.00  0.00    +0.510 C 
ATOM     13  O   LIG    1        1.033   1.839   0.002  0.00  0.00    -0.670 OA
ENDBRANCH   1  12
BRANCH   6  14
ATOM     14  C   LIG    1       -3.219   2.714   3.837  0.00  0.00    +0.170 C 
BRANCH  14  15
ATOM     15  O   LIG    1       -3.943   2.537   5.056  0.00  0.00    -0.570 OA
ATOM     16  H   LIG    1       -3.457   2.810   5.846  0.00  0.00    +0.380 HD
ENDBRANCH  14  15
ENDBRANCH   6  14
TORSDOF 3
ENDMDL
MODEL       56
REMARK  Name = ZINC000019512552
REMARK                            x       y       z     vdW  Elec       q    Type
REMARK                         _______ _______ _______ _____ _____    ______ ____
ROOT
ATOM      1  C   LIG    1       -1.330   1.951   0.019  0.00  0.00    -0.090 C 
ATOM      2  C   LIG    1       -2.382   1.104   0.739  0.00  0.00    +0.030 C 
ATOM      3  C   LIG    1       -3.725   1.840   0.718  0.00  0.00    +0.270 C 
ATOM      4  N   LIG    1       -3.539   3.182   1.285  0.00  0.00    -0.600 N 
ATOM      5  C   LIG    1       -2.491   4.046   0.725  0.00  0.00    +0.260 C 
ATOM      6  C   LIG    1       -4.314   3.612   2.300  0.00  0.00    +0.500 C 
ATOM      7  O   LIG    1       -5.176   2.889   2.754  0.00  0.00    -0.520 OA
ATOM      8  C   LIG    1       -1.161   3.286   0.747  0.00  0.00    +0.030 C 
ENDROOT
BRANCH   1  10
ATOM      9  O   LIG    1        0.002  -0.004   0.002  0.00  0.00    -0.700 OA
ATOM     10  C   LIG    1       -0.015   1.215   0.009  0.00  0.00    +0.500 C 
ATOM     11  O   LIG    1        1.033   1.839   0.002  0.00  0.00    -0.700 OA
ENDBRANCH   1  10
BRANCH   6  12
ATOM     12  C   LIG    1       -4.111   4.992   2.871  0.00  0.00    +0.380 C 
BRANCH  12  13
ATOM     13  N   LIG    1       -5.070   5.218   3.955  0.00  0.00    -0.300 N 
ATOM     14  C   LIG    1       -4.779   5.588   5.216  0.00  0.00    +0.400 A 
ATOM     15  N   LIG    1       -5.920   5.678   5.855  0.00  0.00    -0.310 NA
ATOM     16  N   LIG    1       -6.863   5.378   5.029  0.00  0.00    -0.080 NA
ATOM     17  N   LIG    1       -6.353   5.105   3.879  0.00  0.00    -0.060 NA
ENDBRANCH  12  13
ENDBRANCH   6  12
TORSDOF 3
ENDMDL
MODEL       57
REMARK  Name = ZINC000043703075
REMARK                            x       y       z     vdW  Elec       q    Type
REMARK                         _______ _______ _______ _____ _____    ______ ____
ROOT
ATOM      1  N   LIG    1        0.796  -0.399  -1.397  0.00  0.00    -1.000 NA
ATOM      2  C   LIG    1        0.062  -0.585  -2.658  0.00  0.00    +0.260 C 
ATOM      3  C   LIG    1        0.742   0.258  -3.743  0.00  0.00    +0.180 C 
ATOM      4  O   LIG    1        2.138  -0.048  -3.770  0.00  0.00    -0.340 OA
ATOM      5  C   LIG    1        2.831   0.269  -2.560  0.00  0.00    +0.060 C 
ATOM      6  C   LIG    1        2.258  -0.568  -1.416  0.00  0.00    +0.290 C 
ENDROOT
BRANCH   1   8
ATOM      7  C   LIG    1       -0.022   1.810   0.012  0.00  0.00    -0.310 C 
ATOM      8  S   LIG    1        0.002  -0.004   0.002  0.00  0.00    +2.610 S 
ATOM      9  O   LIG    1       -1.309  -0.519  -0.182  0.00  0.00    -0.960 OA
ATOM     10  O   LIG    1        0.845  -0.497   1.035  0.00  0.00    -0.950 OA
ENDBRANCH   1   8
BRANCH   5  11
ATOM     11  C   LIG    1        4.297  -0.035  -2.725  0.00  0.00    +0.510 C 
ATOM     12  O   LIG    1        5.069   0.165  -1.802  0.00  0.00    -0.690 OA
ATOM     13  O   LIG    1        4.712  -0.483  -3.780  0.00  0.00    -0.670 OA
ENDBRANCH   5  11
TORSDOF 2
ENDMDL
MODEL       58
REMARK  Name = ZINC000514863011
REMARK                            x       y       z     vdW  Elec       q    Type
REMARK                         _______ _______ _______ _____ _____    ______ ____
ROOT
ATOM      1  C   LIG    1       -1.414  -2.405  -2.492  0.00  0.00    +0.370 C 
ENDROOT
BRANCH   1   6
ATOM      2  C   LIG    1        0.739  -2.004  -1.265  0.00  0.00    +0.200 A 
ATOM      3  N   LIG    1        1.662  -2.777  -0.747  0.00  0.00    -0.310 NA
ATOM      4  N   LIG    1        1.320  -4.002  -0.958  0.00  0.00    -0.080 NA
ATOM      5  N   LIG    1        0.203  -4.029  -1.597  0.00  0.00    -0.080 NA
ATOM      6  N   LIG    1       -0.191  -2.818  -1.800  0.00  0.00    -0.290 N 
BRANCH   2   7
ATOM      7  C   LIG    1        0.718  -0.497  -1.257  0.00  0.00    +0.160 C 
BRANCH   7   9
ATOM      8  C   LIG    1       -0.019   1.526   0.010  0.00  0.00    +0.030 C 
ATOM      9  C   LIG    1        0.002  -0.004   0.002  0.00  0.00    +0.020 C 
ENDBRANCH   7   9
ENDBRANCH   2   7
ENDBRANCH   1   6
BRANCH   1  10
ATOM     10  C   LIG    1       -2.539  -2.286  -1.496  0.00  0.00    +0.490 C 
ATOM     11  N   LIG    1       -3.768  -1.916  -1.908  0.00  0.00    -0.690 N 
ATOM     12  H   LIG    1       -3.928  -1.726  -2.846  0.00  0.00    +0.410 HD
ATOM     13  O   LIG    1       -2.338  -2.523  -0.324  0.00  0.00    -0.540 OA
BRANCH  11  14
ATOM     14  C   LIG    1       -4.861  -1.800  -0.940  0.00  0.00    +0.190 C 
BRANCH  14  15
ATOM     15  C   LIG    1       -6.119  -1.375  -1.651  0.00  0.00    +0.490 C 
ATOM     16  O   LIG    1       -7.152  -1.220  -1.023  0.00  0.00    -0.680 OA
ATOM     17  O   LIG    1       -6.104  -1.187  -2.856  0.00  0.00    -0.690 OA
ENDBRANCH  14  15
ENDBRANCH  11  14
ENDBRANCH   1  10
TORSDOF 6
ENDMDL
MODEL       59
REMARK  Name = ZINC000062710491
REMARK                            x       y       z     vdW  Elec       q    Type
REMARK                         _______ _______ _______ _____ _____    ______ ____
ROOT
ATOM      1  C   LIG    1       -0.018   1.461   0.010  0.00  0.00    +0.330 C 
ATOM      2  N   LIG    1        0.002  -0.004   0.002  0.00  0.00    -0.560 N 
ATOM      3  C   LIG    1        0.005  -0.661  -1.178  0.00  0.00    +0.570 A 
ATOM      4  C   LIG    1        0.026  -2.140  -1.154  0.00  0.00    -0.030 A 
ATOM      5  N   LIG    1        0.031  -2.850  -2.266  0.00  0.00    -0.310 NA
ATOM      6  CA  LIG    1        0.050  -4.178  -2.196  0.00  0.00    +0.010 A 
ATOM      7  C   LIG    1        0.066  -4.816  -0.950  0.00  0.00    +0.360 A 
ATOM      8  N   LIG    1        0.060  -4.108   0.164  0.00  0.00    -0.480 NA
ATOM      9  C   LIG    1        0.041  -2.784   0.102  0.00  0.00    +0.330 A 
ATOM     10  N   LIG    1        0.036  -2.010   1.243  0.00  0.00    -0.520 N 
ATOM     11  C   LIG    1        0.051  -2.660   2.557  0.00  0.00    +0.350 C 
ATOM     12  O   LIG    1       -0.008  -0.054  -2.231  0.00  0.00    -0.460 OA
ATOM     13  C   LIG    1        0.022  -0.669   1.167  0.00  0.00    +0.710 A 
ATOM     14  O   LIG    1        0.018  -0.029   2.201  0.00  0.00    -0.540 OA
ENDROOT
BRANCH   6  15
ATOM     15  C   LIG    1        0.056  -4.981  -3.436  0.00  0.00    +0.540 C 
ATOM     16  OXT LIG    1        0.074  -6.202  -3.373  0.00  0.00    -0.670 OA
ATOM     17  O   LIG    1        0.043  -4.425  -4.525  0.00  0.00    -0.650 OA
ENDBRANCH   6  15
TORSDOF 1
ENDMDL
MODEL       60
REMARK  Name = ZINC000096532917
REMARK                            x       y       z     vdW  Elec       q    Type
REMARK                         _______ _______ _______ _____ _____    ______ ____
ROOT
ATOM      1  C   LIG    1       -1.330   1.951   0.019  0.00  0.00    -0.100 C 
ATOM      2  C   LIG    1       -1.519   2.901  -1.179  0.00  0.00    +0.000 C 
ATOM      3  C   LIG    1       -2.206   3.865  -0.185  0.00  0.00    +0.000 C 
ATOM      4  C   LIG    1       -3.692   3.516   0.001  0.00  0.00    -0.290 C 
ATOM      5  S   LIG    1       -3.862   2.922   1.718  0.00  0.00    +2.390 S 
ATOM      6  C   LIG    1       -2.111   3.100   2.208  0.00  0.00    -0.310 C 
ATOM      7  O   LIG    1       -4.210   1.544   1.705  0.00  0.00    -0.940 OA
ATOM      8  O   LIG    1       -4.652   3.844   2.457  0.00  0.00    -0.950 OA
ATOM      9  C   LIG    1       -1.325   3.211   0.887  0.00  0.00    +0.060 C 
ENDROOT
BRANCH   1  11
ATOM     10  O   LIG    1        0.002  -0.004   0.002  0.00  0.00    -0.700 OA
ATOM     11  C   LIG    1       -0.015   1.215   0.009  0.00  0.00    +0.520 C 
ATOM     12  O   LIG    1        1.033   1.839   0.002  0.00  0.00    -0.690 OA
ENDBRANCH   1  11
BRANCH   2  13
ATOM     13  C   LIG    1       -0.206   3.437  -1.752  0.00  0.00    +0.190 C 
BRANCH  13  14
ATOM     14  O   LIG    1        0.330   2.493  -2.680  0.00  0.00    -0.560 OA
ATOM     15  H   LIG    1        1.165   2.768  -3.083  0.00  0.00    +0.370 HD
ENDBRANCH  13  14
ENDBRANCH   2  13
TORSDOF 3
ENDMDL
MODEL       61
REMARK  Name = ZINC000386725973
REMARK                            x       y       z     vdW  Elec       q    Type
REMARK                         _______ _______ _______ _____ _____    ______ ____
ROOT
ATOM      1  C   LIG    1       -3.794   1.676   0.029  0.00  0.00    +0.530 C 
ATOM      2  N   LIG    1       -4.952   0.987   0.031  0.00  0.00    -0.640 N 
ATOM      3  C   LIG    1       -5.093  -0.503   0.030  0.00  0.00    +0.340 C 
ATOM      4  C   LIG    1       -6.541  -0.731   0.167  0.00  0.00    -0.070 C 
ATOM      5  C   LIG    1       -7.519  -1.763  -0.097  0.00  0.00    +0.590 C 
ATOM      6  N   LIG    1       -8.722  -1.102  -0.112  0.00  0.00    -0.710 N 
ATOM      7  H   LIG    1       -9.582  -1.550  -0.080  0.00  0.00    +0.420 HD
ATOM      8  C   LIG    1       -8.578   0.255  -0.180  0.00  0.00    +0.550 C 
ATOM      9  O   LIG    1       -9.418   1.094   0.068  0.00  0.00    -0.460 OA
ATOM     10  O   LIG    1       -7.321  -2.947  -0.265  0.00  0.00    -0.450 OA
ATOM     11  C   LIG    1       -7.160   0.478  -0.645  0.00  0.00    +0.000 C 
ATOM     12  C   LIG    1       -6.328   1.572   0.041  0.00  0.00    +0.300 C 
ATOM     13  O   LIG    1       -3.811   2.889   0.036  0.00  0.00    -0.530 OA
ENDROOT
BRANCH   1  14
ATOM     14  C   LIG    1       -2.479   0.941   0.019  0.00  0.00    +0.070 C 
BRANCH  14  15
ATOM     15  C   LIG    1       -1.330   1.951   0.019  0.00  0.00    -0.050 C 
BRANCH  15  17
ATOM     16  O   LIG    1        0.002  -0.004   0.002  0.00  0.00    -0.700 OA
ATOM     17  C   LIG    1       -0.015   1.215   0.009  0.00  0.00    +0.490 C 
ATOM     18  O   LIG    1        1.033   1.839   0.002  0.00  0.00    -0.700 OA
ENDBRANCH  15  17
ENDBRANCH  14  15
ENDBRANCH   1  14
TORSDOF 3
ENDMDL
MODEL       62
REMARK  Name = ZINC000386725970
REMARK                            x       y       z     vdW  Elec       q    Type
REMARK                         _______ _______ _______ _____ _____    ______ ____
ROOT
ATOM      1  C   LIG    1       -3.794   1.676   0.029  0.00  0.00    +0.540 C 
ATOM      2  N   LIG    1       -4.952   0.987   0.031  0.00  0.00    -0.630 N 
ATOM      3  C   LIG    1       -5.134  -0.483   0.030  0.00  0.00    +0.310 C 
ATOM      4  C   LIG    1       -6.318  -0.732   0.988  0.00  0.00    +0.010 C 
ATOM      5  C   LIG    1       -7.270  -1.722   0.356  0.00  0.00    +0.540 C 
ATOM      6  N   LIG    1       -8.410  -1.100   0.035  0.00  0.00    -0.680 N 
ATOM      7  H   LIG    1       -9.157  -1.556  -0.384  0.00  0.00    +0.420 HD
ATOM      8  C   LIG    1       -8.436   0.203   0.339  0.00  0.00    +0.540 C 
ATOM      9  O   LIG    1       -9.368   0.951   0.135  0.00  0.00    -0.470 OA
ATOM     10  O   LIG    1       -7.036  -2.897   0.169  0.00  0.00    -0.470 OA
ATOM     11  C   LIG    1       -7.113   0.602   0.991  0.00  0.00    +0.010 C 
ATOM     12  C   LIG    1       -6.331   1.527   0.040  0.00  0.00    +0.290 C 
ATOM     13  O   LIG    1       -3.811   2.889   0.036  0.00  0.00    -0.530 OA
ENDROOT
BRANCH   1  14
ATOM     14  C   LIG    1       -2.479   0.941   0.019  0.00  0.00    +0.070 C 
BRANCH  14  15
ATOM     15  C   LIG    1       -1.330   1.951   0.019  0.00  0.00    -0.050 C 
BRANCH  15  17
ATOM     16  O   LIG    1        0.002  -0.004   0.002  0.00  0.00    -0.700 OA
ATOM     17  C   LIG    1       -0.015   1.215   0.009  0.00  0.00    +0.490 C 
ATOM     18  O   LIG    1        1.033   1.839   0.002  0.00  0.00    -0.700 OA
ENDBRANCH  15  17
ENDBRANCH  14  15
ENDBRANCH   1  14
TORSDOF 3
ENDMDL
MODEL       63
REMARK  Name = ZINC000386725971
REMARK                            x       y       z     vdW  Elec       q    Type
REMARK                         _______ _______ _______ _____ _____    ______ ____
ROOT
ATOM      1  C   LIG    1       -3.794   1.676   0.029  0.00  0.00    +0.530 C 
ATOM      2  N   LIG    1       -4.952   0.987   0.031  0.00  0.00    -0.640 N 
ATOM      3  C   LIG    1       -5.090  -0.507   0.030  0.00  0.00    +0.350 C 
ATOM      4  C   LIG    1       -6.439  -0.690  -0.540  0.00  0.00    -0.070 C 
ATOM      5  C   LIG    1       -7.436  -1.725  -0.688  0.00  0.00    +0.590 C 
ATOM      6  N   LIG    1       -8.616  -1.048  -0.875  0.00  0.00    -0.710 N 
ATOM      7  H   LIG    1       -9.432  -1.466  -1.191  0.00  0.00    +0.420 HD
ATOM      8  C   LIG    1       -8.515   0.280  -0.566  0.00  0.00    +0.550 C 
ATOM      9  O   LIG    1       -9.279   1.167  -0.883  0.00  0.00    -0.460 OA
ATOM     10  O   LIG    1       -7.268  -2.925  -0.655  0.00  0.00    -0.460 OA
ATOM     11  C   LIG    1       -7.263   0.393   0.267  0.00  0.00    +0.000 C 
ATOM     12  C   LIG    1       -6.322   1.573   0.041  0.00  0.00    +0.300 C 
ATOM     13  O   LIG    1       -3.811   2.889   0.036  0.00  0.00    -0.530 OA
ENDROOT
BRANCH   1  14
ATOM     14  C   LIG    1       -2.479   0.941   0.019  0.00  0.00    +0.070 C 
BRANCH  14  15
ATOM     15  C   LIG    1       -1.330   1.951   0.019  0.00  0.00    -0.050 C 
BRANCH  15  17
ATOM     16  O   LIG    1        0.002  -0.004   0.002  0.00  0.00    -0.700 OA
ATOM     17  C   LIG    1       -0.015   1.215   0.009  0.00  0.00    +0.490 C 
ATOM     18  O   LIG    1        1.033   1.839   0.002  0.00  0.00    -0.700 OA
ENDBRANCH  15  17
ENDBRANCH  14  15
ENDBRANCH   1  14
TORSDOF 3
ENDMDL
MODEL       64
REMARK  Name = ZINC000072220996
REMARK                            x       y       z     vdW  Elec       q    Type
REMARK                         _______ _______ _______ _____ _____    ______ ____
ROOT
ATOM      1  C   LIG    1       -1.291   1.935   0.019  0.00  0.00    -0.330 A 
ATOM      2  C   LIG    1       -2.503   1.236   0.038  0.00  0.00    +0.370 A 
ATOM      3  N   LIG    1       -3.645   1.905   0.046  0.00  0.00    -0.590 NA
ATOM      4  C   LIG    1       -3.675   3.226   0.037  0.00  0.00    +0.620 A 
ATOM      5  N   LIG    1       -2.536   3.967   0.019  0.00  0.00    -0.660 N 
ATOM      6  H   LIG    1       -2.588   4.936   0.013  0.00  0.00    +0.400 HD
ATOM      7  C   LIG    1       -1.331   3.357   0.015  0.00  0.00    +0.540 A 
ATOM      8  O   LIG    1       -0.302   4.009  -0.001  0.00  0.00    -0.500 OA
ENDROOT
BRANCH   4   9
ATOM      9  N   LIG    1       -4.881   3.863   0.046  0.00  0.00    -0.600 N 
ATOM     10  C   LIG    1       -6.144   3.112  -0.049  0.00  0.00    +0.330 C 
ATOM     11  C   LIG    1       -6.949   3.369   1.226  0.00  0.00    +0.260 C 
ATOM     12  N   LIG    1       -6.972   4.790   1.546  0.00  0.00    -0.710 N 
ATOM     13  H   LIG    1       -7.689   5.113   2.114  0.00  0.00    +0.400 HD
ATOM     14  C   LIG    1       -6.076   5.678   1.112  0.00  0.00    +0.520 C 
ATOM     15  O   LIG    1       -6.154   6.820   1.511  0.00  0.00    -0.540 OA
ATOM     16  C   LIG    1       -4.973   5.326   0.158  0.00  0.00    +0.320 C 
ENDBRANCH   4   9
BRANCH   1  18
ATOM     17  O   LIG    1        0.002  -0.004   0.013  0.00  0.00    -0.700 OA
ATOM     18  C   LIG    1       -0.015   1.220   0.009  0.00  0.00    +0.540 C 
ATOM     19  O   LIG    1        1.038   1.847  -0.007  0.00  0.00    -0.670 OA
ENDBRANCH   1  18
TORSDOF 2
ENDMDL
MODEL       65
REMARK  Name = ZINC000604971565
REMARK                            x       y       z     vdW  Elec       q    Type
REMARK                         _______ _______ _______ _____ _____    ______ ____
ROOT
ATOM      1  N   LIG    1       -0.017   1.365   0.009  0.00  0.00    -0.830 N 
ATOM      2  H   LIG    1       -0.863   1.838   0.016  0.00  0.00    +0.410 HD
ATOM      3  H   LIG    1        0.817   1.861   0.004  0.00  0.00    +0.430 HD
ATOM      4  C   LIG    1        0.002  -0.004   0.002  0.00  0.00    +0.570 A 
ATOM      5  N   LIG    1       -1.142  -0.660   0.004  0.00  0.00    -0.580 N 
ATOM      6  C   LIG    1       -1.191  -1.991  -0.004  0.00  0.00    +0.520 A 
ATOM      7  C   LIG    1        0.007  -2.726  -0.014  0.00  0.00    -0.120 A 
ATOM      8  N   LIG    1        0.320  -4.042  -0.023  0.00  0.00    -0.500 NA
ATOM      9  C   LIG    1        1.635  -4.149  -0.030  0.00  0.00    +0.460 A 
ATOM     10  N   LIG    1        2.191  -2.939  -0.026  0.00  0.00    -0.510 NA
ATOM     11  C   LIG    1        1.230  -2.026  -0.016  0.00  0.00    +0.290 A 
ATOM     12  H   LIG    1       -1.973  -0.158   0.011  0.00  0.00    +0.420 HD
ATOM     13  N   LIG    1        1.198  -0.647  -0.013  0.00  0.00    -0.490 NA
ENDROOT
BRANCH   6  14
ATOM     14  N   LIG    1       -2.403  -2.640  -0.002  0.00  0.00    -0.820 N 
ATOM     15  H   LIG    1       -2.433  -3.610  -0.007  0.00  0.00    +0.440 HD
ATOM     16  H   LIG    1       -3.227  -2.129   0.005  0.00  0.00    +0.400 HD
ENDBRANCH   6  14
BRANCH   9  17
ATOM     17  O   LIG    1        2.321  -5.321  -0.041  0.00  0.00    -0.680 OA
BRANCH  17  18
ATOM     18  S   LIG    1        1.434  -6.558  -0.044  0.00  0.00    +2.770 S 
ATOM     19  O   LIG    1        0.890  -6.680  -1.388  0.00  0.00    -1.070 OA
ATOM     20  O   LIG    1        0.395  -6.331   0.947  0.00  0.00    -1.060 OA
ATOM     21  O   LIG    1        2.285  -7.685   0.305  0.00  0.00    -1.070 OA
ENDBRANCH  17  18
ENDBRANCH   9  17
TORSDOF 3
ENDMDL
MODEL       66
REMARK  Name = ZINC000050213034
REMARK                            x       y       z     vdW  Elec       q    Type
REMARK                         _______ _______ _______ _____ _____    ______ ____
ROOT
ATOM      1  C   LIG    1       -2.484  -4.345  -1.134  0.00  0.00    +0.360 C 
ENDROOT
BRANCH   1   2
ATOM      2  N   LIG    1       -2.521  -5.807  -1.042  0.00  0.00    -0.370 N 
ATOM      3  C   LIG    1       -3.232  -6.537  -0.161  0.00  0.00    +0.230 A 
ATOM      4  C   LIG    1       -2.966  -7.860  -0.438  0.00  0.00    -0.090 A 
ATOM      5  N   LIG    1       -2.106  -7.909  -1.472  0.00  0.00    -0.200 NA
ATOM      6  N   LIG    1       -1.827  -6.712  -1.856  0.00  0.00    -0.080 NA
BRANCH   4   7
ATOM      7  C   LIG    1       -3.526  -9.020   0.274  0.00  0.00    +0.560 C 
ATOM      8  O   LIG    1       -3.215 -10.154  -0.064  0.00  0.00    -0.670 OA
ATOM      9  O   LIG    1       -4.304  -8.850   1.203  0.00  0.00    -0.690 OA
ENDBRANCH   4   7
ENDBRANCH   1   2
BRANCH   1  12
ATOM     10  N   LIG    1       -0.776  -2.556  -1.119  0.00  0.00    -0.730 N 
ATOM     11  H   LIG    1       -1.495  -1.912  -1.217  0.00  0.00    +0.400 HD
ATOM     12  C   LIG    1       -1.055  -3.873  -1.054  0.00  0.00    +0.500 C 
ATOM     13  O   LIG    1       -0.156  -4.678  -0.932  0.00  0.00    -0.500 OA
BRANCH  10  14
ATOM     14  C   LIG    1        0.613  -2.097  -1.041  0.00  0.00    +0.290 C 
BRANCH  14  15
ATOM     15  C   LIG    1        0.652  -0.570  -1.138  0.00  0.00    +0.180 C 
BRANCH  15  17
ATOM     16  C   LIG    1       -0.017   1.425   0.010  0.00  0.00    +0.200 C 
ATOM     17  O   LIG    1        0.002  -0.004   0.002  0.00  0.00    -0.390 OA
ENDBRANCH  15  17
ENDBRANCH  14  15
ENDBRANCH  10  14
ENDBRANCH   1  12
TORSDOF 6
ENDMDL
MODEL       67
REMARK  Name = ZINC000225590541
REMARK                            x       y       z     vdW  Elec       q    Type
REMARK                         _______ _______ _______ _____ _____    ______ ____
ROOT
ATOM      1  C   LIG    1       -1.424   2.055  -0.025  0.00  0.00    -0.090 C 
ATOM      2  C   LIG    1       -1.245   3.565   0.144  0.00  0.00    +0.060 C 
ATOM      3  C   LIG    1       -1.637   4.425  -1.059  0.00  0.00    -0.300 C 
ATOM      4  S   LIG    1       -3.444   4.215  -1.217  0.00  0.00    +2.380 S 
ATOM      5  C   LIG    1       -3.758   3.565   0.460  0.00  0.00    -0.300 C 
ATOM      6  O   LIG    1       -3.717   3.201  -2.174  0.00  0.00    -0.940 OA
ATOM      7  O   LIG    1       -4.056   5.491  -1.347  0.00  0.00    -0.950 OA
ATOM      8  C   LIG    1       -2.407   3.520   1.142  0.00  0.00    -0.010 C 
ATOM      9  C   LIG    1       -1.968   2.062   1.416  0.00  0.00    +0.020 C 
ENDROOT
BRANCH   1  11
ATOM     10  O   LIG    1       -0.137   0.088  -0.287  0.00  0.00    -0.690 OA
ATOM     11  C   LIG    1       -0.128   1.302  -0.181  0.00  0.00    +0.510 C 
ATOM     12  O   LIG    1        0.929   1.909  -0.208  0.00  0.00    -0.700 OA
ENDBRANCH   1  11
BRANCH   9  13
ATOM     13  C   LIG    1       -3.135   1.107   1.676  0.00  0.00    +0.180 C 
BRANCH  13  14
ATOM     14  O   LIG    1       -2.628  -0.174   2.055  0.00  0.00    -0.550 OA
ATOM     15  H   LIG    1       -3.314  -0.831   2.236  0.00  0.00    +0.370 HD
ENDBRANCH  13  14
ENDBRANCH   9  13
TORSDOF 3
ENDMDL
MODEL       68
REMARK  Name = ZINC000075615445
REMARK                            x       y       z     vdW  Elec       q    Type
REMARK                         _______ _______ _______ _____ _____    ______ ____
ROOT
ATOM      1  C   LIG    1       -0.018   1.461   0.010  0.00  0.00    +0.350 C 
ATOM      2  N   LIG    1        0.002  -0.004   0.002  0.00  0.00    -0.950 N 
ATOM      3  C   LIG    1        0.008  -0.791  -1.083  0.00  0.00    +0.510 C 
ATOM      4  C   LIG    1        0.030  -2.257  -0.794  0.00  0.00    +0.250 C 
ATOM      5  N   LIG    1        0.040  -2.516   0.652  0.00  0.00    -1.070 NA
ATOM      6  H   LIG    1        0.054  -3.374   1.104  0.00  0.00    +0.460 HD
ATOM      7  O   LIG    1       -0.003  -0.347  -2.212  0.00  0.00    -0.470 OA
ATOM      8  S   LIG    1        0.028  -0.996   1.339  0.00  0.00    +2.760 S 
ATOM      9  O   LIG    1       -1.224  -0.841   1.992  0.00  0.00    -0.960 OA
ATOM     10  O   LIG    1        1.284  -0.815   1.979  0.00  0.00    -0.960 OA
ENDROOT
BRANCH   4  11
ATOM     11  C   LIG    1        1.283  -2.873  -1.420  0.00  0.00    -0.030 C 
BRANCH  11  12
ATOM     12  C   LIG    1        1.252  -4.368  -1.239  0.00  0.00    +0.500 C 
ATOM     13  O   LIG    1        2.165  -5.054  -1.668  0.00  0.00    -0.690 OA
ATOM     14  O   LIG    1        0.315  -4.893  -0.663  0.00  0.00    -0.690 OA
ENDBRANCH  11  12
ENDBRANCH   4  11
TORSDOF 2
ENDMDL
MODEL       69
REMARK  Name = ZINC000075615441
REMARK                            x       y       z     vdW  Elec       q    Type
REMARK                         _______ _______ _______ _____ _____    ______ ____
ROOT
ATOM      1  C   LIG    1       -0.018   1.461   0.010  0.00  0.00    +0.350 C 
ATOM      2  N   LIG    1        0.002  -0.004   0.002  0.00  0.00    -0.950 N 
ATOM      3  C   LIG    1        0.008  -0.791  -1.083  0.00  0.00    +0.510 C 
ATOM      4  C   LIG    1        0.030  -2.257  -0.794  0.00  0.00    +0.250 C 
ATOM      5  N   LIG    1        0.040  -2.516   0.652  0.00  0.00    -1.070 NA
ATOM      6  H   LIG    1        0.054  -3.374   1.104  0.00  0.00    +0.460 HD
ATOM      7  O   LIG    1       -0.003  -0.347  -2.212  0.00  0.00    -0.470 OA
ATOM      8  S   LIG    1        0.028  -0.996   1.339  0.00  0.00    +2.760 S 
ATOM      9  O   LIG    1       -1.224  -0.841   1.992  0.00  0.00    -0.960 OA
ATOM     10  O   LIG    1        1.284  -0.815   1.979  0.00  0.00    -0.960 OA
ENDROOT
BRANCH   4  11
ATOM     11  C   LIG    1       -1.210  -2.908  -1.409  0.00  0.00    -0.030 C 
BRANCH  11  12
ATOM     12  C   LIG    1       -1.135  -4.402  -1.228  0.00  0.00    +0.500 C 
ATOM     13  O   LIG    1       -2.032  -5.113  -1.650  0.00  0.00    -0.690 OA
ATOM     14  O   LIG    1       -0.178  -4.900  -0.660  0.00  0.00    -0.690 OA
ENDBRANCH  11  12
ENDBRANCH   4  11
TORSDOF 2
ENDMDL
MODEL       70
REMARK  Name = ZINC000002561006
REMARK                            x       y       z     vdW  Elec       q    Type
REMARK                         _______ _______ _______ _____ _____    ______ ____
ROOT
ATOM      1  CA  ASP A  2       -1.350   5.094   2.364  0.00  0.00    +0.270 C 
ENDROOT
BRANCH   1   3
ATOM      2  C   GLY A  1       -0.259   2.922   2.534  0.00  0.00    +0.500 C 
ATOM      3  N   ASP A  2       -1.393   3.629   2.363  0.00  0.00    -0.650 N 
ATOM      4  H   ASP A  2       -2.238   3.169   2.238  0.00  0.00    +0.410 HD
ATOM      5  O   GLY A  1        0.809   3.494   2.601  0.00  0.00    -0.540 OA
BRANCH   2   6
ATOM      6  CA  GLY A  1       -0.317   1.420   2.643  0.00  0.00    +0.290 C 
BRANCH   6   7
ATOM      7  N   GLY A  1        1.041   0.889   2.825  0.00  0.00    -0.620 N 
ATOM      8  H1  GLY A  1        1.611   1.147   2.033  0.00  0.00    +0.440 HD
ATOM      9  H2  GLY A  1        1.442   1.272   3.667  0.00  0.00    +0.440 HD
ATOM     10  H3  GLY A  1        1.002  -0.117   2.897  0.00  0.00    +0.440 HD
ENDBRANCH   6   7
ENDBRANCH   2   6
ENDBRANCH   1   3
BRANCH   1  11
ATOM     11  C   ASP A  2       -1.339   5.595   3.785  0.00  0.00    +0.500 C 
ATOM     12  N   GLY A  3       -1.301   6.919   4.033  0.00  0.00    -0.690 N 
ATOM     13  H   GLY A  3       -1.280   7.550   3.296  0.00  0.00    +0.410 HD
ATOM     14  O   ASP A  2       -1.365   4.806   4.706  0.00  0.00    -0.580 OA
BRANCH  12  15
ATOM     15  CA  GLY A  3       -1.290   7.406   5.415  0.00  0.00    +0.170 C 
BRANCH  15  16
ATOM     16  C   GLY A  3       -1.246   8.912   5.416  0.00  0.00    +0.490 C 
ATOM     17  OXT GLY A  3       -1.231   9.521   6.472  0.00  0.00    -0.690 OA
ATOM     18  O   GLY A  3       -1.225   9.523   4.361  0.00  0.00    -0.690 OA
ENDBRANCH  15  16
ENDBRANCH  12  15
ENDBRANCH   1  11
BRANCH   1  19
ATOM     19  CB  ASP A  2       -2.582   5.641   1.640  0.00  0.00    -0.040 C 
BRANCH  19  20
ATOM     20  CG  ASP A  2       -2.522   5.255   0.184  0.00  0.00    +0.500 C 
ATOM     21  OD2 ASP A  2       -3.460   5.506  -0.552  0.00  0.00    -0.690 OA
ATOM     22  OD1 ASP A  2       -1.534   4.691  -0.256  0.00  0.00    -0.700 OA
ENDBRANCH  19  20
ENDBRANCH   1  19
TORSDOF 8
ENDMDL
MODEL       71
REMARK  Name = ZINC000095929248
REMARK                            x       y       z     vdW  Elec       q    Type
REMARK                         _______ _______ _______ _____ _____    ______ ____
ROOT
ATOM      1  C   LIG    1        3.059  -0.968   1.571  0.00  0.00    +0.190 C 
ATOM      2  O   LIG    1        3.345   0.435   1.589  0.00  0.00    -0.330 OA
ATOM      3  C   LIG    1        3.258   0.866   2.861  0.00  0.00    +0.490 C 
ATOM      4  C   LIG    1        2.907  -0.243   3.741  0.00  0.00    -0.310 C 
ATOM      5  O   LIG    1        3.444   2.013   3.224  0.00  0.00    -0.540 OA
ATOM      6  C   LIG    1        2.780  -1.363   3.002  0.00  0.00    +0.260 C 
ATOM      7  O   LIG    1        2.463  -2.596   3.453  0.00  0.00    -0.650 OA
ENDROOT
BRANCH   1  12
ATOM      8  C   LIG    1       -0.019   1.526   0.010  0.00  0.00    +0.040 C 
ATOM      9  C   LIG    1        0.002  -0.004   0.002  0.00  0.00    +0.250 C 
ATOM     10  O   LIG    1        0.687  -0.471  -1.172  0.00  0.00    -0.380 OA
ATOM     11  C   LIG    1        2.048  -0.708  -0.737  0.00  0.00    +0.210 C 
ATOM     12  C   LIG    1        1.831  -1.242   0.701  0.00  0.00    +0.160 C 
ATOM     13  C   LIG    1       -1.432  -0.537   0.003  0.00  0.00    +0.070 C 
ATOM     14  O   LIG    1        0.695  -0.483   1.162  0.00  0.00    -0.360 OA
ENDBRANCH   1  12
BRANCH   4  15
ATOM     15  O   LIG    1        2.737  -0.160   5.091  0.00  0.00    -0.460 OA
ATOM     16  H   LIG    1        2.870   0.727   5.451  0.00  0.00    +0.360 HD
ENDBRANCH   4  15
TORSDOF 2
ENDMDL
MODEL       72
REMARK  Name = ZINC000004721248
REMARK                            x       y       z     vdW  Elec       q    Type
REMARK                         _______ _______ _______ _____ _____    ______ ____
ROOT
ATOM      1  C   LIG    1        0.652  -0.570  -1.138  0.00  0.00    +0.270 C 
ATOM      2  O   LIG    1        2.057  -0.325  -1.056  0.00  0.00    -0.360 OA
ATOM      3  C   LIG    1        2.803  -0.830  -2.165  0.00  0.00    +0.060 C 
ATOM      4  C   LIG    1        2.638  -2.350  -2.240  0.00  0.00    +0.180 C 
ATOM      5  C   LIG    1        1.149  -2.688  -2.361  0.00  0.00    +0.200 C 
ATOM      6  C   LIG    1        0.400  -2.080  -1.172  0.00  0.00    +0.150 C 
ENDROOT
BRANCH   3   7
ATOM      7  C   LIG    1        4.261  -0.491  -1.987  0.00  0.00    +0.510 C 
ATOM      8  O   LIG    1        5.060  -0.752  -2.870  0.00  0.00    -0.680 OA
ATOM      9  O   LIG    1        4.641   0.044  -0.960  0.00  0.00    -0.660 OA
ENDBRANCH   3   7
BRANCH   1  11
ATOM     10  C   LIG    1       -0.017   1.425   0.010  0.00  0.00    +0.220 C 
ATOM     11  O   LIG    1        0.002  -0.004   0.002  0.00  0.00    -0.370 OA
ENDBRANCH   1  11
BRANCH   5  12
ATOM     12  O   LIG    1        0.979  -4.107  -2.360  0.00  0.00    -0.540 OA
ATOM     13  H   LIG    1        0.058  -4.393  -2.434  0.00  0.00    +0.380 HD
ENDBRANCH   5  12
BRANCH   4  14
ATOM     14  O   LIG    1        3.170  -2.947  -1.056  0.00  0.00    -0.550 OA
ATOM     15  H   LIG    1        4.109  -2.770  -0.914  0.00  0.00    +0.390 HD
ENDBRANCH   4  14
BRANCH   6  16
ATOM     16  O   LIG    1       -1.001  -2.329  -1.311  0.00  0.00    -0.570 OA
ATOM     17  H   LIG    1       -1.538  -1.970  -0.591  0.00  0.00    +0.390 HD
ENDBRANCH   6  16
TORSDOF 5
ENDMDL
MODEL       73
REMARK  Name = ZINC000004721249
REMARK                            x       y       z     vdW  Elec       q    Type
REMARK                         _______ _______ _______ _____ _____    ______ ____
ROOT
ATOM      1  C   LIG    1        0.652  -0.570  -1.138  0.00  0.00    +0.300 C 
ATOM      2  O   LIG    1       -0.088  -0.248  -2.317  0.00  0.00    -0.350 OA
ATOM      3  C   LIG    1       -1.440  -0.712  -2.303  0.00  0.00    +0.060 C 
ATOM      4  C   LIG    1       -1.452  -2.239  -2.194  0.00  0.00    +0.180 C 
ATOM      5  C   LIG    1       -0.699  -2.659  -0.928  0.00  0.00    +0.210 C 
ATOM      6  C   LIG    1        0.723  -2.091  -0.982  0.00  0.00    +0.150 C 
ENDROOT
BRANCH   3   7
ATOM      7  C   LIG    1       -2.128  -0.293  -3.576  0.00  0.00    +0.500 C 
ATOM      8  O   LIG    1       -3.318  -0.511  -3.726  0.00  0.00    -0.690 OA
ATOM      9  O   LIG    1       -1.495   0.263  -4.457  0.00  0.00    -0.660 OA
ENDBRANCH   3   7
BRANCH   1  11
ATOM     10  C   LIG    1       -0.017   1.425   0.010  0.00  0.00    +0.200 C 
ATOM     11  O   LIG    1        0.002  -0.004   0.002  0.00  0.00    -0.400 OA
ENDBRANCH   1  11
BRANCH   5  12
ATOM     12  O   LIG    1       -0.644  -4.085  -0.855  0.00  0.00    -0.550 OA
ATOM     13  H   LIG    1       -0.180  -4.421  -0.076  0.00  0.00    +0.380 HD
ENDBRANCH   5  12
BRANCH   4  14
ATOM     14  O   LIG    1       -0.815  -2.805  -3.340  0.00  0.00    -0.550 OA
ATOM     15  H   LIG    1       -1.238  -2.576  -4.179  0.00  0.00    +0.380 HD
ENDBRANCH   4  14
BRANCH   6  16
ATOM     16  O   LIG    1        1.413  -2.417   0.227  0.00  0.00    -0.560 OA
ATOM     17  H   LIG    1        2.322  -2.088   0.262  0.00  0.00    +0.380 HD
ENDBRANCH   6  16
TORSDOF 5
ENDMDL
MODEL       74
REMARK  Name = ZINC000003040306
REMARK                            x       y       z     vdW  Elec       q    Type
REMARK                         _______ _______ _______ _____ _____    ______ ____
ROOT
ATOM      1  C   LIG    1       -0.019   1.526   0.010  0.00  0.00    +0.090 C 
ATOM      2  C   LIG    1        0.002  -0.004   0.002  0.00  0.00    -0.400 C 
ENDROOT
BRANCH   2   3
ATOM      3  S   LIG    1       -1.700  -0.632   0.015  0.00  0.00    +2.630 S 
ATOM      4  O   LIG    1       -2.389  -0.142  -1.169  0.00  0.00    -1.050 OA
ATOM      5  O   LIG    1       -2.367  -0.155   1.216  0.00  0.00    -1.040 OA
ATOM      6  O   LIG    1       -1.663  -2.086   0.007  0.00  0.00    -1.060 OA
ENDBRANCH   2   3
BRANCH   2   7
ATOM      7  O   LIG    1        0.693  -0.477   1.160  0.00  0.00    -0.520 OA
ATOM      8  H   LIG    1        0.745  -1.441   1.220  0.00  0.00    +0.370 HD
ENDBRANCH   2   7
BRANCH   2   9
ATOM      9  C   LIG    1        0.718  -0.497  -1.257  0.00  0.00    +0.180 C 
BRANCH   9  10
ATOM     10  O   LIG    1        2.059  -0.003  -1.267  0.00  0.00    -0.360 OA
BRANCH  10  11
ATOM     11  C   LIG    1        2.819  -0.408  -2.407  0.00  0.00    +0.160 C 
BRANCH  11  12
ATOM     12  C   LIG    1        4.230   0.176  -2.313  0.00  0.00    +0.190 C 
BRANCH  12  13
ATOM     13  O   LIG    1        4.906  -0.389  -1.188  0.00  0.00    -0.560 OA
ATOM     14  H   LIG    1        5.808  -0.064  -1.066  0.00  0.00    +0.370 HD
ENDBRANCH  12  13
ENDBRANCH  11  12
ENDBRANCH  10  11
ENDBRANCH   9  10
ENDBRANCH   2   9
TORSDOF 7
ENDMDL
MODEL       75
REMARK  Name = ZINC000001758497
REMARK                            x       y       z     vdW  Elec       q    Type
REMARK                         _______ _______ _______ _____ _____    ______ ____
ROOT
ATOM      1  C   LIG    1       -2.108  -4.387  -1.817  0.00  0.00    +0.340 C 
ATOM      2  O   LIG    1       -2.925  -3.564  -2.154  0.00  0.00    -0.400 OA
ENDROOT
BRANCH   1   3
ATOM      3  C   LIG    1       -0.890  -3.963  -1.036  0.00  0.00    +0.140 C 
ATOM      4  C   LIG    1       -1.055  -4.376   0.428  0.00  0.00    +0.050 C 
BRANCH   3   5
ATOM      5  O   LIG    1       -0.742  -2.545  -1.117  0.00  0.00    -0.360 OA
BRANCH   5   6
ATOM      6  C   LIG    1        0.613  -2.097  -1.041  0.00  0.00    +0.180 C 
BRANCH   6   7
ATOM      7  C   LIG    1        0.652  -0.570  -1.138  0.00  0.00    +0.180 C 
BRANCH   7   9
ATOM      8  C   LIG    1       -0.017   1.425   0.010  0.00  0.00    +0.200 C 
ATOM      9  O   LIG    1        0.002  -0.004   0.002  0.00  0.00    -0.380 OA
ENDBRANCH   7   9
ENDBRANCH   6   7
ENDBRANCH   5   6
ENDBRANCH   3   5
ENDBRANCH   1   3
BRANCH   1  10
ATOM     10  C   LIG    1       -2.305  -5.837  -2.177  0.00  0.00    -0.320 C 
BRANCH  10  11
ATOM     11  S   LIG    1       -4.073  -6.165  -2.417  0.00  0.00    +2.620 S 
ATOM     12  O   LIG    1       -4.565  -5.318  -3.493  0.00  0.00    -1.030 OA
ATOM     13  O   LIG    1       -4.778  -5.864  -1.181  0.00  0.00    -1.040 OA
ATOM     14  O   LIG    1       -4.247  -7.566  -2.764  0.00  0.00    -1.040 OA
ENDBRANCH  10  11
BRANCH  10  15
ATOM     15  O   LIG    1       -1.807  -6.662  -1.122  0.00  0.00    -0.520 OA
ATOM     16  H   LIG    1       -2.242  -6.518  -0.271  0.00  0.00    +0.380 HD
ENDBRANCH  10  15
ENDBRANCH   1  10
TORSDOF 8
ENDMDL
MODEL       76
REMARK  Name = ZINC000001758500
REMARK                            x       y       z     vdW  Elec       q    Type
REMARK                         _______ _______ _______ _____ _____    ______ ____
ROOT
ATOM      1  C   LIG    1       -2.108  -4.387  -1.817  0.00  0.00    +0.340 C 
ATOM      2  O   LIG    1       -2.925  -3.564  -2.154  0.00  0.00    -0.400 OA
ENDROOT
BRANCH   1   3
ATOM      3  C   LIG    1       -0.890  -3.963  -1.036  0.00  0.00    +0.140 C 
ATOM      4  C   LIG    1       -1.055  -4.376   0.428  0.00  0.00    +0.060 C 
BRANCH   3   5
ATOM      5  O   LIG    1       -0.742  -2.545  -1.117  0.00  0.00    -0.360 OA
BRANCH   5   6
ATOM      6  C   LIG    1        0.613  -2.097  -1.041  0.00  0.00    +0.190 C 
BRANCH   6   7
ATOM      7  C   LIG    1        0.652  -0.570  -1.138  0.00  0.00    +0.180 C 
BRANCH   7   9
ATOM      8  C   LIG    1       -0.017   1.425   0.010  0.00  0.00    +0.190 C 
ATOM      9  O   LIG    1        0.002  -0.004   0.002  0.00  0.00    -0.380 OA
ENDBRANCH   7   9
ENDBRANCH   6   7
ENDBRANCH   5   6
ENDBRANCH   3   5
ENDBRANCH   1   3
BRANCH   1  10
ATOM     10  C   LIG    1       -2.305  -5.837  -2.177  0.00  0.00    -0.320 C 
BRANCH  10  11
ATOM     11  S   LIG    1       -3.228  -5.952  -3.734  0.00  0.00    +2.620 S 
ATOM     12  O   LIG    1       -2.469  -5.284  -4.780  0.00  0.00    -1.050 OA
ATOM     13  O   LIG    1       -4.520  -5.307  -3.563  0.00  0.00    -1.030 OA
ATOM     14  O   LIG    1       -3.411  -7.356  -4.068  0.00  0.00    -1.040 OA
ENDBRANCH  10  11
BRANCH  10  15
ATOM     15  O   LIG    1       -1.032  -6.467  -2.330  0.00  0.00    -0.520 OA
ATOM     16  H   LIG    1       -0.479  -6.075  -3.019  0.00  0.00    +0.380 HD
ENDBRANCH  10  15
ENDBRANCH   1  10
TORSDOF 8
ENDMDL
MODEL       77
REMARK  Name = ZINC000001758499
REMARK                            x       y       z     vdW  Elec       q    Type
REMARK                         _______ _______ _______ _____ _____    ______ ____
ROOT
ATOM      1  C   LIG    1       -2.217  -4.294  -0.403  0.00  0.00    +0.212 C 
ATOM      2  O   LIG    1       -3.100  -3.470  -0.386  0.00  0.00    -0.290 OA
ENDROOT
BRANCH   1   3
ATOM      3  C   LIG    1       -0.890  -3.963  -1.036  0.00  0.00    +0.185 C 
ATOM      4  C   LIG    1       -0.832  -4.564  -2.442  0.00  0.00    +0.046 C 
BRANCH   3   5
ATOM      5  O   LIG    1       -0.742  -2.545  -1.117  0.00  0.00    -0.367 OA
BRANCH   5   6
ATOM      6  C   LIG    1        0.613  -2.097  -1.041  0.00  0.00    +0.188 C 
BRANCH   6   7
ATOM      7  C   LIG    1        0.652  -0.570  -1.138  0.00  0.00    +0.187 C 
BRANCH   7   9
ATOM      8  C   LIG    1       -0.017   1.425   0.010  0.00  0.00    +0.194 C 
ATOM      9  O   LIG    1        0.002  -0.004   0.002  0.00  0.00    -0.381 OA
ENDBRANCH   7   9
ENDBRANCH   6   7
ENDBRANCH   5   6
ENDBRANCH   3   5
ENDBRANCH   1   3
BRANCH   1  10
ATOM     10  C   LIG    1       -2.443  -5.653   0.208  0.00  0.00    +0.333 C 
BRANCH  10  11
ATOM     11  S   LIG    1       -3.734  -5.538   1.478  0.00  0.00    +0.046 S 
ATOM     12  O   LIG    1       -4.962  -5.068   0.856  0.00  0.00    -0.067 OA
ATOM     13  O   LIG    1       -3.302  -4.602   2.503  0.00  0.00    -0.067 OA
ATOM     14  O   LIG    1       -3.940  -6.856   2.058  0.00  0.00    -0.067 OA
ENDBRANCH  10  11
BRANCH  10  15
ATOM     15  O   LIG    1       -1.229  -6.115   0.804  0.00  0.00    -0.365 OA
ATOM     16  H   LIG    1       -0.891  -5.539   1.504  0.00  0.00    +0.212 HD
ENDBRANCH  10  15
ENDBRANCH   1  10
TORSDOF 8
ENDMDL
MODEL       78
REMARK  Name = ZINC000001758501
REMARK                            x       y       z     vdW  Elec       q    Type
REMARK                         _______ _______ _______ _____ _____    ______ ____
ROOT
ATOM      1  C   LIG    1       -2.217  -4.294  -0.403  0.00  0.00    +0.212 C 
ATOM      2  O   LIG    1       -3.100  -3.470  -0.386  0.00  0.00    -0.290 OA
ENDROOT
BRANCH   1   3
ATOM      3  C   LIG    1       -0.890  -3.963  -1.036  0.00  0.00    +0.185 C 
ATOM      4  C   LIG    1       -0.832  -4.564  -2.442  0.00  0.00    +0.046 C 
BRANCH   3   5
ATOM      5  O   LIG    1       -0.742  -2.545  -1.117  0.00  0.00    -0.367 OA
BRANCH   5   6
ATOM      6  C   LIG    1        0.613  -2.097  -1.041  0.00  0.00    +0.188 C 
BRANCH   6   7
ATOM      7  C   LIG    1        0.652  -0.570  -1.138  0.00  0.00    +0.187 C 
BRANCH   7   9
ATOM      8  C   LIG    1       -0.017   1.425   0.010  0.00  0.00    +0.194 C 
ATOM      9  O   LIG    1        0.002  -0.004   0.002  0.00  0.00    -0.381 OA
ENDBRANCH   7   9
ENDBRANCH   6   7
ENDBRANCH   5   6
ENDBRANCH   3   5
ENDBRANCH   1   3
BRANCH   1  10
ATOM     10  C   LIG    1       -2.443  -5.653   0.208  0.00  0.00    +0.333 C 
BRANCH  10  11
ATOM     11  S   LIG    1       -4.197  -6.093   0.073  0.00  0.00    +0.046 S 
ATOM     12  O   LIG    1       -4.568  -6.119  -1.333  0.00  0.00    -0.067 OA
ATOM     13  O   LIG    1       -4.987  -5.098   0.781  0.00  0.00    -0.067 OA
ATOM     14  O   LIG    1       -4.399  -7.406   0.667  0.00  0.00    -0.067 OA
ENDBRANCH  10  11
BRANCH  10  15
ATOM     15  O   LIG    1       -1.654  -6.623  -0.483  0.00  0.00    -0.365 OA
ATOM     16  H   LIG    1       -1.857  -6.697  -1.425  0.00  0.00    +0.212 HD
ENDBRANCH  10  15
ENDBRANCH   1  10
TORSDOF 8
ENDMDL
MODEL       79
REMARK  Name = ZINC000225590515
REMARK                            x       y       z     vdW  Elec       q    Type
REMARK                         _______ _______ _______ _____ _____    ______ ____
ROOT
ATOM      1  C   LIG    1       -1.576   1.872  -0.210  0.00  0.00    -0.070 C 
ATOM      2  C   LIG    1       -2.342   1.394   1.037  0.00  0.00    -0.010 C 
ATOM      3  C   LIG    1       -1.413   2.313   1.834  0.00  0.00    +0.060 C 
ATOM      4  C   LIG    1       -2.057   3.096   2.974  0.00  0.00    -0.300 C 
ATOM      5  S   LIG    1       -2.911   4.512   2.199  0.00  0.00    +2.380 S 
ATOM      6  C   LIG    1       -2.473   4.137   0.466  0.00  0.00    -0.290 C 
ATOM      7  O   LIG    1       -2.273   5.719   2.595  0.00  0.00    -0.950 OA
ATOM      8  O   LIG    1       -4.314   4.365   2.371  0.00  0.00    -0.950 OA
ATOM      9  C   LIG    1       -1.300   3.177   0.569  0.00  0.00    +0.010 C 
ENDROOT
BRANCH   1  11
ATOM     10  O   LIG    1        0.740   1.417  -0.046  0.00  0.00    -0.700 OA
ATOM     11  C   LIG    1       -0.335   1.069  -0.504  0.00  0.00    +0.510 C 
ATOM     12  O   LIG    1       -0.407   0.067  -1.195  0.00  0.00    -0.680 OA
ENDBRANCH   1  11
BRANCH   2  13
ATOM     13  C   LIG    1       -2.154  -0.093   1.344  0.00  0.00    +0.170 C 
BRANCH  13  14
ATOM     14  O   LIG    1       -2.731  -0.873   0.294  0.00  0.00    -0.550 OA
ATOM     15  H   LIG    1       -2.648  -1.828   0.423  0.00  0.00    +0.370 HD
ENDBRANCH  13  14
ENDBRANCH   2  13
TORSDOF 3
ENDMDL
MODEL       80
REMARK  Name = ZINC000038327482
REMARK                            x       y       z     vdW  Elec       q    Type
REMARK                         _______ _______ _______ _____ _____    ______ ____
ROOT
ATOM      1  CA  LIG    1       -1.330   1.951   0.019  0.00  0.00    +0.100 C 
ATOM      2  C   LIG    1       -1.540   2.638  -1.332  0.00  0.00    +0.200 C 
ATOM      3  N   LIG    1       -2.832   3.338  -1.326  0.00  0.00    -0.490 NA
ATOM      4  C   LIG    1       -3.933   2.401  -1.061  0.00  0.00    +0.200 C 
ATOM      5  C   LIG    1       -3.703   1.716   0.287  0.00  0.00    +0.270 C 
ATOM      6  N   LIG    1       -2.422   0.998   0.260  0.00  0.00    -0.480 N 
ATOM      7  H1  LIG    1       -2.276   0.536   1.145  0.00  0.00    +0.420 HD
ATOM      8  H2  LIG    1       -2.437   0.311  -0.479  0.00  0.00    +0.420 HD
ENDROOT
BRANCH   1  10
ATOM      9  O   LIG    1        0.002  -0.004   0.002  0.00  0.00    -0.680 OA
ATOM     10  C   LIG    1       -0.015   1.215   0.009  0.00  0.00    +0.500 C 
ATOM     11  OXT LIG    1        1.033   1.839   0.002  0.00  0.00    -0.640 OA
ENDBRANCH   1  10
BRANCH   3  12
ATOM     12  C   LIG    1       -3.046   4.059  -2.588  0.00  0.00    -0.410 C 
BRANCH  12  13
ATOM     13  P   LIG    1       -4.194   5.447  -2.308  0.00  0.00    +2.270 P 
ATOM     14  O   LIG    1       -5.582   4.896  -1.912  0.00  0.00    -1.090 OA
ATOM     15  O   LIG    1       -3.652   6.343  -1.171  0.00  0.00    -1.080 OA
BRANCH  13  16
ATOM     16  O   LIG    1       -4.327   6.315  -3.658  0.00  0.00    -0.910 OA
ATOM     17  H   LIG    1       -4.923   7.072  -3.582  0.00  0.00    +0.420 HD
ENDBRANCH  13  16
ENDBRANCH  12  13
ENDBRANCH   3  12
TORSDOF 4
ENDMDL
MODEL       81
REMARK  Name = ZINC000038327484
REMARK                            x       y       z     vdW  Elec       q    Type
REMARK                         _______ _______ _______ _____ _____    ______ ____
ROOT
ATOM      1  CA  LIG    1       -1.330   1.951   0.019  0.00  0.00    +0.100 C 
ATOM      2  C   LIG    1       -1.417   2.822   1.274  0.00  0.00    +0.200 C 
ATOM      3  N   LIG    1       -2.708   3.524   1.291  0.00  0.00    -0.510 NA
ATOM      4  C   LIG    1       -3.823   2.566   1.266  0.00  0.00    +0.220 C 
ATOM      5  C   LIG    1       -3.716   1.696   0.011  0.00  0.00    +0.260 C 
ATOM      6  N   LIG    1       -2.433   0.981   0.019  0.00  0.00    -0.480 N 
ATOM      7  H1  LIG    1       -2.374   0.405   0.845  0.00  0.00    +0.420 HD
ATOM      8  H2  LIG    1       -2.368   0.398  -0.802  0.00  0.00    +0.420 HD
ENDROOT
BRANCH   1  10
ATOM      9  O   LIG    1        0.002  -0.004   0.002  0.00  0.00    -0.680 OA
ATOM     10  C   LIG    1       -0.015   1.215   0.009  0.00  0.00    +0.500 C 
ATOM     11  OXT LIG    1        1.033   1.839   0.002  0.00  0.00    -0.640 OA
ENDBRANCH   1  10
BRANCH   3  12
ATOM     12  C   LIG    1       -2.807   4.417   2.453  0.00  0.00    -0.410 C 
BRANCH  12  13
ATOM     13  P   LIG    1       -4.562   4.678   2.871  0.00  0.00    +2.260 P 
ATOM     14  O   LIG    1       -5.259   5.432   1.716  0.00  0.00    -1.080 OA
ATOM     15  O   LIG    1       -5.250   3.312   3.083  0.00  0.00    -1.090 OA
BRANCH  13  16
ATOM     16  O   LIG    1       -4.669   5.548   4.221  0.00  0.00    -0.900 OA
ATOM     17  H   LIG    1       -5.576   5.727   4.503  0.00  0.00    +0.420 HD
ENDBRANCH  13  16
ENDBRANCH  12  13
ENDBRANCH   3  12
TORSDOF 4
ENDMDL
MODEL       82
REMARK  Name = ZINC000004876921
REMARK                            x       y       z     vdW  Elec       q    Type
REMARK                         _______ _______ _______ _____ _____    ______ ____
ROOT
ATOM      1  C1* LIG    1       -2.336  -2.833  -0.003  0.00  0.00    +0.450 C 
ATOM      2  C2* LIG    1       -3.355  -2.196  -0.981  0.00  0.00    +0.000 C 
ATOM      3  C3* LIG    1       -4.707  -2.669  -0.394  0.00  0.00    +0.160 C 
ATOM      4  C4* LIG    1       -4.380  -3.027   1.068  0.00  0.00    +0.180 C 
ATOM      5  O4* LIG    1       -2.988  -2.732   1.282  0.00  0.00    -0.370 OA
ENDROOT
BRANCH   1   9
ATOM      6  C   LIG    1       -0.018   1.503   0.010  0.00  0.00    +0.150 C 
ATOM      7  C   LIG    1        0.002  -0.004   0.002  0.00  0.00    +0.020 A 
ATOM      8  N   LIG    1       -1.113  -0.680   0.004  0.00  0.00    -0.220 NA
ATOM      9  N   LIG    1       -1.079  -2.080  -0.004  0.00  0.00    -0.470 N 
ATOM     10  C   LIG    1        0.091  -2.742  -0.013  0.00  0.00    +0.640 A 
ATOM     11  N   LIG    1        1.263  -2.079  -0.015  0.00  0.00    -0.690 NA
ATOM     12  O   LIG    1        0.091  -3.958  -0.020  0.00  0.00    -0.600 OA
ATOM     13  C   LIG    1        1.275  -0.730  -0.014  0.00  0.00    +0.490 A 
ATOM     14  O   LIG    1        2.330  -0.123  -0.016  0.00  0.00    -0.570 OA
ENDBRANCH   1   9
BRANCH   3  15
ATOM     15  O3* LIG    1       -5.183  -3.818  -1.099  0.00  0.00    -0.560 OA
ATOM     16  H3* LIG    1       -5.351  -3.662  -2.038  0.00  0.00    +0.380 HD
ENDBRANCH   3  15
BRANCH   4  17
ATOM     17  C5* LIG    1       -5.244  -2.192   2.015  0.00  0.00    +0.200 C 
BRANCH  17  18
ATOM     18  O5* LIG    1       -5.019  -2.612   3.362  0.00  0.00    -0.560 OA
ATOM     19  H5* LIG    1       -5.535  -2.124   4.018  0.00  0.00    +0.380 HD
ENDBRANCH  17  18
ENDBRANCH   4  17
TORSDOF 4
ENDMDL
MODEL       83
REMARK  Name = ZINC000004876923
REMARK                            x       y       z     vdW  Elec       q    Type
REMARK                         _______ _______ _______ _____ _____    ______ ____
ROOT
ATOM      1  C1* LIG    1       -2.336  -2.833  -0.003  0.00  0.00    +0.450 C 
ATOM      2  C2* LIG    1       -3.334  -2.213   1.007  0.00  0.00    +0.010 C 
ATOM      3  C3* LIG    1       -4.688  -2.681   0.409  0.00  0.00    +0.160 C 
ATOM      4  C4* LIG    1       -4.402  -2.658  -1.108  0.00  0.00    +0.190 C 
ATOM      5  O4* LIG    1       -2.981  -2.730  -1.282  0.00  0.00    -0.370 OA
ENDROOT
BRANCH   1   9
ATOM      6  C   LIG    1       -0.018   1.503   0.010  0.00  0.00    +0.150 C 
ATOM      7  C   LIG    1        0.002  -0.004   0.002  0.00  0.00    +0.020 A 
ATOM      8  N   LIG    1       -1.113  -0.680   0.004  0.00  0.00    -0.220 NA
ATOM      9  N   LIG    1       -1.079  -2.080  -0.004  0.00  0.00    -0.470 N 
ATOM     10  C   LIG    1        0.091  -2.742  -0.013  0.00  0.00    +0.640 A 
ATOM     11  N   LIG    1        1.263  -2.079  -0.015  0.00  0.00    -0.690 NA
ATOM     12  O   LIG    1        0.091  -3.958  -0.020  0.00  0.00    -0.600 OA
ATOM     13  C   LIG    1        1.275  -0.730  -0.014  0.00  0.00    +0.490 A 
ATOM     14  O   LIG    1        2.330  -0.123  -0.016  0.00  0.00    -0.570 OA
ENDBRANCH   1   9
BRANCH   3  15
ATOM     15  O3* LIG    1       -5.736  -1.770   0.747  0.00  0.00    -0.550 OA
ATOM     16  H3* LIG    1       -5.893  -1.686   1.698  0.00  0.00    +0.380 HD
ENDBRANCH   3  15
BRANCH   4  17
ATOM     17  C5* LIG    1       -5.068  -3.861  -1.780  0.00  0.00    +0.180 C 
BRANCH  17  18
ATOM     18  O5* LIG    1       -4.897  -3.770  -3.196  0.00  0.00    -0.560 OA
ATOM     19  H5* LIG    1       -5.296  -4.501  -3.688  0.00  0.00    +0.380 HD
ENDBRANCH  17  18
ENDBRANCH   4  17
TORSDOF 4
ENDMDL
MODEL       84
REMARK  Name = ZINC000004876920
REMARK                            x       y       z     vdW  Elec       q    Type
REMARK                         _______ _______ _______ _____ _____    ______ ____
ROOT
ATOM      1  C1* LIG    1       -2.336  -2.833  -0.003  0.00  0.00    +0.440 C 
ATOM      2  C2* LIG    1       -3.355  -2.196  -0.981  0.00  0.00    +0.010 C 
ATOM      3  C3* LIG    1       -4.707  -2.669  -0.394  0.00  0.00    +0.160 C 
ATOM      4  C4* LIG    1       -4.380  -3.027   1.068  0.00  0.00    +0.170 C 
ATOM      5  O4* LIG    1       -2.988  -2.732   1.282  0.00  0.00    -0.370 OA
ENDROOT
BRANCH   1   9
ATOM      6  C   LIG    1       -0.018   1.503   0.010  0.00  0.00    +0.150 C 
ATOM      7  C   LIG    1        0.002  -0.004   0.002  0.00  0.00    +0.020 A 
ATOM      8  N   LIG    1       -1.113  -0.680   0.004  0.00  0.00    -0.220 NA
ATOM      9  N   LIG    1       -1.079  -2.080  -0.004  0.00  0.00    -0.460 N 
ATOM     10  C   LIG    1        0.091  -2.742  -0.013  0.00  0.00    +0.640 A 
ATOM     11  N   LIG    1        1.263  -2.079  -0.015  0.00  0.00    -0.690 NA
ATOM     12  O   LIG    1        0.091  -3.958  -0.020  0.00  0.00    -0.600 OA
ATOM     13  C   LIG    1        1.275  -0.730  -0.014  0.00  0.00    +0.490 A 
ATOM     14  O   LIG    1        2.330  -0.123  -0.016  0.00  0.00    -0.570 OA
ENDBRANCH   1   9
BRANCH   3  15
ATOM     15  O3* LIG    1       -5.673  -1.617  -0.450  0.00  0.00    -0.560 OA
ATOM     16  H3* LIG    1       -5.873  -1.314  -1.346  0.00  0.00    +0.380 HD
ENDBRANCH   3  15
BRANCH   4  17
ATOM     17  C5* LIG    1       -5.244  -2.192   2.015  0.00  0.00    +0.210 C 
BRANCH  17  18
ATOM     18  O5* LIG    1       -5.019  -2.612   3.362  0.00  0.00    -0.570 OA
ATOM     19  H5* LIG    1       -5.535  -2.124   4.018  0.00  0.00    +0.380 HD
ENDBRANCH  17  18
ENDBRANCH   4  17
TORSDOF 4
ENDMDL
MODEL       85
REMARK  Name = ZINC000001596424
REMARK                            x       y       z     vdW  Elec       q    Type
REMARK                         _______ _______ _______ _____ _____    ______ ____
ROOT
ATOM      1  C1* LIG    1       -2.336  -2.833  -0.003  0.00  0.00    +0.450 C 
ATOM      2  C2* LIG    1       -3.334  -2.213   1.007  0.00  0.00    +0.000 C 
ATOM      3  C3* LIG    1       -4.688  -2.681   0.409  0.00  0.00    +0.160 C 
ATOM      4  C4* LIG    1       -4.402  -2.658  -1.108  0.00  0.00    +0.190 C 
ATOM      5  O4* LIG    1       -2.981  -2.730  -1.282  0.00  0.00    -0.370 OA
ENDROOT
BRANCH   1   9
ATOM      6  C   LIG    1       -0.018   1.503   0.010  0.00  0.00    +0.150 C 
ATOM      7  C   LIG    1        0.002  -0.004   0.002  0.00  0.00    +0.020 A 
ATOM      8  N   LIG    1       -1.113  -0.680   0.004  0.00  0.00    -0.230 NA
ATOM      9  N   LIG    1       -1.079  -2.080  -0.004  0.00  0.00    -0.470 N 
ATOM     10  C   LIG    1        0.091  -2.742  -0.013  0.00  0.00    +0.640 A 
ATOM     11  N   LIG    1        1.263  -2.079  -0.015  0.00  0.00    -0.690 NA
ATOM     12  O   LIG    1        0.091  -3.958  -0.020  0.00  0.00    -0.600 OA
ATOM     13  C   LIG    1        1.275  -0.730  -0.014  0.00  0.00    +0.490 A 
ATOM     14  O   LIG    1        2.330  -0.123  -0.016  0.00  0.00    -0.570 OA
ENDBRANCH   1   9
BRANCH   3  15
ATOM     15  O3* LIG    1       -5.009  -4.002   0.850  0.00  0.00    -0.560 OA
ATOM     16  H3* LIG    1       -5.112  -4.082   1.808  0.00  0.00    +0.380 HD
ENDBRANCH   3  15
BRANCH   4  17
ATOM     17  C5* LIG    1       -5.068  -3.861  -1.780  0.00  0.00    +0.190 C 
BRANCH  17  18
ATOM     18  O5* LIG    1       -4.897  -3.770  -3.196  0.00  0.00    -0.570 OA
ATOM     19  H5* LIG    1       -5.296  -4.501  -3.688  0.00  0.00    +0.380 HD
ENDBRANCH  17  18
ENDBRANCH   4  17
TORSDOF 4
ENDMDL
MODEL       86
REMARK  Name = ZINC000026466997
REMARK                            x       y       z     vdW  Elec       q    Type
REMARK                         _______ _______ _______ _____ _____    ______ ____
ROOT
ATOM      1  C   LIG    1       -0.018   1.461   0.010  0.00  0.00    +0.350 C 
ATOM      2  N   LIG    1        0.002  -0.004   0.002  0.00  0.00    -0.420 N 
ATOM      3  C   LIG    1        0.009  -0.813  -1.085  0.00  0.00    +0.280 A 
ATOM      4  N   LIG    1        0.027  -2.044  -0.652  0.00  0.00    -0.300 NA
ATOM      5  N   LIG    1        0.032  -2.051   0.634  0.00  0.00    -0.190 NA
ATOM      6  C   LIG    1        0.024  -0.825   1.080  0.00  0.00    -0.400 A 
ENDROOT
BRANCH   6   7
ATOM      7  S   LIG    1        0.026  -0.329   2.771  0.00  0.00    +2.540 S 
ATOM      8  O   LIG    1       -0.567  -1.422   3.458  0.00  0.00    -0.910 OA
ATOM      9  O   LIG    1       -0.590   0.952   2.761  0.00  0.00    -0.930 OA
ATOM     10  C   LIG    1        1.784  -0.186   3.197  0.00  0.00    -0.230 C 
ENDBRANCH   6   7
BRANCH   3  11
ATOM     11  C   LIG    1       -0.002  -0.373  -2.526  0.00  0.00    +0.070 C 
BRANCH  11  12
ATOM     12  C   LIG    1        1.415  -0.208  -3.012  0.00  0.00    +0.500 C 
ATOM     13  O   LIG    1        1.629   0.145  -4.159  0.00  0.00    -0.690 OA
ATOM     14  O   LIG    1        2.347  -0.427  -2.257  0.00  0.00    -0.680 OA
ENDBRANCH  11  12
ENDBRANCH   3  11
TORSDOF 3
ENDMDL
MODEL       87
REMARK  Name = ZINC000067896205
REMARK                            x       y       z     vdW  Elec       q    Type
REMARK                         _______ _______ _______ _____ _____    ______ ____
ROOT
ATOM      1  C   LIG    1       -2.430  -2.690   0.621  0.00  0.00    +0.340 C 
ENDROOT
BRANCH   1   2
ATOM      2  N   LIG    1       -2.604  -2.115   1.957  0.00  0.00    -0.530 N 
ATOM      3  C   LIG    1       -2.080  -2.759   3.045  0.00  0.00    +0.370 A 
ATOM      4  C   LIG    1       -2.240  -2.229   4.276  0.00  0.00    -0.150 A 
ATOM      5  C   LIG    1       -2.950  -1.012   4.416  0.00  0.00    +0.550 A 
ATOM      6  N   LIG    1       -3.450  -0.409   3.319  0.00  0.00    -0.660 N 
ATOM      7  H   LIG    1       -3.938   0.425   3.407  0.00  0.00    +0.430 HD
ATOM      8  O   LIG    1       -3.106  -0.515   5.516  0.00  0.00    -0.530 OA
ATOM      9  C   LIG    1       -3.272  -0.957   2.103  0.00  0.00    +0.690 A 
ATOM     10  O   LIG    1       -3.729  -0.401   1.122  0.00  0.00    -0.540 OA
ENDBRANCH   1   2
BRANCH   1  11
ATOM     11  CA  LIG    1       -1.136  -2.159   0.001  0.00  0.00    +0.150 C 
BRANCH  11  14
ATOM     12  C   LIG    1       -0.018   1.503   0.010  0.00  0.00    +0.090 C 
ATOM     13  C   LIG    1        0.002  -0.004   0.002  0.00  0.00    +0.510 C 
ATOM     14  N   LIG    1       -1.156  -0.694   0.009  0.00  0.00    -0.700 N 
ATOM     15  H   LIG    1       -2.002  -0.220   0.020  0.00  0.00    +0.400 HD
ATOM     16  O   LIG    1        1.060  -0.596  -0.011  0.00  0.00    -0.560 OA
ENDBRANCH  11  14
BRANCH  11  17
ATOM     17  C   LIG    1       -1.019  -2.652  -1.418  0.00  0.00    +0.500 C 
ATOM     18  OXT LIG    1       -0.985  -3.849  -1.647  0.00  0.00    -0.690 OA
ATOM     19  O   LIG    1       -0.958  -1.853  -2.337  0.00  0.00    -0.670 OA
ENDBRANCH  11  17
ENDBRANCH   1  11
TORSDOF 4
ENDMDL
MODEL       88
REMARK  Name = ZINC000002558960
REMARK                            x       y       z     vdW  Elec       q    Type
REMARK                         _______ _______ _______ _____ _____    ______ ____
ROOT
ATOM      1  CA  GLN A  1       -4.152  -4.516   0.018  0.00  0.00    +0.170 C 
ENDROOT
BRANCH   1   3
ATOM      2  C   UNK A  0       -2.550  -2.680   0.012  0.00  0.00    +0.500 C 
ATOM      3  N   GLN A  1       -2.778  -4.008   0.007  0.00  0.00    -0.690 N 
ATOM      4  H   GLN A  1       -2.032  -4.629  -0.003  0.00  0.00    +0.400 HD
ATOM      5  O   UNK A  0       -3.482  -1.905   0.025  0.00  0.00    -0.550 OA
BRANCH   2   6
ATOM      6  C   UNK A  0       -1.136  -2.159   0.001  0.00  0.00    +0.290 C 
BRANCH   6   9
ATOM      7  C   UNK A  0       -0.018   1.503   0.010  0.00  0.00    +0.100 C 
ATOM      8  C   UNK A  0        0.002  -0.004   0.002  0.00  0.00    +0.510 C 
ATOM      9  N   UNK A  0       -1.156  -0.694   0.009  0.00  0.00    -0.720 N 
ATOM     10  H   UNK A  0       -2.002  -0.220   0.020  0.00  0.00    +0.410 HD
ATOM     11  O   UNK A  0        1.060  -0.596  -0.011  0.00  0.00    -0.550 OA
ENDBRANCH   6   9
ENDBRANCH   2   6
ENDBRANCH   1   3
BRANCH   1  12
ATOM     12  C   GLN A  1       -4.653  -4.581   1.437  0.00  0.00    +0.490 C 
ATOM     13  OXT GLN A  1       -3.871  -4.779   2.351  0.00  0.00    -0.690 OA
ATOM     14  O   GLN A  1       -5.840  -4.435   1.672  0.00  0.00    -0.690 OA
ENDBRANCH   1  12
BRANCH   1  15
ATOM     15  CB  GLN A  1       -4.184  -5.915  -0.599  0.00  0.00    +0.070 C 
BRANCH  15  16
ATOM     16  CG  GLN A  1       -3.795  -5.831  -2.077  0.00  0.00    +0.040 C 
BRANCH  16  17
ATOM     17  CD  GLN A  1       -3.827  -7.209  -2.684  0.00  0.00    +0.510 C 
ATOM     18  OE1 GLN A  1       -4.130  -8.166  -2.003  0.00  0.00    -0.540 OA
ATOM     19  NE2 GLN A  1       -3.517  -7.380  -3.985  0.00  0.00    -0.860 N 
ATOM     20 HE21 GLN A  1       -3.538  -8.267  -4.376  0.00  0.00    +0.400 HD
ATOM     21 HE22 GLN A  1       -3.275  -6.615  -4.530  0.00  0.00    +0.400 HD
ENDBRANCH  16  17
ENDBRANCH  15  16
ENDBRANCH   1  15
TORSDOF 7
ENDMDL
MODEL       89
REMARK  Name = ZINC000004403323
REMARK                            x       y       z     vdW  Elec       q    Type
REMARK                         _______ _______ _______ _____ _____    ______ ____
ROOT
ATOM      1  C   LIG    1        0.739  -2.027  -1.265  0.00  0.00    +0.150 C 
ENDROOT
BRANCH   1   2
ATOM      2  O   LIG    1        1.430  -2.501  -0.107  0.00  0.00    -0.520 OA
ATOM      3  H   LIG    1        2.348  -2.203  -0.049  0.00  0.00    +0.360 HD
ENDBRANCH   1   2
BRANCH   1   4
ATOM      4  C   LIG    1        0.718  -0.497  -1.257  0.00  0.00    +0.140 C 
BRANCH   4   6
ATOM      5  C   LIG    1       -0.019   1.526   0.010  0.00  0.00    +0.010 C 
ATOM      6  C   LIG    1        0.002  -0.004   0.002  0.00  0.00    +0.170 C 
BRANCH   6   7
ATOM      7  O   LIG    1        0.693  -0.477   1.160  0.00  0.00    -0.540 OA
ATOM      8  H   LIG    1        1.611  -0.180   1.219  0.00  0.00    +0.370 HD
ENDBRANCH   6   7
ENDBRANCH   4   6
BRANCH   4   9
ATOM      9  O   LIG    1        0.027  -0.024  -2.414  0.00  0.00    -0.530 OA
ATOM     10  H   LIG    1       -0.891  -0.322  -2.473  0.00  0.00    +0.370 HD
ENDBRANCH   4   9
ENDBRANCH   1   4
BRANCH   1  11
ATOM     11  C   LIG    1        1.455  -2.521  -2.524  0.00  0.00    +0.160 C 
BRANCH  11  12
ATOM     12  O   LIG    1        0.764  -2.047  -3.682  0.00  0.00    -0.520 OA
ATOM     13  H   LIG    1       -0.154  -2.345  -3.741  0.00  0.00    +0.360 HD
ENDBRANCH  11  12
BRANCH  11  14
ATOM     14  C   LIG    1        1.476  -4.051  -2.532  0.00  0.00    +0.100 C 
BRANCH  14  15
ATOM     15  C   LIG    1        2.181  -4.537  -3.772  0.00  0.00    +0.470 C 
ATOM     16  O   LIG    1        1.701  -4.319  -4.872  0.00  0.00    -0.680 OA
ATOM     17  O   LIG    1        3.232  -5.147  -3.676  0.00  0.00    -0.690 OA
ENDBRANCH  14  15
BRANCH  14  18
ATOM     18  O   LIG    1        2.167  -4.524  -1.375  0.00  0.00    -0.540 OA
ATOM     19  H   LIG    1        3.085  -4.226  -1.316  0.00  0.00    +0.360 HD
ENDBRANCH  14  18
ENDBRANCH  11  14
ENDBRANCH   1  11
TORSDOF 10
ENDMDL
MODEL       90
REMARK  Name = ZINC000004403330
REMARK                            x       y       z     vdW  Elec       q    Type
REMARK                         _______ _______ _______ _____ _____    ______ ____
ROOT
ATOM      1  C   LIG    1       -1.413  -2.063   0.004  0.00  0.00    +0.160 C 
ENDROOT
BRANCH   1   2
ATOM      2  O   LIG    1       -0.644  -2.523  -1.109  0.00  0.00    -0.530 OA
ATOM      3  H   LIG    1       -0.986  -2.238  -1.968  0.00  0.00    +0.360 HD
ENDBRANCH   1   2
BRANCH   1   4
ATOM      4  C   LIG    1       -1.433  -0.534   0.013  0.00  0.00    +0.160 C 
BRANCH   4   6
ATOM      5  C   LIG    1       -0.019   1.526   0.010  0.00  0.00    +0.010 C 
ATOM      6  C   LIG    1        0.002  -0.004   0.002  0.00  0.00    +0.180 C 
BRANCH   6   7
ATOM      7  O   LIG    1        0.693  -0.477   1.160  0.00  0.00    -0.550 OA
ATOM      8  H   LIG    1        0.294  -0.202   1.996  0.00  0.00    +0.370 HD
ENDBRANCH   6   7
ENDBRANCH   4   6
BRANCH   4   9
ATOM      9  O   LIG    1       -2.124  -0.060  -1.145  0.00  0.00    -0.540 OA
ATOM     10  H   LIG    1       -1.725  -0.336  -1.981  0.00  0.00    +0.370 HD
ENDBRANCH   4   9
ENDBRANCH   1   4
BRANCH   1  11
ATOM     11  C   LIG    1       -2.844  -2.592  -0.110  0.00  0.00    +0.160 C 
BRANCH  11  12
ATOM     12  O   LIG    1       -3.612  -2.132   1.003  0.00  0.00    -0.530 OA
ATOM     13  H   LIG    1       -3.271  -2.418   1.861  0.00  0.00    +0.370 HD
ENDBRANCH  11  12
BRANCH  11  14
ATOM     14  C   LIG    1       -2.823  -4.122  -0.119  0.00  0.00    +0.100 C 
BRANCH  14  15
ATOM     15  C   LIG    1       -4.232  -4.643  -0.232  0.00  0.00    +0.470 C 
ATOM     16  O   LIG    1       -5.031  -4.441   0.667  0.00  0.00    -0.680 OA
ATOM     17  O   LIG    1       -4.574  -5.266  -1.223  0.00  0.00    -0.690 OA
ENDBRANCH  14  15
BRANCH  14  18
ATOM     18  O   LIG    1       -2.054  -4.582  -1.232  0.00  0.00    -0.540 OA
ATOM     19  H   LIG    1       -2.396  -4.296  -2.091  0.00  0.00    +0.360 HD
ENDBRANCH  14  18
ENDBRANCH  11  14
ENDBRANCH   1  11
TORSDOF 10
ENDMDL
MODEL       91
REMARK  Name = ZINC000004403326
REMARK                            x       y       z     vdW  Elec       q    Type
REMARK                         _______ _______ _______ _____ _____    ______ ____
ROOT
ATOM      1  C   LIG    1       -1.413  -2.059   0.130  0.00  0.00    +0.160 C 
ENDROOT
BRANCH   1   2
ATOM      2  O   LIG    1       -0.710  -2.613  -0.983  0.00  0.00    -0.530 OA
ATOM      3  H   LIG    1       -1.099  -2.398  -1.841  0.00  0.00    +0.370 HD
ENDBRANCH   1   2
BRANCH   1   4
ATOM      4  C   LIG    1       -1.433  -0.534   0.013  0.00  0.00    +0.150 C 
BRANCH   4   6
ATOM      5  C   LIG    1       -0.019   1.526   0.010  0.00  0.00    +0.000 C 
ATOM      6  C   LIG    1        0.002  -0.004   0.002  0.00  0.00    +0.180 C 
BRANCH   6   7
ATOM      7  O   LIG    1        0.693  -0.477   1.160  0.00  0.00    -0.560 OA
ATOM      8  H   LIG    1        0.294  -0.202   1.996  0.00  0.00    +0.370 HD
ENDBRANCH   6   7
ENDBRANCH   4   6
BRANCH   4   9
ATOM      9  O   LIG    1       -2.137   0.021   1.126  0.00  0.00    -0.530 OA
ATOM     10  H   LIG    1       -1.747  -0.195   1.985  0.00  0.00    +0.360 HD
ENDBRANCH   4   9
ENDBRANCH   1   4
BRANCH   1  11
ATOM     11  C   LIG    1       -2.849  -2.589   0.141  0.00  0.00    +0.160 C 
BRANCH  11  12
ATOM     12  O   LIG    1       -3.552  -2.034   1.254  0.00  0.00    -0.520 OA
ATOM     13  H   LIG    1       -3.162  -2.249   2.113  0.00  0.00    +0.360 HD
ENDBRANCH  11  12
BRANCH  11  14
ATOM     14  C   LIG    1       -2.829  -4.114   0.258  0.00  0.00    +0.100 C 
BRANCH  14  15
ATOM     15  C   LIG    1       -4.242  -4.636   0.269  0.00  0.00    +0.470 C 
ATOM     16  O   LIG    1       -4.988  -4.356   1.192  0.00  0.00    -0.680 OA
ATOM     17  O   LIG    1       -4.640  -5.337  -0.645  0.00  0.00    -0.690 OA
ENDBRANCH  14  15
BRANCH  14  18
ATOM     18  O   LIG    1       -2.125  -4.668  -0.855  0.00  0.00    -0.540 OA
ATOM     19  H   LIG    1       -2.515  -4.453  -1.713  0.00  0.00    +0.360 HD
ENDBRANCH  14  18
ENDBRANCH  11  14
ENDBRANCH   1  11
TORSDOF 10
ENDMDL
MODEL       92
REMARK  Name = ZINC000004403327
REMARK                            x       y       z     vdW  Elec       q    Type
REMARK                         _______ _______ _______ _____ _____    ______ ____
ROOT
ATOM      1  C   LIG    1        0.849  -2.021  -1.205  0.00  0.00    +0.150 C 
ENDROOT
BRANCH   1   2
ATOM      2  O   LIG    1        1.502  -2.402   0.008  0.00  0.00    -0.510 OA
ATOM      3  H   LIG    1        2.391  -2.035   0.108  0.00  0.00    +0.360 HD
ENDBRANCH   1   2
BRANCH   1   4
ATOM      4  C   LIG    1        0.718  -0.497  -1.257  0.00  0.00    +0.150 C 
BRANCH   4   6
ATOM      5  C   LIG    1       -0.019   1.526   0.010  0.00  0.00    +0.000 C 
ATOM      6  C   LIG    1        0.002  -0.004   0.002  0.00  0.00    +0.180 C 
BRANCH   6   7
ATOM      7  O   LIG    1        0.693  -0.477   1.160  0.00  0.00    -0.540 OA
ATOM      8  H   LIG    1        1.611  -0.180   1.219  0.00  0.00    +0.360 HD
ENDBRANCH   6   7
ENDBRANCH   4   6
BRANCH   4   9
ATOM      9  O   LIG    1        2.019   0.090  -1.326  0.00  0.00    -0.550 OA
ATOM     10  H   LIG    1        2.587  -0.122  -0.573  0.00  0.00    +0.360 HD
ENDBRANCH   4   9
ENDBRANCH   1   4
BRANCH   1  11
ATOM     11  C   LIG    1        1.673  -2.503  -2.400  0.00  0.00    +0.160 C 
BRANCH  11  12
ATOM     12  O   LIG    1        1.021  -2.122  -3.613  0.00  0.00    -0.530 OA
ATOM     13  H   LIG    1        0.132  -2.488  -3.714  0.00  0.00    +0.370 HD
ENDBRANCH  11  12
BRANCH  11  14
ATOM     14  C   LIG    1        1.805  -4.026  -2.349  0.00  0.00    +0.100 C 
BRANCH  14  15
ATOM     15  C   LIG    1        2.616  -4.501  -3.526  0.00  0.00    +0.470 C 
ATOM     16  O   LIG    1        2.189  -4.358  -4.659  0.00  0.00    -0.680 OA
ATOM     17  O   LIG    1        3.701  -5.028  -3.346  0.00  0.00    -0.690 OA
ENDBRANCH  14  15
BRANCH  14  18
ATOM     18  O   LIG    1        2.457  -4.407  -1.136  0.00  0.00    -0.540 OA
ATOM     19  H   LIG    1        3.346  -4.041  -1.035  0.00  0.00    +0.360 HD
ENDBRANCH  14  18
ENDBRANCH  11  14
ENDBRANCH   1  11
TORSDOF 10
ENDMDL
MODEL       93
REMARK  Name = ZINC000043703076
REMARK                            x       y       z     vdW  Elec       q    Type
REMARK                         _______ _______ _______ _____ _____    ______ ____
ROOT
ATOM      1  N   LIG    1        0.796  -0.399  -1.397  0.00  0.00    -1.000 NA
ATOM      2  C   LIG    1        0.062  -0.585  -2.658  0.00  0.00    +0.250 C 
ATOM      3  C   LIG    1        0.487  -1.923  -3.272  0.00  0.00    +0.190 C 
ATOM      4  O   LIG    1        1.913  -1.971  -3.355  0.00  0.00    -0.350 OA
ATOM      5  C   LIG    1        2.576  -1.913  -2.090  0.00  0.00    +0.080 C 
ATOM      6  C   LIG    1        2.258  -0.568  -1.416  0.00  0.00    +0.290 C 
ENDROOT
BRANCH   1   8
ATOM      7  C   LIG    1       -0.022   1.810   0.012  0.00  0.00    -0.300 C 
ATOM      8  S   LIG    1        0.002  -0.004   0.002  0.00  0.00    +2.610 S 
ATOM      9  O   LIG    1       -1.309  -0.519  -0.182  0.00  0.00    -0.960 OA
ATOM     10  O   LIG    1        0.845  -0.497   1.035  0.00  0.00    -0.950 OA
ENDBRANCH   1   8
BRANCH   5  11
ATOM     11  C   LIG    1        4.064  -2.033  -2.294  0.00  0.00    +0.510 C 
ATOM     12  O   LIG    1        4.808  -2.098  -1.331  0.00  0.00    -0.690 OA
ATOM     13  O   LIG    1        4.524  -2.065  -3.423  0.00  0.00    -0.670 OA
ENDBRANCH   5  11
TORSDOF 2
ENDMDL
MODEL       94
REMARK  Name = ZINC000222647429
REMARK                            x       y       z     vdW  Elec       q    Type
REMARK                         _______ _______ _______ _____ _____    ______ ____
ROOT
ATOM      1  N   UNK    1       -0.776  -2.556  -1.119  0.00  0.00    -0.550 N 
ATOM      2  C   UNK    1       -1.504  -2.684   0.010  0.00  0.00    +0.550 A 
ATOM      3  C   UNK    1       -2.896  -3.147  -0.093  0.00  0.00    -0.100 A 
ATOM      4  C   UNK    1       -3.393  -3.426  -1.325  0.00  0.00    +0.130 A 
ATOM      5  N   UNK    1       -2.587  -3.270  -2.433  0.00  0.00    -0.620 N 
ATOM      6  H   UNK    1       -2.942  -3.470  -3.313  0.00  0.00    +0.440 HD
ATOM      7  O   UNK    1       -1.017  -2.422   1.094  0.00  0.00    -0.510 OA
ATOM      8  C   UNK    1       -1.319  -2.841  -2.315  0.00  0.00    +0.690 A 
ATOM      9  O   UNK    1       -0.642  -2.717  -3.317  0.00  0.00    -0.570 OA
ENDROOT
BRANCH   4  10
ATOM     10  C   UNK    1       -4.792  -3.894  -1.478  0.00  0.00    +0.530 C 
ATOM     11  O   UNK    1       -5.234  -4.144  -2.590  0.00  0.00    -0.670 OA
ATOM     12  O   UNK    1       -5.502  -4.030  -0.493  0.00  0.00    -0.650 OA
ENDBRANCH   4  10
BRANCH   1  13
ATOM     13  C   UNK    1        0.613  -2.097  -1.041  0.00  0.00    +0.320 C 
BRANCH  13  14
ATOM     14  C   UNK    1        0.652  -0.570  -1.138  0.00  0.00    +0.160 C 
BRANCH  14  16
ATOM     15  C   UNK    1       -0.017   1.425   0.010  0.00  0.00    +0.200 C 
ATOM     16  O   UNK    1        0.002  -0.004   0.002  0.00  0.00    -0.370 OA
ENDBRANCH  14  16
ENDBRANCH  13  14
ENDBRANCH   1  13
TORSDOF 4
ENDMDL
MODEL       95
REMARK  Name = ZINC000021953516
REMARK                            x       y       z     vdW  Elec       q    Type
REMARK                         _______ _______ _______ _____ _____    ______ ____
ROOT
ATOM      1  C   LIG    1        2.207  -0.042  -1.563  0.00  0.00    +0.180 C 
ENDROOT
BRANCH   1   2
ATOM      2  C   LIG    1        3.071  -1.212  -1.167  0.00  0.00    +0.490 C 
ATOM      3  O   LIG    1        4.277  -1.069  -1.057  0.00  0.00    -0.700 OA
ATOM      4  O   LIG    1        2.564  -2.301  -0.957  0.00  0.00    -0.670 OA
ENDBRANCH   1   2
BRANCH   1   5
ATOM      5  N   LIG    1        0.796  -0.399  -1.397  0.00  0.00    -1.080 NA
ATOM      6  H   LIG    1        0.327  -0.866  -2.105  0.00  0.00    +0.410 HD
BRANCH   5   8
ATOM      7  C   LIG    1       -0.022   1.810   0.012  0.00  0.00    -0.300 C 
ATOM      8  S   LIG    1        0.002  -0.004   0.002  0.00  0.00    +2.620 S 
ATOM      9  O   LIG    1       -1.309  -0.519  -0.182  0.00  0.00    -0.980 OA
ATOM     10  O   LIG    1        0.845  -0.497   1.035  0.00  0.00    -0.950 OA
ENDBRANCH   5   8
ENDBRANCH   1   5
BRANCH   1  11
ATOM     11  C   LIG    1        2.473   0.316  -3.027  0.00  0.00    +0.080 C 
BRANCH  11  12
ATOM     12  C   LIG    1        1.702   1.559  -3.388  0.00  0.00    +0.520 C 
ATOM     13  O   LIG    1        1.009   2.105  -2.557  0.00  0.00    -0.550 OA
ATOM     14  N   LIG    1        1.784   2.064  -4.635  0.00  0.00    -0.860 N 
ATOM     15  H   LIG    1        1.288   2.865  -4.867  0.00  0.00    +0.390 HD
ATOM     16  H   LIG    1        2.339   1.627  -5.300  0.00  0.00    +0.400 HD
ENDBRANCH  11  12
ENDBRANCH   1  11
TORSDOF 5
ENDMDL
MODEL       96
REMARK  Name = ZINC000230469601
REMARK                            x       y       z     vdW  Elec       q    Type
REMARK                         _______ _______ _______ _____ _____    ______ ____
ROOT
ATOM      1  C   LIG    1       -0.699   1.479   1.216  0.00  0.00    +0.020 C 
ATOM      2  C   LIG    1       -0.714   3.029   1.231  0.00  0.00    -0.330 C 
ATOM      3  S   LIG    1       -1.051   3.367   3.006  0.00  0.00    +2.430 S 
ATOM      4  C   LIG    1       -0.062   1.955   3.632  0.00  0.00    -0.400 C 
ATOM      5  C   LIG    1        1.301   1.712   2.974  0.00  0.00    -0.010 C 
ATOM      6  O   LIG    1       -2.428   3.150   3.281  0.00  0.00    -0.860 OA
ATOM      7  O   LIG    1       -0.432   4.589   3.385  0.00  0.00    -0.940 OA
ATOM      8  C   LIG    1        0.038   0.974   2.454  0.00  0.00    -0.010 C 
ENDROOT
BRANCH   1   9
ATOM      9  N   LIG    1       -0.012   1.005   0.008  0.00  0.00    -0.600 N 
ATOM     10  H   LIG    1       -0.500   1.339  -0.810  0.00  0.00    +0.430 HD
ATOM     11  H   LIG    1        0.935   1.354   0.000  0.00  0.00    +0.420 HD
ATOM     12  H   LIG    1        0.002  -0.004   0.002  0.00  0.00    +0.440 HD
ENDBRANCH   1   9
BRANCH   5  13
ATOM     13  C   LIG    1        2.308   0.896   3.742  0.00  0.00    +0.520 C 
ATOM     14  O   LIG    1        2.856  -0.055   3.211  0.00  0.00    -0.680 OA
ATOM     15  O   LIG    1        2.576   1.186   4.896  0.00  0.00    -0.670 OA
ENDBRANCH   5  13
BRANCH   1  16
ATOM     16  C   LIG    1       -2.115   0.962   1.226  0.00  0.00    +0.490 C 
ATOM     17  O   LIG    1       -2.864   1.253   2.143  0.00  0.00    -0.580 OA
ATOM     18  O   LIG    1       -2.511   0.252   0.318  0.00  0.00    -0.670 OA
ENDBRANCH   1  16
TORSDOF 3
ENDMDL
MODEL       97
REMARK  Name = ZINC000078401778
REMARK                            x       y       z     vdW  Elec       q    Type
REMARK                         _______ _______ _______ _____ _____    ______ ____
ROOT
ATOM      1  N   LIG    1       -0.776  -2.556  -1.119  0.00  0.00    -0.560 N 
ATOM      2  C   LIG    1       -1.500  -2.684   0.006  0.00  0.00    +0.700 A 
ATOM      3  N   LIG    1       -2.777  -3.099  -0.009  0.00  0.00    -0.640 N 
ATOM      4  H   LIG    1       -3.260  -3.176   0.828  0.00  0.00    +0.430 HD
ATOM      5  C   LIG    1       -3.406  -3.415  -1.169  0.00  0.00    +0.330 A 
ATOM      6  C   LIG    1       -2.718  -3.306  -2.365  0.00  0.00    -0.290 A 
ATOM      7  O   LIG    1       -0.983  -2.414   1.072  0.00  0.00    -0.550 OA
ATOM      8  C   LIG    1       -1.321  -2.842  -2.320  0.00  0.00    +0.540 A 
ATOM      9  O   LIG    1       -0.670  -2.728  -3.342  0.00  0.00    -0.480 OA
ENDROOT
BRANCH   6  10
ATOM     10  C   LIG    1       -3.363  -3.638  -3.639  0.00  0.00    +0.540 C 
ATOM     11  O   LIG    1       -2.737  -3.535  -4.686  0.00  0.00    -0.660 OA
ATOM     12  O   LIG    1       -4.526  -4.017  -3.656  0.00  0.00    -0.700 OA
ENDBRANCH   6  10
BRANCH   1  13
ATOM     13  C   LIG    1        0.613  -2.097  -1.041  0.00  0.00    +0.320 C 
BRANCH  13  14
ATOM     14  C   LIG    1        0.652  -0.570  -1.138  0.00  0.00    +0.160 C 
BRANCH  14  16
ATOM     15  C   LIG    1       -0.017   1.425   0.010  0.00  0.00    +0.190 C 
ATOM     16  O   LIG    1        0.002  -0.004   0.002  0.00  0.00    -0.380 OA
ENDBRANCH  14  16
ENDBRANCH  13  14
ENDBRANCH   1  13
TORSDOF 4
ENDMDL
MODEL       98
REMARK  Name = ZINC000255187231
REMARK                            x       y       z     vdW  Elec       q    Type
REMARK                         _______ _______ _______ _____ _____    ______ ____
ROOT
ATOM      1  C   LIG    1       -3.814   1.688   0.029  0.00  0.00    +0.210 C 
ATOM      2  N   LIG    1       -4.026   2.388  -1.249  0.00  0.00    -0.720 N 
ATOM      3  H   LIG    1       -3.472   3.090  -1.624  0.00  0.00    +0.440 HD
ATOM      4  C   LIG    1       -5.139   1.865  -1.795  0.00  0.00    +0.700 C 
ATOM      5  N   LIG    1       -5.681   0.908  -1.032  0.00  0.00    -0.580 N 
ATOM      6  O   LIG    1       -5.600   2.220  -2.862  0.00  0.00    -0.560 OA
ATOM      7  C   LIG    1       -4.971   0.711   0.101  0.00  0.00    +0.530 C 
ATOM      8  O   LIG    1       -5.209  -0.084   0.985  0.00  0.00    -0.450 OA
ENDROOT
BRANCH   1   9
ATOM      9  C   LIG    1       -2.479   0.941   0.019  0.00  0.00    +0.070 C 
BRANCH   9  10
ATOM     10  C   LIG    1       -1.330   1.951   0.019  0.00  0.00    -0.060 C 
BRANCH  10  12
ATOM     11  O   LIG    1        0.002  -0.004   0.002  0.00  0.00    -0.700 OA
ATOM     12  C   LIG    1       -0.015   1.215   0.009  0.00  0.00    +0.490 C 
ATOM     13  O   LIG    1        1.033   1.839   0.002  0.00  0.00    -0.700 OA
ENDBRANCH  10  12
ENDBRANCH   9  10
ENDBRANCH   1   9
BRANCH   5  14
ATOM     14  C   LIG    1       -6.896   0.167  -1.381  0.00  0.00    +0.330 C 
BRANCH  14  15
ATOM     15  C   LIG    1       -6.519  -1.083  -2.178  0.00  0.00    +0.170 C 
BRANCH  15  16
ATOM     16  O   LIG    1       -5.762  -1.967  -1.349  0.00  0.00    -0.560 OA
ATOM     17  H   LIG    1       -5.488  -2.782  -1.791  0.00  0.00    +0.380 HD
ENDBRANCH  15  16
ENDBRANCH  14  15
ENDBRANCH   5  14
TORSDOF 6
ENDMDL
MODEL       99
REMARK  Name = ZINC000001725813
REMARK                            x       y       z     vdW  Elec       q    Type
REMARK                         _______ _______ _______ _____ _____    ______ ____
ROOT
ATOM      1  C   LIG    1        0.021  -2.119  -1.096  0.00  0.00    +0.230 C 
ENDROOT
BRANCH   1   2
ATOM      2  C   LIG    1       -1.393  -2.640  -1.059  0.00  0.00    +0.510 C 
ATOM      3  O   LIG    1       -2.325  -1.874  -1.179  0.00  0.00    -0.530 OA
ATOM      4  N   LIG    1       -1.621  -3.958  -0.893  0.00  0.00    -0.850 N 
ATOM      5  H   LIG    1       -2.531  -4.293  -0.869  0.00  0.00    +0.400 HD
ATOM      6  H   LIG    1       -0.876  -4.571  -0.798  0.00  0.00    +0.400 HD
ENDBRANCH   1   2
BRANCH   1   7
ATOM      7  O   LIG    1        0.000  -0.669  -1.164  0.00  0.00    -0.300 OA
BRANCH   7   9
ATOM      8  C   LIG    1       -0.018   1.503   0.010  0.00  0.00    +0.160 C 
ATOM      9  C   LIG    1        0.002  -0.004   0.002  0.00  0.00    +0.460 C 
ATOM     10  O   LIG    1        0.020  -0.614   1.045  0.00  0.00    -0.520 OA
ENDBRANCH   7   9
ENDBRANCH   1   7
BRANCH   1  11
ATOM     11  C   LIG    1        0.738  -2.677  -2.327  0.00  0.00    +0.130 C 
BRANCH  11  12
ATOM     12  C   LIG    1        2.109  -2.061  -2.431  0.00  0.00    +0.500 C 
ATOM     13  O   LIG    1        2.383  -1.339  -3.375  0.00  0.00    -0.660 OA
ATOM     14  O   LIG    1        2.945  -2.285  -1.573  0.00  0.00    -0.680 OA
ENDBRANCH  11  12
BRANCH  11  15
ATOM     15  O   LIG    1       -0.028  -2.360  -3.519  0.00  0.00    -0.320 OA
BRANCH  15  16
ATOM     16  C   LIG    1        0.057  -3.220  -4.545  0.00  0.00    +0.460 C 
ATOM     17  O   LIG    1        0.749  -4.207  -4.451  0.00  0.00    -0.520 OA
ATOM     18  C   LIG    1       -0.710  -2.956  -5.816  0.00  0.00    +0.140 C 
ENDBRANCH  15  16
ENDBRANCH  11  15
ENDBRANCH   1  11
TORSDOF 7
ENDMDL
MODEL      100
REMARK  Name = ZINC000035193493
REMARK                            x       y       z     vdW  Elec       q    Type
REMARK                         _______ _______ _______ _____ _____    ______ ____
ROOT
ATOM      1  C   LIG    1        0.037   5.458   0.032  0.00  0.00    +0.290 C 
ENDROOT
BRANCH   1   6
ATOM      2  O   LIG    1        0.002  -0.004   0.002  0.00  0.00    -0.610 OA
ATOM      3  C   LIG    1       -0.014   1.212   0.009  0.00  0.00    +0.630 A 
ATOM      4  N   LIG    1       -1.195   1.859   0.029  0.00  0.00    -0.690 NA
ATOM      5  C   LIG    1       -1.226   3.207   0.037  0.00  0.00    +0.490 A 
ATOM      6  C   LIG    1        0.037   3.951   0.023  0.00  0.00    -0.040 A 
ATOM      7  N   LIG    1        1.161   3.290   0.004  0.00  0.00    -0.180 NA
ATOM      8  O   LIG    1       -2.289   3.799   0.056  0.00  0.00    -0.560 OA
ATOM      9  N   LIG    1        1.147   1.890   0.001  0.00  0.00    -0.580 N 
ATOM     10  H   LIG    1        1.986   1.403  -0.013  0.00  0.00    +0.410 HD
ENDBRANCH   1   6
BRANCH   1  11
ATOM     11  O   LIG    1       -0.620   5.927   1.212  0.00  0.00    -0.530 OA
ATOM     12  H   LIG    1       -0.204   5.637   2.035  0.00  0.00    +0.370 HD
ENDBRANCH   1  11
BRANCH   1  13
ATOM     13  C   LIG    1        1.480   5.968   0.015  0.00  0.00    +0.170 C 
BRANCH  13  14
ATOM     14  O   LIG    1        2.137   5.499  -1.164  0.00  0.00    -0.530 OA
ATOM     15  H   LIG    1        1.721   5.789  -1.988  0.00  0.00    +0.370 HD
ENDBRANCH  13  14
BRANCH  13  16
ATOM     16  C   LIG    1        1.480   7.498   0.024  0.00  0.00    +0.200 C 
BRANCH  16  17
ATOM     17  O   LIG    1        0.691   7.981  -1.066  0.00  0.00    -0.540 OA
ATOM     18  H   LIG    1        1.008   7.701  -1.935  0.00  0.00    +0.370 HD
ENDBRANCH  16  17
BRANCH  16  19
ATOM     19  C   LIG    1        2.915   8.009  -0.119  0.00  0.00    +0.150 C 
BRANCH  19  20
ATOM     20  O   LIG    1        2.928   9.432   0.006  0.00  0.00    -0.570 OA
ATOM     21  H   LIG    1        3.808   9.826  -0.075  0.00  0.00    +0.380 HD
ENDBRANCH  19  20
ENDBRANCH  16  19
ENDBRANCH  13  16
ENDBRANCH   1  13
TORSDOF 8
ENDMDL
MODEL      101
REMARK  Name = ZINC000103693415
REMARK                            x       y       z     vdW  Elec       q    Type
REMARK                         _______ _______ _______ _____ _____    ______ ____
ROOT
ATOM      1  C   LIG    1       -0.018   1.461   0.010  0.00  0.00    +0.240 C 
ATOM      2  N   LIG    1        0.002  -0.004   0.002  0.00  0.00    -0.520 NA
ATOM      3  C   LIG    1        0.568  -0.645  -0.987  0.00  0.00    +0.390 A 
ATOM      4  S   LIG    1        1.372   0.046  -2.409  0.00  0.00    +0.120 S 
ATOM      5  N   LIG    1        1.768  -1.458  -3.092  0.00  0.00    -0.610 N 
ATOM      6  C   LIG    1        1.299  -2.396  -2.259  0.00  0.00    +0.700 A 
ATOM      7  O   LIG    1        1.446  -3.579  -2.507  0.00  0.00    -0.520 OA
ATOM      8  N   LIG    1        0.677  -2.008  -1.157  0.00  0.00    -0.510 N 
ENDROOT
BRANCH   5   9
ATOM      9  C   LIG    1        2.484  -1.685  -4.350  0.00  0.00    +0.370 C 
BRANCH   9  10
ATOM     10  C   LIG    1        3.974  -1.882  -4.060  0.00  0.00    +0.150 C 
BRANCH  10  11
ATOM     11  O   LIG    1        4.157  -3.078  -3.299  0.00  0.00    -0.360 OA
ATOM     12  C   LIG    1        5.520  -3.356  -2.973  0.00  0.00    +0.200 C 
ENDBRANCH  10  11
ENDBRANCH   9  10
ENDBRANCH   5   9
BRANCH   8  13
ATOM     13  C   LIG    1        0.133  -2.963  -0.188  0.00  0.00    +0.240 C 
BRANCH  13  14
ATOM     14  C   LIG    1        1.184  -3.289   0.841  0.00  0.00    +0.490 C 
ATOM     15  O   LIG    1        0.932  -4.071   1.743  0.00  0.00    -0.690 OA
ATOM     16  O   LIG    1        2.286  -2.772   0.772  0.00  0.00    -0.680 OA
ENDBRANCH  13  14
ENDBRANCH   8  13
TORSDOF 5
ENDMDL
MODEL      102
REMARK  Name = ZINC000088466005
REMARK                            x       y       z     vdW  Elec       q    Type
REMARK                         _______ _______ _______ _____ _____    ______ ____
ROOT
ATOM      1  C   LIG    1       -0.019   1.526   0.010  0.00  0.00    +0.040 C 
ATOM      2  C   LIG    1        0.002  -0.004   0.002  0.00  0.00    +0.060 C 
ATOM      3  O   LIG    1       -1.332  -0.499   0.131  0.00  0.00    -0.360 OA
ATOM      4  C   LIG    1       -2.001  -0.073   1.320  0.00  0.00    +0.290 C 
ATOM      5  C   LIG    1       -1.235  -0.581   2.544  0.00  0.00    +0.130 C 
ATOM      6  C   LIG    1        0.204  -0.061   2.489  0.00  0.00    +0.150 C 
ATOM      7  C   LIG    1        0.848  -0.510   1.174  0.00  0.00    +0.180 C 
ENDROOT
BRANCH   2   8
ATOM      8  C   LIG    1        0.596  -0.491  -1.294  0.00  0.00    +0.510 C 
ATOM      9  O   LIG    1       -0.062  -1.197  -2.039  0.00  0.00    -0.680 OA
ATOM     10  O   LIG    1        1.735  -0.180  -1.598  0.00  0.00    -0.660 OA
ENDBRANCH   2   8
BRANCH   6  11
ATOM     11  O   LIG    1        0.200   1.367   2.558  0.00  0.00    -0.530 OA
ATOM     12  H   LIG    1       -0.200   1.720   3.365  0.00  0.00    +0.370 HD
ENDBRANCH   6  11
BRANCH   5  13
ATOM     13  O   LIG    1       -1.870  -0.109   3.734  0.00  0.00    -0.560 OA
ATOM     14  H   LIG    1       -2.788  -0.398   3.832  0.00  0.00    +0.390 HD
ENDBRANCH   5  13
BRANCH   4  15
ATOM     15  O   LIG    1       -3.329  -0.600   1.335  0.00  0.00    -0.560 OA
ATOM     16  H   LIG    1       -3.872  -0.320   0.586  0.00  0.00    +0.390 HD
ENDBRANCH   4  15
BRANCH   7  17
ATOM     17  O   LIG    1        2.168   0.030   1.079  0.00  0.00    -0.510 OA
ATOM     18  H   LIG    1        2.758  -0.246   1.794  0.00  0.00    +0.360 HD
ENDBRANCH   7  17
TORSDOF 5
ENDMDL
MODEL      103
REMARK  Name = ZINC000020395651
REMARK                            x       y       z     vdW  Elec       q    Type
REMARK                         _______ _______ _______ _____ _____    ______ ____
ROOT
ATOM      1  C   LIG    1       -0.018   1.503   0.010  0.00  0.00    +0.170 C 
ATOM      2  C   LIG    1        0.002  -0.004   0.002  0.00  0.00    -0.030 A 
ATOM      3  N   LIG    1        0.006  -0.660  -1.135  0.00  0.00    -0.170 NA
ATOM      4  N   LIG    1        0.023  -1.944  -1.168  0.00  0.00    -0.330 NA
ATOM      5  C   LIG    1        0.038  -2.674  -0.065  0.00  0.00    +0.280 A 
ATOM      6  N   LIG    1        0.036  -2.074   1.159  0.00  0.00    -0.340 N 
ATOM      7  C   LIG    1        0.023  -0.723   1.217  0.00  0.00    +0.490 A 
ATOM      8  O   LIG    1        0.021  -0.141   2.289  0.00  0.00    -0.530 OA
ENDROOT
BRANCH   6   9
ATOM      9  N   LIG    1        0.052  -2.821   2.303  0.00  0.00    -0.590 N 
ATOM     10  H   LIG    1       -0.720  -3.470   2.321  0.00  0.00    +0.370 HD
ATOM     11  H   LIG    1        0.048  -2.231   3.121  0.00  0.00    +0.380 HD
ENDBRANCH   6   9
BRANCH   5  12
ATOM     12  S   LIG    1        0.061  -4.432  -0.178  0.00  0.00    +0.120 S 
BRANCH  12  13
ATOM     13  C   LIG    1        0.056  -4.631  -1.978  0.00  0.00    +0.020 C 
BRANCH  13  14
ATOM     14  C   LIG    1        0.074  -6.098  -2.321  0.00  0.00    +0.510 C 
ATOM     15  O   LIG    1        0.073  -6.451  -3.488  0.00  0.00    -0.670 OA
ATOM     16  O   LIG    1        0.089  -6.932  -1.431  0.00  0.00    -0.680 OA
ENDBRANCH  13  14
ENDBRANCH  12  13
ENDBRANCH   5  12
TORSDOF 4
ENDMDL
MODEL      104
REMARK  Name = ZINC000015057091
REMARK                            x       y       z     vdW  Elec       q    Type
REMARK                         _______ _______ _______ _____ _____    ______ ____
ROOT
ATOM      1  N   LIG    1       -2.430   0.984   0.019  0.00  0.00    -0.690 N 
ATOM      2  H   LIG    1       -2.240   0.033   0.013  0.00  0.00    +0.410 HD
ATOM      3  C   LIG    1       -3.707   1.416   0.027  0.00  0.00    +0.490 C 
ATOM      4  O   LIG    1       -3.945   2.605   0.035  0.00  0.00    -0.550 OA
ENDROOT
BRANCH   1   5
ATOM      5  C   LIG    1       -1.330   1.951   0.019  0.00  0.00    +0.190 C 
BRANCH   5   7
ATOM      6  O   LIG    1        0.002  -0.004   0.002  0.00  0.00    -0.690 OA
ATOM      7  C   LIG    1       -0.015   1.215   0.009  0.00  0.00    +0.490 C 
ATOM      8  O   LIG    1        1.033   1.839   0.002  0.00  0.00    -0.690 OA
ENDBRANCH   5   7
ENDBRANCH   1   5
BRANCH   3   9
ATOM      9  C   LIG    1       -4.839   0.421   0.027  0.00  0.00    +0.330 C 
BRANCH   9  10
ATOM     10  N   LIG    1       -6.117   1.136   0.037  0.00  0.00    -0.550 N 
ATOM     11  C   LIG    1       -6.676   1.451   1.194  0.00  0.00    +0.530 C 
ATOM     12  C   LIG    1       -7.990   2.187   1.058  0.00  0.00    +0.170 C 
ATOM     13  S   LIG    1       -8.209   2.305  -0.750  0.00  0.00    -0.130 S 
ATOM     14  O   LIG    1       -6.179   1.175   2.265  0.00  0.00    -0.460 OA
ATOM     15  C   LIG    1       -6.694   1.462  -1.121  0.00  0.00    +0.550 C 
ATOM     16  O   LIG    1       -6.261   1.220  -2.231  0.00  0.00    -0.430 OA
ENDBRANCH   9  10
ENDBRANCH   3   9
TORSDOF 4
ENDMDL
MODEL      105
REMARK  Name = ZINC000218707714
REMARK                            x       y       z     vdW  Elec       q    Type
REMARK                         _______ _______ _______ _____ _____    ______ ____
ROOT
ATOM      1  C   LIG    1        0.586  -0.758   0.973  0.00  0.00    +0.430 A 
ATOM      2  C   LIG    1        0.588  -2.157   0.854  0.00  0.00    -0.280 A 
ATOM      3  C   LIG    1        1.209  -2.937   1.931  0.00  0.00    +0.540 A 
ATOM      4  N   LIG    1        1.745  -2.278   2.979  0.00  0.00    -0.560 N 
ATOM      5  C   LIG    1        1.713  -0.937   3.039  0.00  0.00    +0.700 A 
ATOM      6  O   LIG    1        2.207  -0.381   4.001  0.00  0.00    -0.570 OA
ATOM      7  C   LIG    1        2.371  -3.036   4.066  0.00  0.00    +0.320 C 
ATOM      8  O   LIG    1        1.240  -4.152   1.880  0.00  0.00    -0.470 OA
ATOM      9  N   LIG    1        1.160  -0.187   2.073  0.00  0.00    -0.540 N 
ATOM     10  C   LIG    1        1.162   1.272   2.206  0.00  0.00    +0.310 C 
ENDROOT
BRANCH   1  12
ATOM     11  C   LIG    1        0.814   0.418  -1.162  0.00  0.00    +0.280 C 
ATOM     12  N   LIG    1        0.024   0.017   0.005  0.00  0.00    -0.740 N 
ATOM     13  H   LIG    1       -0.899   0.303   0.088  0.00  0.00    +0.400 HD
ENDBRANCH   1  12
BRANCH   2  14
ATOM     14  C   LIG    1        0.011  -2.796  -0.270  0.00  0.00    +0.540 C 
ATOM     15  O   LIG    1       -0.049  -4.019  -0.316  0.00  0.00    -0.670 OA
ATOM     16  O   LIG    1       -0.428  -2.126  -1.197  0.00  0.00    -0.680 OA
ENDBRANCH   2  14
TORSDOF 2
ENDMDL
MODEL      106
REMARK  Name = ZINC000005045635
REMARK                            x       y       z     vdW  Elec       q    Type
REMARK                         _______ _______ _______ _____ _____    ______ ____
ROOT
ATOM      1  C   LIG    1        0.847  -0.424  -1.486  0.00  0.00    -0.360 A 
ATOM      2  N   LIG    1        2.119  -0.691  -1.587  0.00  0.00    -0.210 NA
ATOM      3  N   LIG    1        2.393  -0.975  -2.932  0.00  0.00    -0.340 NA
ATOM      4  C   LIG    1        1.234  -0.864  -3.604  0.00  0.00    +0.460 A 
ATOM      5  N   LIG    1        1.060  -1.056  -4.924  0.00  0.00    -0.500 NA
ATOM      6  N   LIG    1        0.279  -0.529  -2.715  0.00  0.00    -0.560 N 
ATOM      7  H   LIG    1       -0.658  -0.382  -2.919  0.00  0.00    +0.420 HD
ENDROOT
BRANCH   1   9
ATOM      8  C   LIG    1       -0.022   1.810   0.012  0.00  0.00    -0.230 C 
ATOM      9  S   LIG    1        0.002  -0.004   0.002  0.00  0.00    +2.540 S 
ATOM     10  O   LIG    1       -1.309  -0.519  -0.182  0.00  0.00    -0.930 OA
ATOM     11  O   LIG    1        0.845  -0.497   1.035  0.00  0.00    -0.910 OA
ENDBRANCH   1   9
BRANCH   5  12
ATOM     12  N   LIG    1        2.063  -1.381  -5.667  0.00  0.00    +0.290 N 
ATOM     13  O   LIG    1        1.905  -1.555  -6.862  0.00  0.00    -0.340 OA
ATOM     14  O   LIG    1        3.169  -1.512  -5.174  0.00  0.00    -0.350 OA
ENDBRANCH   5  12
TORSDOF 2
ENDMDL
MODEL      107
REMARK  Name = ZINC000409422365
REMARK                            x       y       z     vdW  Elec       q    Type
REMARK                         _______ _______ _______ _____ _____    ______ ____
ROOT
ATOM      1  C   LIG    1       -1.330   1.951   0.019  0.00  0.00    -0.090 C 
ATOM      2  C   LIG    1       -2.276   1.513   1.151  0.00  0.00    +0.310 C 
ATOM      3  N   LIG    1       -2.572   2.948   1.323  0.00  0.00    -0.640 N 
ATOM      4  C   LIG    1       -3.613   3.645   1.821  0.00  0.00    +0.520 C 
ATOM      5  O   LIG    1       -4.583   3.059   2.255  0.00  0.00    -0.530 OA
ATOM      6  C   LIG    1       -1.271   3.314   0.731  0.00  0.00    +0.290 C 
ENDROOT
BRANCH   1   8
ATOM      7  O   LIG    1        0.002  -0.004   0.002  0.00  0.00    -0.690 OA
ATOM      8  C   LIG    1       -0.015   1.215   0.009  0.00  0.00    +0.500 C 
ATOM      9  O   LIG    1        1.033   1.839   0.002  0.00  0.00    -0.690 OA
ENDBRANCH   1   8
BRANCH   4  10
ATOM     10  C   LIG    1       -3.573   5.151   1.839  0.00  0.00    +0.370 C 
BRANCH  10  11
ATOM     11  N   LIG    1       -4.813   5.666   2.424  0.00  0.00    -0.370 N 
ATOM     12  C   LIG    1       -4.922   6.512   3.463  0.00  0.00    +0.470 A 
ATOM     13  N   LIG    1       -6.195   6.729   3.678  0.00  0.00    -0.550 NA
ATOM     14  C   LIG    1       -6.925   6.042   2.800  0.00  0.00    +0.410 A 
ATOM     15  N   LIG    1       -6.123   5.380   2.008  0.00  0.00    -0.290 NA
ENDBRANCH  10  11
ENDBRANCH   4  10
TORSDOF 3
ENDMDL
MODEL      108
REMARK  Name = ZINC000409424021
REMARK                            x       y       z     vdW  Elec       q    Type
REMARK                         _______ _______ _______ _____ _____    ______ ____
ROOT
ATOM      1  C   LIG    1       -1.330   1.951   0.019  0.00  0.00    -0.090 C 
ATOM      2  C   LIG    1       -2.276   1.513   1.151  0.00  0.00    +0.310 C 
ATOM      3  N   LIG    1       -2.572   2.948   1.323  0.00  0.00    -0.640 N 
ATOM      4  C   LIG    1       -3.613   3.645   1.821  0.00  0.00    +0.520 C 
ATOM      5  O   LIG    1       -4.583   3.059   2.255  0.00  0.00    -0.530 OA
ATOM      6  C   LIG    1       -1.271   3.314   0.731  0.00  0.00    +0.300 C 
ENDROOT
BRANCH   1   8
ATOM      7  O   LIG    1        0.002  -0.004   0.002  0.00  0.00    -0.690 OA
ATOM      8  C   LIG    1       -0.015   1.215   0.009  0.00  0.00    +0.500 C 
ATOM      9  O   LIG    1        1.033   1.839   0.002  0.00  0.00    -0.690 OA
ENDBRANCH   1   8
BRANCH   4  10
ATOM     10  C   LIG    1       -3.573   5.151   1.839  0.00  0.00    +0.370 C 
BRANCH  10  11
ATOM     11  N   LIG    1       -4.813   5.666   2.424  0.00  0.00    -0.300 N 
ATOM     12  C   LIG    1       -4.913   6.513   3.465  0.00  0.00    +0.400 A 
ATOM     13  N   LIG    1       -6.193   6.716   3.663  0.00  0.00    -0.310 NA
ATOM     14  N   LIG    1       -6.845   6.029   2.789  0.00  0.00    -0.080 NA
ATOM     15  N   LIG    1       -6.013   5.398   2.035  0.00  0.00    -0.060 NA
ENDBRANCH  10  11
ENDBRANCH   4  10
TORSDOF 3
ENDMDL
MODEL      109
REMARK  Name = ZINC000409441320
REMARK                            x       y       z     vdW  Elec       q    Type
REMARK                         _______ _______ _______ _____ _____    ______ ____
ROOT
ATOM      1  C   LIG    1       -0.018   1.461   0.010  0.00  0.00    +0.330 C 
ATOM      2  N   LIG    1        0.002  -0.004   0.002  0.00  0.00    -0.560 N 
ATOM      3  C   LIG    1        0.006  -0.668  -1.173  0.00  0.00    +0.540 A 
ATOM      4  C   LIG    1        0.026  -2.140  -1.148  0.00  0.00    -0.280 A 
ATOM      5  C   LIG    1        0.041  -2.770   0.084  0.00  0.00    +0.330 A 
ATOM      6  N   LIG    1        0.036  -2.019   1.214  0.00  0.00    -0.530 N 
ATOM      7  O   LIG    1       -0.007  -0.064  -2.229  0.00  0.00    -0.470 OA
ATOM      8  C   LIG    1        0.022  -0.678   1.165  0.00  0.00    +0.690 A 
ATOM      9  O   LIG    1        0.019  -0.052   2.207  0.00  0.00    -0.560 OA
ENDROOT
BRANCH   4  10
ATOM     10  C   LIG    1        0.032  -2.916  -2.392  0.00  0.00    +0.540 C 
ATOM     11  O   LIG    1        0.019  -2.341  -3.473  0.00  0.00    -0.660 OA
ATOM     12  O   LIG    1        0.049  -4.139  -2.350  0.00  0.00    -0.690 OA
ENDBRANCH   4  10
BRANCH   6  13
ATOM     13  C   LIG    1        0.052  -2.687   2.518  0.00  0.00    +0.310 C 
BRANCH  13  14
ATOM     14  C   LIG    1        1.500  -2.899   2.964  0.00  0.00    +0.160 C 
BRANCH  14  15
ATOM     15  N   LIG    1        1.516  -3.569   4.271  0.00  0.00    -0.840 NA
ATOM     16  H   LIG    1        2.462  -3.720   4.588  0.00  0.00    +0.350 HD
ATOM     17  H   LIG    1        1.002  -4.436   4.239  0.00  0.00    +0.340 HD
ENDBRANCH  14  15
ENDBRANCH  13  14
ENDBRANCH   6  13
TORSDOF 4
ENDMDL
MODEL      110
REMARK  Name = ZINC000017289232
REMARK                            x       y       z     vdW  Elec       q    Type
REMARK                         _______ _______ _______ _____ _____    ______ ____
ROOT
ATOM      1  C   LIG    1        0.847  -0.424  -1.486  0.00  0.00    -0.160 A 
ATOM      2  N   LIG    1        2.128  -0.666  -1.440  0.00  0.00    -0.530 NA
ATOM      3  C   LIG    1        2.814  -0.990  -2.545  0.00  0.00    +0.300 A 
ATOM      4  C   LIG    1        2.151  -1.070  -3.761  0.00  0.00    -0.130 A 
ATOM      5  C   LIG    1        0.771  -0.806  -3.800  0.00  0.00    +0.520 A 
ATOM      6  O   LIG    1        0.151  -0.866  -4.850  0.00  0.00    -0.600 OA
ATOM      7  N   LIG    1        3.099  -1.420  -4.721  0.00  0.00    -0.610 N 
ATOM      8  H   LIG    1        2.932  -1.550  -5.667  0.00  0.00    +0.430 HD
ATOM      9  C   LIG    1        4.290  -1.546  -4.101  0.00  0.00    +0.670 A 
ATOM     10  O   LIG    1        5.337  -1.844  -4.644  0.00  0.00    -0.580 OA
ATOM     11  N   LIG    1        4.138  -1.291  -2.788  0.00  0.00    -0.620 N 
ATOM     12  H   LIG    1        4.844  -1.314  -2.122  0.00  0.00    +0.430 HD
ATOM     13  N   LIG    1        0.146  -0.491  -2.643  0.00  0.00    -0.580 NA
ENDROOT
BRANCH   1  15
ATOM     14  C   LIG    1       -0.022   1.810   0.012  0.00  0.00    -0.250 C 
ATOM     15  S   LIG    1        0.002  -0.004   0.002  0.00  0.00    +2.540 S 
ATOM     16  O   LIG    1       -1.309  -0.519  -0.182  0.00  0.00    -0.920 OA
ATOM     17  O   LIG    1        0.845  -0.497   1.035  0.00  0.00    -0.930 OA
ENDBRANCH   1  15
TORSDOF 1
ENDMDL
MODEL      111
REMARK  Name = ZINC000005425204
REMARK                            x       y       z     vdW  Elec       q    Type
REMARK                         _______ _______ _______ _____ _____    ______ ____
ROOT
ATOM      1  O   LIG    1        0.002  -0.004   0.002  0.00  0.00    -0.580 OA
ATOM      2  C   LIG    1       -0.014   1.211   0.009  0.00  0.00    +0.660 A 
ATOM      3  N   LIG    1       -1.190   1.869   0.029  0.00  0.00    -0.660 NA
ATOM      4  C   LIG    1       -1.209   3.216   0.036  0.00  0.00    +0.650 A 
ATOM      5  N   LIG    1       -0.051   3.906   0.024  0.00  0.00    -0.560 N 
ATOM      6  C   LIG    1        1.125   3.248   0.004  0.00  0.00    +0.700 A 
ATOM      7  O   LIG    1        2.169   3.870  -0.007  0.00  0.00    -0.560 OA
ATOM      8 BR   LIG    1       -0.076   5.756   0.035  0.00  0.00    +0.150 Br
ATOM      9  O   LIG    1       -2.269   3.810   0.055  0.00  0.00    -0.550 OA
ATOM     10  N   LIG    1        1.143   1.901   0.001  0.00  0.00    -0.680 N 
ATOM     11  H   LIG    1        1.990   1.427  -0.013  0.00  0.00    +0.410 HD
ENDROOT
TORSDOF 0
ENDMDL
MODEL      112
REMARK  Name = ZINC000000000376
REMARK                            x       y       z     vdW  Elec       q    Type
REMARK                         _______ _______ _______ _____ _____    ______ ____
ROOT
ATOM      1  C   LIG    1       -1.415   2.818   1.317  0.00  0.00    +0.240 C 
ENDROOT
BRANCH   1   2
ATOM      2  C   LIG    1       -2.728   3.557   1.325  0.00  0.00    +0.440 C 
ATOM      3  O   LIG    1       -2.743   4.764   1.276  0.00  0.00    -0.500 OA
BRANCH   2   4
ATOM      4  O   LIG    1       -3.883   2.874   1.387  0.00  0.00    -0.270 OA
BRANCH   4   5
ATOM      5  C   LIG    1       -5.026   3.602   1.495  0.00  0.00    +0.040 A 
ATOM      6  C   LIG    1       -5.562   4.243   0.383  0.00  0.00    +0.060 A 
ATOM      7  C   LIG    1       -6.729   4.973   0.543  0.00  0.00    -0.020 A 
ATOM      8  C   LIG    1       -7.316   5.042   1.792  0.00  0.00    +0.250 A 
ATOM      9  N   LIG    1       -6.781   4.423   2.827  0.00  0.00    -0.470 NA
ATOM     10  C   LIG    1       -5.676   3.713   2.716  0.00  0.00    +0.260 A 
ENDBRANCH   4   5
ENDBRANCH   2   4
ENDBRANCH   1   2
BRANCH   1  11
ATOM     11  O   LIG    1       -0.340   3.758   1.365  0.00  0.00    -0.500 OA
ATOM     12  H   LIG    1       -0.324   4.376   0.621  0.00  0.00    +0.380 HD
ENDBRANCH   1  11
BRANCH   1  13
ATOM     13  C   LIG    1       -1.307   1.984   0.039  0.00  0.00    +0.110 C 
BRANCH  13  15
ATOM     14  O   LIG    1        0.019   0.027  -0.012  0.00  0.00    -0.680 OA
ATOM     15  C   LIG    1        0.006   1.245   0.031  0.00  0.00    +0.480 C 
ATOM     16  O   LIG    1        1.055   1.866   0.062  0.00  0.00    -0.670 OA
ENDBRANCH  13  15
BRANCH  13  17
ATOM     17  O   LIG    1       -2.383   1.045  -0.009  0.00  0.00    -0.540 OA
ATOM     18  H   LIG    1       -2.399   0.426   0.734  0.00  0.00    +0.380 HD
ENDBRANCH  13  17
ENDBRANCH   1  13
TORSDOF 7
ENDMDL
MODEL      113
REMARK  Name = ZINC000096532920
REMARK                            x       y       z     vdW  Elec       q    Type
REMARK                         _______ _______ _______ _____ _____    ______ ____
ROOT
ATOM      1  C   LIG    1       -1.466   1.951   0.224  0.00  0.00    -0.100 C 
ATOM      2  C   LIG    1       -1.443   2.941  -0.944  0.00  0.00    +0.020 C 
ATOM      3  C   LIG    1       -0.066   3.483  -1.335  0.00  0.00    -0.330 C 
ATOM      4  S   LIG    1        0.844   2.034  -1.973  0.00  0.00    +2.370 S 
ATOM      5  C   LIG    1       -0.598   0.955  -2.269  0.00  0.00    -0.290 C 
ATOM      6  O   LIG    1        1.638   1.483  -0.931  0.00  0.00    -0.860 OA
ATOM      7  O   LIG    1        1.444   2.367  -3.217  0.00  0.00    -0.980 OA
ATOM      8  C   LIG    1       -1.808   1.765  -1.855  0.00  0.00    +0.000 C 
ATOM      9  C   LIG    1       -2.491   1.155  -0.606  0.00  0.00    +0.000 C 
ENDROOT
BRANCH   1  11
ATOM     10  O   LIG    1       -0.026   0.084   0.032  0.00  0.00    -0.660 OA
ATOM     11  C   LIG    1       -0.161   1.228   0.433  0.00  0.00    +0.490 C 
ATOM     12  O   LIG    1        0.763   1.788   0.998  0.00  0.00    -0.630 OA
ENDBRANCH   1  11
BRANCH   9  13
ATOM     13  C   LIG    1       -2.359  -0.366  -0.514  0.00  0.00    +0.200 C 
BRANCH  13  14
ATOM     14  O   LIG    1       -3.157  -0.976  -1.530  0.00  0.00    -0.590 OA
ATOM     15  H   LIG    1       -3.122  -1.942  -1.532  0.00  0.00    +0.370 HD
ENDBRANCH  13  14
ENDBRANCH   9  13
TORSDOF 3
ENDMDL
MODEL      114
REMARK  Name = ZINC000088465994
REMARK                            x       y       z     vdW  Elec       q    Type
REMARK                         _______ _______ _______ _____ _____    ______ ____
ROOT
ATOM      1  C   LIG    1       -0.019   1.526   0.010  0.00  0.00    +0.040 C 
ATOM      2  C   LIG    1        0.002  -0.004   0.002  0.00  0.00    +0.060 C 
ATOM      3  O   LIG    1        0.567  -0.466  -1.226  0.00  0.00    -0.350 OA
ATOM      4  C   LIG    1        1.898  -0.005  -1.466  0.00  0.00    +0.310 C 
ATOM      5  C   LIG    1        2.821  -0.510  -0.354  0.00  0.00    +0.150 C 
ATOM      6  C   LIG    1        2.290  -0.024   0.999  0.00  0.00    +0.160 C 
ATOM      7  C   LIG    1        0.848  -0.510   1.174  0.00  0.00    +0.190 C 
ENDROOT
BRANCH   2   8
ATOM      8  C   LIG    1       -1.405  -0.526   0.136  0.00  0.00    +0.520 C 
ATOM      9  O   LIG    1       -2.068  -0.246   1.120  0.00  0.00    -0.690 OA
ATOM     10  O   LIG    1       -1.880  -1.229  -0.740  0.00  0.00    -0.670 OA
ENDBRANCH   2   8
BRANCH   6  11
ATOM     11  O   LIG    1        3.104  -0.551   2.049  0.00  0.00    -0.560 OA
ATOM     12  H   LIG    1        4.033  -0.287   1.996  0.00  0.00    +0.380 HD
ENDBRANCH   6  11
BRANCH   5  13
ATOM     13  O   LIG    1        4.141  -0.004  -0.560  0.00  0.00    -0.560 OA
ATOM     14  H   LIG    1        4.537  -0.270  -1.401  0.00  0.00    +0.380 HD
ENDBRANCH   5  13
BRANCH   4  15
ATOM     15  O   LIG    1        1.911   1.424  -1.484  0.00  0.00    -0.570 OA
ATOM     16  H   LIG    1        1.347   1.814  -2.165  0.00  0.00    +0.380 HD
ENDBRANCH   4  15
BRANCH   7  17
ATOM     17  O   LIG    1        0.825  -1.938   1.200  0.00  0.00    -0.540 OA
ATOM     18  H   LIG    1        1.345  -2.327   1.916  0.00  0.00    +0.370 HD
ENDBRANCH   7  17
TORSDOF 5
ENDMDL
MODEL      115
REMARK  Name = ZINC000049474278
REMARK                            x       y       z     vdW  Elec       q    Type
REMARK                         _______ _______ _______ _____ _____    ______ ____
ROOT
ATOM      1  C   LIG    1       -1.709  -0.424   0.016  0.00  0.00    -0.070 A 
ATOM      2  N   LIG    1       -2.339  -1.035  -0.936  0.00  0.00    -0.330 NA
ATOM      3  N   LIG    1       -3.678  -1.187  -0.555  0.00  0.00    -0.400 N 
ATOM      4  C   LIG    1       -3.812  -0.632   0.679  0.00  0.00    +0.530 A 
ATOM      5  N   LIG    1       -4.979  -0.625   1.299  0.00  0.00    -0.640 NA
ATOM      6  C   LIG    1       -6.064  -1.166   0.731  0.00  0.00    +0.530 A 
ATOM      7  C   LIG    1       -5.967  -1.752  -0.547  0.00  0.00    -0.260 A 
ATOM      8  O   LIG    1       -7.136  -1.151   1.320  0.00  0.00    -0.600 OA
ATOM      9  C   LIG    1       -4.758  -1.754  -1.180  0.00  0.00    +0.460 A 
ATOM     10  N   LIG    1       -2.581  -0.160   1.038  0.00  0.00    -0.560 NA
ENDROOT
BRANCH   1  12
ATOM     11  C   LIG    1       -0.022   1.810   0.012  0.00  0.00    -0.190 C 
ATOM     12  S   LIG    1        0.002  -0.004   0.002  0.00  0.00    +1.410 S 
ATOM     13  O   LIG    1        0.458  -0.478   1.262  0.00  0.00    -0.840 OA
ENDBRANCH   1  12
BRANCH   9  14
ATOM     14  N   LIG    1       -4.625  -2.318  -2.431  0.00  0.00    -0.860 N 
ATOM     15  H   LIG    1       -3.763  -2.316  -2.874  0.00  0.00    +0.400 HD
ATOM     16  H   LIG    1       -5.394  -2.717  -2.867  0.00  0.00    +0.410 HD
ENDBRANCH   9  14
TORSDOF 2
ENDMDL
MODEL      116
REMARK  Name = ZINC000049474280
REMARK                            x       y       z     vdW  Elec       q    Type
REMARK                         _______ _______ _______ _____ _____    ______ ____
ROOT
ATOM      1  C   LIG    1        0.847  -0.424  -1.486  0.00  0.00    -0.260 A 
ATOM      2  N   LIG    1        2.112  -0.688  -1.581  0.00  0.00    -0.300 NA
ATOM      3  N   LIG    1        2.404  -0.974  -2.921  0.00  0.00    -0.390 N 
ATOM      4  C   LIG    1        1.243  -0.867  -3.620  0.00  0.00    +0.530 A 
ATOM      5  N   LIG    1        1.210  -1.083  -4.923  0.00  0.00    -0.630 NA
ATOM      6  C   LIG    1        2.320  -1.414  -5.594  0.00  0.00    +0.530 A 
ATOM      7  C   LIG    1        3.545  -1.536  -4.906  0.00  0.00    -0.250 A 
ATOM      8  O   LIG    1        2.272  -1.611  -6.801  0.00  0.00    -0.590 OA
ATOM      9  C   LIG    1        3.568  -1.312  -3.561  0.00  0.00    +0.460 A 
ATOM     10  N   LIG    1        0.269  -0.529  -2.722  0.00  0.00    -0.520 NA
ENDROOT
BRANCH   1  12
ATOM     11  C   LIG    1       -0.022   1.810   0.012  0.00  0.00    -0.240 C 
ATOM     12  S   LIG    1        0.002  -0.004   0.002  0.00  0.00    +2.550 S 
ATOM     13  O   LIG    1       -1.309  -0.519  -0.182  0.00  0.00    -0.910 OA
ATOM     14  O   LIG    1        0.845  -0.497   1.035  0.00  0.00    -0.930 OA
ENDBRANCH   1  12
BRANCH   9  15
ATOM     15  N   LIG    1        4.747  -1.421  -2.855  0.00  0.00    -0.860 N 
ATOM     16  H   LIG    1        4.756  -1.260  -1.898  0.00  0.00    +0.400 HD
ATOM     17  H   LIG    1        5.567  -1.659  -3.314  0.00  0.00    +0.410 HD
ENDBRANCH   9  15
TORSDOF 2
ENDMDL
MODEL      117
REMARK  Name = ZINC000049474279
REMARK                            x       y       z     vdW  Elec       q    Type
REMARK                         _______ _______ _______ _____ _____    ______ ____
ROOT
ATOM      1  C   LIG    1        0.852  -0.381  -1.495  0.00  0.00    -0.080 A 
ATOM      2  N   LIG    1        2.001  -0.973  -1.577  0.00  0.00    -0.330 NA
ATOM      3  N   LIG    1        2.342  -1.092  -2.930  0.00  0.00    -0.400 N 
ATOM      4  C   LIG    1        1.332  -0.538  -3.652  0.00  0.00    +0.520 A 
ATOM      5  N   LIG    1        1.378  -0.505  -4.971  0.00  0.00    -0.640 NA
ATOM      6  C   LIG    1        2.420  -1.016  -5.638  0.00  0.00    +0.530 A 
ATOM      7  C   LIG    1        3.488  -1.600  -4.926  0.00  0.00    -0.260 A 
ATOM      8  O   LIG    1        2.446  -0.976  -6.860  0.00  0.00    -0.600 OA
ATOM      9  C   LIG    1        3.432  -1.630  -3.563  0.00  0.00    +0.460 A 
ATOM     10  N   LIG    1        0.399  -0.099  -2.755  0.00  0.00    -0.550 NA
ENDROOT
BRANCH   1  12
ATOM     11  C   LIG    1       -0.022   1.810   0.012  0.00  0.00    -0.180 C 
ATOM     12  S   LIG    1        0.002  -0.004   0.002  0.00  0.00    +1.410 S 
ATOM     13  O   LIG    1        0.896  -0.471   1.003  0.00  0.00    -0.850 OA
ENDBRANCH   1  12
BRANCH   9  14
ATOM     14  N   LIG    1        4.457  -2.193  -2.834  0.00  0.00    -0.860 N 
ATOM     15  H   LIG    1        4.410  -2.211  -1.866  0.00  0.00    +0.400 HD
ATOM     16  H   LIG    1        5.226  -2.571  -3.290  0.00  0.00    +0.410 HD
ENDBRANCH   9  14
TORSDOF 2
ENDMDL
MODEL      118
REMARK  Name = ZINC000003162998
REMARK                            x       y       z     vdW  Elec       q    Type
REMARK                         _______ _______ _______ _____ _____    ______ ____
ROOT
ATOM      1  O   LIG    1        0.002  -0.004   0.002  0.00  0.00    -0.550 OA
ATOM      2  C   LIG    1       -0.015   1.215   0.009  0.00  0.00    +0.620 A 
ATOM      3  N   LIG    1       -1.195   1.818   0.029  0.00  0.00    -0.530 NA
ATOM      4  C   LIG    1       -1.298   3.150   0.038  0.00  0.00    +0.380 A 
ATOM      5  N   LIG    1       -2.484   3.758   0.058  0.00  0.00    -0.490 NA
ATOM      6  C   LIG    1       -2.534   5.075   0.067  0.00  0.00    +0.330 A 
ATOM      7  N   LIG    1       -3.487   6.028   0.086  0.00  0.00    -0.500 N 
ATOM      8  H   LIG    1       -4.445   5.873   0.098  0.00  0.00    +0.490 HD
ATOM      9  O   LIG    1       -2.943   7.114   0.085  0.00  0.00    +0.280 OA
ATOM     10  N   LIG    1       -1.731   7.110   0.067  0.00  0.00    -0.230 NA
ATOM     11  C   LIG    1       -1.288   5.871   0.054  0.00  0.00    +0.120 A 
ATOM     12  N   LIG    1       -0.100   5.257   0.033  0.00  0.00    -0.360 NA
ATOM     13  C   LIG    1       -0.058   3.948   0.025  0.00  0.00    +0.110 A 
ATOM     14  C   LIG    1        1.227   3.208   0.002  0.00  0.00    +0.540 A 
ATOM     15  O   LIG    1        2.293   3.791  -0.010  0.00  0.00    -0.520 OA
ATOM     16  N   LIG    1        1.162   1.857   0.001  0.00  0.00    -0.710 NA
ENDROOT
TORSDOF 0
ENDMDL
MODEL      119
REMARK  Name = ZINC000225791964
REMARK                            x       y       z     vdW  Elec       q    Type
REMARK                         _______ _______ _______ _____ _____    ______ ____
ROOT
ATOM      1  N   LIG    1        3.343  -2.301  -0.042  0.00  0.00    -0.500 N 
ATOM      2  C   LIG    1        3.979  -2.447  -1.228  0.00  0.00    +0.250 A 
ATOM      3  C   LIG    1        5.298  -2.767  -1.285  0.00  0.00    -0.080 A 
ATOM      4  C   LIG    1        6.025  -2.953  -0.111  0.00  0.00    +0.120 A 
ATOM      5  C   LIG    1        5.376  -2.805   1.116  0.00  0.00    -0.230 A 
ATOM      6  C   LIG    1        3.997  -2.464   1.123  0.00  0.00    +0.510 A 
ATOM      7  O   LIG    1        3.406  -2.328   2.180  0.00  0.00    -0.500 OA
ENDROOT
BRANCH   5   8
ATOM      8  C   LIG    1        6.106  -2.992   2.374  0.00  0.00    +0.530 C 
ATOM      9  O   LIG    1        5.525  -2.859   3.443  0.00  0.00    -0.660 OA
ATOM     10  O   LIG    1        7.295  -3.281   2.354  0.00  0.00    -0.690 OA
ENDBRANCH   5   8
BRANCH   1  11
ATOM     11  C   LIG    1        1.919  -1.955  -0.027  0.00  0.00    +0.320 C 
BRANCH  11  12
ATOM     12  C   LIG    1        1.765  -0.433  -0.017  0.00  0.00    -0.350 C 
BRANCH  12  13
ATOM     13  S   LIG    1        0.002  -0.004   0.002  0.00  0.00    +2.630 S 
ATOM     14  O   LIG    1       -0.610  -0.356  -1.231  0.00  0.00    -0.960 OA
ATOM     15  O   LIG    1       -0.587  -0.369   1.243  0.00  0.00    -0.950 OA
BRANCH  13  16
ATOM     16  N   LIG    1       -0.020   1.652   0.011  0.00  0.00    -1.250 NA
ATOM     17  H   LIG    1       -0.867   2.125   0.018  0.00  0.00    +0.420 HD
ATOM     18  H   LIG    1        0.813   2.148   0.006  0.00  0.00    +0.410 HD
ENDBRANCH  13  16
ENDBRANCH  12  13
ENDBRANCH  11  12
ENDBRANCH   1  11
TORSDOF 5
ENDMDL
MODEL      120
REMARK  Name = ZINC000208505903
REMARK                            x       y       z     vdW  Elec       q    Type
REMARK                         _______ _______ _______ _____ _____    ______ ____
ROOT
ATOM      1  C   LIG    1       -0.720   3.008   1.225  0.00  0.00    +0.370 C 
ENDROOT
BRANCH   1   2
ATOM      2  N   LIG    1       -1.530   3.492   0.103  0.00  0.00    -0.390 N 
ATOM      3  C   LIG    1       -2.578   4.334   0.176  0.00  0.00    +0.270 A 
ATOM      4  C   LIG    1       -3.033   4.512  -1.113  0.00  0.00    -0.080 A 
ATOM      5  N   LIG    1       -2.259   3.782  -1.936  0.00  0.00    -0.170 NA
ATOM      6  N   LIG    1       -1.357   3.171  -1.250  0.00  0.00    -0.170 NA
BRANCH   4   7
ATOM      7  C   LIG    1       -4.168   5.356  -1.518  0.00  0.00    +0.560 C 
ATOM      8  O   LIG    1       -4.479   5.436  -2.699  0.00  0.00    -0.660 OA
ATOM      9  O   LIG    1       -4.800   5.977  -0.675  0.00  0.00    -0.680 OA
ENDBRANCH   4   7
ENDBRANCH   1   2
BRANCH   1  10
ATOM     10  CA  LIG    1       -0.699   1.479   1.216  0.00  0.00    +0.080 C 
BRANCH  10  11
ATOM     11  N   LIG    1       -0.012   1.005   0.008  0.00  0.00    -0.610 N 
ATOM     12  H1  LIG    1       -0.500   1.339  -0.810  0.00  0.00    +0.430 HD
ATOM     13  H2  LIG    1        0.935   1.354   0.000  0.00  0.00    +0.430 HD
ATOM     14  H3  LIG    1        0.002  -0.004   0.002  0.00  0.00    +0.430 HD
ENDBRANCH  10  11
BRANCH  10  15
ATOM     15  C   LIG    1        0.030   0.979   2.437  0.00  0.00    +0.500 C 
ATOM     16  OXT LIG    1       -0.473   1.104   3.541  0.00  0.00    -0.630 OA
ATOM     17  O   LIG    1        1.122   0.451   2.321  0.00  0.00    -0.670 OA
ENDBRANCH  10  15
ENDBRANCH   1  10
TORSDOF 5
ENDMDL
MODEL      121
REMARK  Name = ZINC000256027972
REMARK                            x       y       z     vdW  Elec       q    Type
REMARK                         _______ _______ _______ _____ _____    ______ ____
ROOT
ATOM      1  C   LIG    1       -3.724   1.422   0.027  0.00  0.00    +0.530 C 
ATOM      2  C   LIG    1       -4.744   0.525   0.027  0.00  0.00    -0.440 A 
ATOM      3  S   LIG    1       -4.632  -1.245   0.025  0.00  0.00    +0.170 S 
ATOM      4  C   LIG    1       -6.385  -1.489   0.027  0.00  0.00    +0.260 A 
ATOM      5  N   LIG    1       -7.335  -2.396   0.028  0.00  0.00    -0.500 NA
ATOM      6  C   LIG    1       -8.523  -1.792   0.030  0.00  0.00    +0.460 A 
ATOM      7  N   LIG    1       -8.352  -0.500   0.031  0.00  0.00    -0.280 NA
ATOM      8  N   LIG    1       -6.954  -0.255   0.030  0.00  0.00    -0.400 N 
ATOM      9  C   LIG    1       -6.126   0.794   0.035  0.00  0.00    +0.590 A 
ATOM     10  O   LIG    1       -6.550   1.936   0.046  0.00  0.00    -0.490 OA
ENDROOT
BRANCH   1  11
ATOM     11  N   LIG    1       -2.430   0.984   0.019  0.00  0.00    -0.640 N 
ATOM     12  H   LIG    1       -2.240   0.033   0.013  0.00  0.00    +0.420 HD
BRANCH  11  13
ATOM     13  C   LIG    1       -1.330   1.951   0.019  0.00  0.00    +0.200 C 
BRANCH  13  15
ATOM     14  O   LIG    1        0.002  -0.004   0.002  0.00  0.00    -0.680 OA
ATOM     15  C   LIG    1       -0.015   1.215   0.009  0.00  0.00    +0.490 C 
ATOM     16  O   LIG    1        1.033   1.839   0.002  0.00  0.00    -0.680 OA
ENDBRANCH  13  15
ENDBRANCH  11  13
ENDBRANCH   1  11
TORSDOF 3
ENDMDL
MODEL      122
REMARK  Name = ZINC000090513884
REMARK                            x       y       z     vdW  Elec       q    Type
REMARK                         _______ _______ _______ _____ _____    ______ ____
ROOT
ATOM      1  C   LIG    1        1.385  -2.521  -2.400  0.00  0.00    +0.080 C 
ENDROOT
BRANCH   1   2
ATOM      2  C   LIG    1        2.785  -1.963  -2.386  0.00  0.00    +0.520 C 
ATOM      3  O   LIG    1        3.146  -1.201  -3.267  0.00  0.00    -0.630 OA
ATOM      4  O   LIG    1        3.556  -2.273  -1.495  0.00  0.00    -0.680 OA
ENDBRANCH   1   2
BRANCH   1   5
ATOM      5  C   LIG    1        1.444  -4.024  -2.477  0.00  0.00    +0.460 C 
ATOM      6  O   LIG    1        1.388  -4.684  -1.466  0.00  0.00    -0.510 OA
BRANCH   5   7
ATOM      7  O   LIG    1        1.559  -4.631  -3.668  0.00  0.00    -0.340 OA
ATOM      8  C   LIG    1        1.610  -6.082  -3.667  0.00  0.00    +0.250 C 
ENDBRANCH   5   7
ENDBRANCH   1   5
BRANCH   1   9
ATOM      9  O   LIG    1        0.680  -2.013  -3.534  0.00  0.00    -0.500 OA
ATOM     10  H   LIG    1       -0.230  -2.331  -3.607  0.00  0.00    +0.350 HD
ENDBRANCH   1   9
BRANCH   1  11
ATOM     11  C   LIG    1        0.657  -2.104  -1.120  0.00  0.00    +0.120 C 
BRANCH  11  12
ATOM     12  C   LIG    1        0.598  -0.600  -1.043  0.00  0.00    +0.450 C 
ATOM     13  O   LIG    1        1.088   0.070  -1.921  0.00  0.00    -0.450 OA
BRANCH  12  15
ATOM     14  C   LIG    1       -0.018   1.448   0.010  0.00  0.00    +0.250 C 
ATOM     15  O   LIG    1        0.002  -0.004   0.002  0.00  0.00    -0.370 OA
ENDBRANCH  12  15
ENDBRANCH  11  12
ENDBRANCH   1  11
TORSDOF 7
ENDMDL
MODEL      123
REMARK  Name = ZINC000005631663
REMARK                            x       y       z     vdW  Elec       q    Type
REMARK                         _______ _______ _______ _____ _____    ______ ____
ROOT
ATOM      1  CA  GLN A  1        0.047  -4.545  -1.809  0.00  0.00    +0.160 C 
ENDROOT
BRANCH   1   3
ATOM      2  C   UNK A  0        0.023  -2.233  -1.040  0.00  0.00    +0.500 C 
ATOM      3  N   GLN A  1        0.025  -3.104  -2.069  0.00  0.00    -0.700 N 
ATOM      4  H   GLN A  1        0.011  -2.775  -2.982  0.00  0.00    +0.390 HD
ATOM      5  O   UNK A  0        0.039  -2.644   0.101  0.00  0.00    -0.510 OA
BRANCH   2   6
ATOM      6  C   UNK A  0       -0.000  -0.750  -1.307  0.00  0.00    +0.050 C 
BRANCH   6   8
ATOM      7  C   UNK A  0       -0.018   1.503   0.010  0.00  0.00    +0.050 C 
ATOM      8  C   UNK A  0        0.002  -0.004   0.002  0.00  0.00    +0.340 C 
ATOM      9  O   UNK A  0        0.020  -0.613   1.044  0.00  0.00    -0.410 OA
ENDBRANCH   6   8
ENDBRANCH   2   6
ENDBRANCH   1   3
BRANCH   1  10
ATOM     10  C   GLN A  1        1.470  -4.998  -1.612  0.00  0.00    +0.490 C 
ATOM     11  OXT GLN A  1        2.379  -4.417  -2.179  0.00  0.00    -0.690 OA
ATOM     12  O   GLN A  1        1.713  -5.946  -0.884  0.00  0.00    -0.690 OA
ENDBRANCH   1  10
BRANCH   1  13
ATOM     13  CB  GLN A  1       -0.564  -5.287  -3.000  0.00  0.00    +0.060 C 
BRANCH  13  14
ATOM     14  CG  GLN A  1       -2.045  -4.921  -3.124  0.00  0.00    +0.040 C 
BRANCH  14  15
ATOM     15  CD  GLN A  1       -2.646  -5.652  -4.296  0.00  0.00    +0.510 C 
ATOM     16  OE1 GLN A  1       -1.959  -6.393  -4.967  0.00  0.00    -0.540 OA
ATOM     17  NE2 GLN A  1       -3.948  -5.482  -4.600  0.00  0.00    -0.860 N 
ATOM     18 HE21 GLN A  1       -4.335  -5.953  -5.355  0.00  0.00    +0.400 HD
ATOM     19 HE22 GLN A  1       -4.498  -4.890  -4.064  0.00  0.00    +0.400 HD
ENDBRANCH  14  15
ENDBRANCH  13  14
ENDBRANCH   1  13
TORSDOF 7
ENDMDL
MODEL      124
REMARK  Name = ZINC000040537717
REMARK                            x       y       z     vdW  Elec       q    Type
REMARK                         _______ _______ _______ _____ _____    ______ ____
ROOT
ATOM      1  C   LIG    1       -0.018   1.461   0.010  0.00  0.00    +0.380 C 
ATOM      2  N   LIG    1        0.002  -0.004   0.002  0.00  0.00    -0.460 N 
ATOM      3  N   LIG    1        0.006  -0.688  -1.219  0.00  0.00    -0.070 NA
ATOM      4  C   LIG    1        0.023  -1.992  -1.234  0.00  0.00    -0.400 A 
ATOM      5  C   LIG    1        0.039  -2.718   0.040  0.00  0.00    +0.540 A 
ATOM      6  N   LIG    1        0.035  -2.020   1.194  0.00  0.00    -0.560 N 
ATOM      7  C   LIG    1        0.051  -2.727   2.477  0.00  0.00    +0.340 C 
ATOM      8  O   LIG    1        0.056  -3.934   0.055  0.00  0.00    -0.440 OA
ATOM      9  C   LIG    1        0.022  -0.674   1.168  0.00  0.00    +0.680 A 
ATOM     10  O   LIG    1        0.019  -0.054   2.215  0.00  0.00    -0.550 OA
ENDROOT
BRANCH   4  11
ATOM     11  S   LIG    1        0.029  -2.869  -2.762  0.00  0.00    +2.570 S 
ATOM     12  O   LIG    1        0.894  -3.982  -2.583  0.00  0.00    -1.010 OA
ATOM     13  O   LIG    1        0.213  -1.897  -3.782  0.00  0.00    -1.020 OA
BRANCH  11  14
ATOM     14  N   LIG    1       -1.492  -3.489  -2.977  0.00  0.00    -0.980 NA
BRANCH  14  15
ATOM     15  N   LIG    1       -1.779  -4.223  -4.092  0.00  0.00    -0.610 NA
ATOM     16  H   LIG    1       -1.574  -3.702  -4.931  0.00  0.00    +0.260 HD
ATOM     17  H   LIG    1       -2.739  -4.532  -4.084  0.00  0.00    +0.330 HD
ENDBRANCH  14  15
ENDBRANCH  11  14
ENDBRANCH   4  11
TORSDOF 3
ENDMDL
MODEL      125
REMARK  Name = ZINC000001638485
REMARK                            x       y       z     vdW  Elec       q    Type
REMARK                         _______ _______ _______ _____ _____    ______ ____
ROOT
ATOM      1  C   LIG    1       -0.053   1.474   0.436  0.00  0.00    +0.110 C 
ATOM      2  C   LIG    1       -0.009  -0.039   0.217  0.00  0.00    +0.020 C 
ATOM      3  C   LIG    1        0.444  -0.541  -1.155  0.00  0.00    -0.230 C 
ATOM      4  C   LIG    1        0.134  -1.970  -1.543  0.00  0.00    +0.580 C 
ATOM      5  N   LIG    1        0.759  -2.801  -0.700  0.00  0.00    -0.680 N 
ATOM      6  H   LIG    1        0.695  -3.766  -0.770  0.00  0.00    +0.420 HD
ATOM      7  C   LIG    1        1.482  -2.190   0.247  0.00  0.00    +0.570 C 
ATOM      8  O   LIG    1        2.126  -2.748   1.109  0.00  0.00    -0.460 OA
ATOM      9  O   LIG    1       -0.570  -2.309  -2.470  0.00  0.00    -0.480 OA
ATOM     10  C   LIG    1       -1.096  -0.841   0.937  0.00  0.00    +0.070 C 
ATOM     11  C   LIG    1        1.367  -0.691   0.071  0.00  0.00    -0.180 C 
ENDROOT
BRANCH   3  12
ATOM     12  C   LIG    1        0.723   0.449  -2.257  0.00  0.00    +0.600 C 
ATOM     13  O   LIG    1        0.589   1.637  -2.054  0.00  0.00    -0.520 OA
ATOM     14  N   LIG    1        1.122   0.013  -3.469  0.00  0.00    -0.840 N 
ATOM     15  H   LIG    1        1.302   0.650  -4.178  0.00  0.00    +0.400 HD
ATOM     16  H   LIG    1        1.230  -0.937  -3.631  0.00  0.00    +0.400 HD
ENDBRANCH   3  12
BRANCH  11  17
ATOM     17  C   LIG    1        2.611   0.136   0.271  0.00  0.00    +0.550 C 
ATOM     18  O   LIG    1        2.839   0.641   1.357  0.00  0.00    -0.650 OA
ATOM     19  O   LIG    1        3.389   0.301  -0.654  0.00  0.00    -0.670 OA
ENDBRANCH  11  17
TORSDOF 2
ENDMDL
MODEL      126
REMARK  Name = ZINC000001725810
REMARK                            x       y       z     vdW  Elec       q    Type
REMARK                         _______ _______ _______ _____ _____    ______ ____
ROOT
ATOM      1  C   LIG    1        0.021  -2.119  -1.096  0.00  0.00    +0.220 C 
ENDROOT
BRANCH   1   2
ATOM      2  C   LIG    1        1.448  -2.602  -1.086  0.00  0.00    +0.520 C 
ATOM      3  O   LIG    1        2.359  -1.802  -1.132  0.00  0.00    -0.530 OA
ATOM      4  N   LIG    1        1.713  -3.922  -1.026  0.00  0.00    -0.850 N 
ATOM      5  H   LIG    1        2.632  -4.232  -1.020  0.00  0.00    +0.400 HD
ATOM      6  H   LIG    1        0.985  -4.561  -0.990  0.00  0.00    +0.400 HD
ENDBRANCH   1   2
BRANCH   1   7
ATOM      7  O   LIG    1        0.000  -0.669  -1.164  0.00  0.00    -0.300 OA
BRANCH   7   9
ATOM      8  C   LIG    1       -0.018   1.503   0.010  0.00  0.00    +0.160 C 
ATOM      9  C   LIG    1        0.002  -0.004   0.002  0.00  0.00    +0.460 C 
ATOM     10  O   LIG    1        0.020  -0.614   1.045  0.00  0.00    -0.520 OA
ENDBRANCH   7   9
ENDBRANCH   1   7
BRANCH   1  11
ATOM     11  C   LIG    1       -0.705  -2.697  -2.313  0.00  0.00    +0.130 C 
BRANCH  11  12
ATOM     12  C   LIG    1       -2.094  -2.119  -2.392  0.00  0.00    +0.500 C 
ATOM     13  O   LIG    1       -2.907  -2.365  -1.517  0.00  0.00    -0.680 OA
ATOM     14  O   LIG    1       -2.405  -1.405  -3.330  0.00  0.00    -0.660 OA
ENDBRANCH  11  12
BRANCH  11  15
ATOM     15  O   LIG    1        0.029  -2.359  -3.519  0.00  0.00    -0.320 OA
BRANCH  15  16
ATOM     16  C   LIG    1       -0.052  -3.222  -4.544  0.00  0.00    +0.460 C 
ATOM     17  O   LIG    1       -0.714  -4.227  -4.437  0.00  0.00    -0.520 OA
ATOM     18  C   LIG    1        0.683  -2.937  -5.829  0.00  0.00    +0.140 C 
ENDBRANCH  15  16
ENDBRANCH  11  15
ENDBRANCH   1  11
TORSDOF 7
ENDMDL
MODEL      127
REMARK  Name = ZINC000050213527
REMARK                            x       y       z     vdW  Elec       q    Type
REMARK                         _______ _______ _______ _____ _____    ______ ____
ROOT
ATOM      1  C   LIG    1       -3.440   4.851   0.036  0.00  0.00    +0.350 C 
ENDROOT
BRANCH   1   2
ATOM      2  C   LIG    1       -4.401   4.937  -1.122  0.00  0.00    +0.500 C 
ATOM      3  N   LIG    1       -5.120   6.060  -1.318  0.00  0.00    -0.620 N 
ATOM      4  C   LIG    1       -4.980   7.216  -0.419  0.00  0.00    +0.240 C 
ATOM      5  C   LIG    1       -4.746   8.467  -1.273  0.00  0.00    +0.220 C 
ATOM      6  O   LIG    1       -5.769   8.557  -2.267  0.00  0.00    -0.380 OA
ATOM      7  C   LIG    1       -5.782   7.468  -3.194  0.00  0.00    +0.220 C 
ATOM      8  C   LIG    1       -6.065   6.168  -2.441  0.00  0.00    +0.260 C 
ATOM      9  O   LIG    1       -4.527   3.997  -1.877  0.00  0.00    -0.500 OA
ENDBRANCH   1   2
BRANCH   1  12
ATOM     10  C   LIG    1       -1.299   1.938   0.019  0.00  0.00    -0.080 A 
ATOM     11  C   LIG    1       -1.459   3.306   0.021  0.00  0.00    +0.230 A 
ATOM     12  N   LIG    1       -2.785   3.540   0.030  0.00  0.00    -0.370 N 
ATOM     13  N   LIG    1       -3.420   2.291   0.033  0.00  0.00    -0.080 NA
ATOM     14  N   LIG    1       -2.519   1.371   0.021  0.00  0.00    -0.200 NA
BRANCH  10  16
ATOM     15  O   LIG    1        0.002  -0.004   0.002  0.00  0.00    -0.670 OA
ATOM     16  C   LIG    1       -0.015   1.219   0.009  0.00  0.00    +0.560 C 
ATOM     17  O   LIG    1        1.037   1.845   0.002  0.00  0.00    -0.690 OA
ENDBRANCH  10  16
ENDBRANCH   1  12
TORSDOF 3
ENDMDL
MODEL      128
REMARK  Name = ZINC000004530777
REMARK                            x       y       z     vdW  Elec       q    Type
REMARK                         _______ _______ _______ _____ _____    ______ ____
ROOT
ATOM      1  C   LIG    1       -2.479   0.941   0.019  0.00  0.00    +0.210 C 
ATOM      2  O   LIG    1       -2.456   0.192   1.236  0.00  0.00    -0.360 OA
ATOM      3  C   LIG    1       -3.477  -0.802   1.329  0.00  0.00    +0.290 C 
ATOM      4  C   LIG    1       -4.851  -0.129   1.267  0.00  0.00    +0.130 C 
ATOM      5  C   LIG    1       -4.960   0.672  -0.034  0.00  0.00    +0.160 C 
ATOM      6  C   LIG    1       -3.812   1.685  -0.096  0.00  0.00    +0.150 C 
ENDROOT
BRANCH   5   7
ATOM      7  O   LIG    1       -6.211   1.362  -0.068  0.00  0.00    -0.550 OA
ATOM      8  H   LIG    1       -6.982   0.780  -0.026  0.00  0.00    +0.380 HD
ENDBRANCH   5   7
BRANCH   4   9
ATOM      9  O   LIG    1       -5.002   0.750   2.384  0.00  0.00    -0.530 OA
ATOM     10  H   LIG    1       -4.940   0.309   3.242  0.00  0.00    +0.380 HD
ENDBRANCH   4   9
BRANCH   3  11
ATOM     11  O   LIG    1       -3.347  -1.506   2.566  0.00  0.00    -0.550 OA
ATOM     12  H   LIG    1       -2.498  -1.957   2.674  0.00  0.00    +0.390 HD
ENDBRANCH   3  11
BRANCH   6  13
ATOM     13  O   LIG    1       -3.936   2.613   0.983  0.00  0.00    -0.520 OA
ATOM     14  H   LIG    1       -4.762   3.117   0.975  0.00  0.00    +0.370 HD
ENDBRANCH   6  13
BRANCH   1  15
ATOM     15  C   LIG    1       -1.330   1.951   0.019  0.00  0.00    -0.020 C 
BRANCH  15  17
ATOM     16  O   LIG    1        0.002  -0.004   0.002  0.00  0.00    -0.690 OA
ATOM     17  C   LIG    1       -0.015   1.215   0.009  0.00  0.00    +0.490 C 
ATOM     18  O   LIG    1        1.033   1.839   0.002  0.00  0.00    -0.710 OA
ENDBRANCH  15  17
ENDBRANCH   1  15
TORSDOF 6
ENDMDL
MODEL      129
REMARK  Name = ZINC000004530780
REMARK                            x       y       z     vdW  Elec       q    Type
REMARK                         _______ _______ _______ _____ _____    ______ ____
ROOT
ATOM      1  C   LIG    1       -2.479   0.941   0.019  0.00  0.00    +0.230 C 
ATOM      2  O   LIG    1       -2.467   0.205  -1.206  0.00  0.00    -0.360 OA
ATOM      3  C   LIG    1       -3.490  -0.788  -1.300  0.00  0.00    +0.310 C 
ATOM      4  C   LIG    1       -4.862  -0.115  -1.218  0.00  0.00    +0.140 C 
ATOM      5  C   LIG    1       -4.959   0.671   0.093  0.00  0.00    +0.140 C 
ATOM      6  C   LIG    1       -3.811   1.683   0.154  0.00  0.00    +0.150 C 
ENDROOT
BRANCH   5   7
ATOM      7  O   LIG    1       -4.865  -0.229   1.198  0.00  0.00    -0.530 OA
ATOM      8  H   LIG    1       -5.559  -0.902   1.218  0.00  0.00    +0.380 HD
ENDBRANCH   5   7
BRANCH   4   9
ATOM      9  O   LIG    1       -5.886  -1.112  -1.255  0.00  0.00    -0.560 OA
ATOM     10  H   LIG    1       -5.881  -1.651  -2.058  0.00  0.00    +0.380 HD
ENDBRANCH   4   9
BRANCH   3  11
ATOM     11  O   LIG    1       -3.350  -1.719  -0.225  0.00  0.00    -0.560 OA
ATOM     12  H   LIG    1       -2.502  -2.183  -0.214  0.00  0.00    +0.390 HD
ENDBRANCH   3  11
BRANCH   6  13
ATOM     13  O   LIG    1       -3.945   2.623  -0.913  0.00  0.00    -0.540 OA
ATOM     14  H   LIG    1       -4.771   3.127  -0.892  0.00  0.00    +0.370 HD
ENDBRANCH   6  13
BRANCH   1  15
ATOM     15  C   LIG    1       -1.330   1.951   0.019  0.00  0.00    -0.040 C 
BRANCH  15  17
ATOM     16  O   LIG    1        0.002  -0.004   0.002  0.00  0.00    -0.690 OA
ATOM     17  C   LIG    1       -0.015   1.215   0.009  0.00  0.00    +0.490 C 
ATOM     18  O   LIG    1        1.033   1.839   0.002  0.00  0.00    -0.710 OA
ENDBRANCH  15  17
ENDBRANCH   1  15
TORSDOF 6
ENDMDL
MODEL      130
REMARK  Name = ZINC000013362673
REMARK                            x       y       z     vdW  Elec       q    Type
REMARK                         _______ _______ _______ _____ _____    ______ ____
ROOT
ATOM      1  C   LIG    1       -0.212   1.459   0.021  0.00  0.00    +0.340 C 
ATOM      2  N   LIG    1       -0.194  -0.006   0.012  0.00  0.00    -0.540 N 
ATOM      3  C   LIG    1       -0.287  -0.662  -1.156  0.00  0.00    +0.720 A 
ATOM      4  N   LIG    1       -0.277  -2.003  -1.239  0.00  0.00    -0.660 N 
ATOM      5  H   LIG    1       -0.347  -2.430  -2.107  0.00  0.00    +0.430 HD
ATOM      6  C   LIG    1       -0.170  -2.764  -0.127  0.00  0.00    +0.560 A 
ATOM      7  C   LIG    1       -0.066  -2.083   1.168  0.00  0.00    -0.260 A 
ATOM      8  C   LIG    1        0.052  -2.826   2.420  0.00  0.00    +0.050 A 
ATOM      9  C   LIG    1        0.139  -2.103   3.595  0.00  0.00    -0.100 A 
ATOM     10  C   LIG    1        0.122  -0.692   3.544  0.00  0.00    +0.550 A 
ATOM     11  O   LIG    1        0.204  -0.059   4.582  0.00  0.00    -0.550 OA
ATOM     12  N   LIG    1        0.017  -0.031   2.378  0.00  0.00    -0.610 N 
ATOM     13  H   LIG    1        0.009   0.939   2.384  0.00  0.00    +0.410 HD
ATOM     14  O   LIG    1       -0.160  -3.978  -0.198  0.00  0.00    -0.440 OA
ATOM     15  O   LIG    1       -0.385  -0.016  -2.181  0.00  0.00    -0.540 OA
ATOM     16  C   LIG    1       -0.077  -0.686   1.195  0.00  0.00    +0.430 A 
ENDROOT
BRANCH   8  17
ATOM     17  C   LIG    1        0.066  -4.309   2.431  0.00  0.00    +0.540 C 
ATOM     18  O   LIG    1        1.126  -4.911   2.347  0.00  0.00    -0.660 OA
ATOM     19  O   LIG    1       -0.983  -4.929   2.525  0.00  0.00    -0.660 OA
ENDBRANCH   8  17
TORSDOF 1
ENDMDL
MODEL      131
REMARK  Name = ZINC000001736143
REMARK                            x       y       z     vdW  Elec       q    Type
REMARK                         _______ _______ _______ _____ _____    ______ ____
ROOT
ATOM      1  C   LIG    1       -0.018   1.461   0.010  0.00  0.00    +0.340 C 
ATOM      2  N   LIG    1        0.002  -0.004   0.002  0.00  0.00    -0.560 N 
ATOM      3  C   LIG    1        0.005  -0.662  -1.170  0.00  0.00    +0.700 A 
ATOM      4  N   LIG    1        0.024  -2.006  -1.220  0.00  0.00    -0.630 N 
ATOM      5  H   LIG    1        0.026  -2.457  -2.079  0.00  0.00    +0.420 HD
ATOM      6  C   LIG    1        0.040  -2.747  -0.059  0.00  0.00    +0.210 A 
ATOM      7  C   LIG    1        0.036  -2.093   1.155  0.00  0.00    +0.020 A 
ATOM      8  N   LIG    1        0.051  -2.805   2.352  0.00  0.00    -0.590 NA
ATOM      9  C   LIG    1        0.070  -4.155   2.328  0.00  0.00    +0.450 A 
ATOM     10  C   LIG    1        0.074  -4.850   1.010  0.00  0.00    +0.450 A 
ATOM     11  O   LIG    1        0.090  -6.063   0.955  0.00  0.00    -0.530 OA
ATOM     12  O   LIG    1        0.082  -4.792   3.363  0.00  0.00    -0.560 OA
ATOM     13  N   LIG    1        0.058  -4.116  -0.121  0.00  0.00    -0.510 N 
ATOM     14  C   LIG    1        0.061  -4.786  -1.424  0.00  0.00    +0.290 C 
ATOM     15  O   LIG    1       -0.008  -0.029  -2.208  0.00  0.00    -0.570 OA
ATOM     16  C   LIG    1        0.022  -0.677   1.170  0.00  0.00    +0.570 A 
ATOM     17  O   LIG    1        0.019  -0.073   2.228  0.00  0.00    -0.490 OA
ENDROOT
TORSDOF 0
ENDMDL
MODEL      132
REMARK  Name = ZINC000016943074
REMARK                            x       y       z     vdW  Elec       q    Type
REMARK                         _______ _______ _______ _____ _____    ______ ____
ROOT
ATOM      1  C   LIG    1       -0.018   1.461   0.010  0.00  0.00    +0.340 C 
ATOM      2  N   LIG    1        0.002  -0.004   0.002  0.00  0.00    -0.560 N 
ATOM      3  C   LIG    1        0.005  -0.664  -1.173  0.00  0.00    +0.570 A 
ATOM      4  C   LIG    1        0.025  -2.080  -1.173  0.00  0.00    +0.020 A 
ATOM      5  C   LIG    1        0.040  -2.747   0.033  0.00  0.00    +0.210 A 
ATOM      6  N   LIG    1        0.035  -2.019   1.202  0.00  0.00    -0.530 N 
ATOM      7  C   LIG    1        0.051  -2.714   2.491  0.00  0.00    +0.330 C 
ATOM      8  N   LIG    1        0.058  -4.117   0.080  0.00  0.00    -0.610 N 
ATOM      9  H   LIG    1        0.068  -4.570   0.938  0.00  0.00    +0.390 HD
ATOM     10  C   LIG    1        0.062  -4.839  -1.059  0.00  0.00    +0.450 A 
ATOM     11  C   LIG    1        0.047  -4.129  -2.370  0.00  0.00    +0.450 A 
ATOM     12  O   LIG    1        0.051  -4.755  -3.412  0.00  0.00    -0.560 OA
ATOM     13  O   LIG    1        0.078  -6.053  -1.018  0.00  0.00    -0.540 OA
ATOM     14  N   LIG    1        0.028  -2.779  -2.379  0.00  0.00    -0.590 NA
ATOM     15  O   LIG    1       -0.007  -0.049  -2.225  0.00  0.00    -0.490 OA
ATOM     16  C   LIG    1        0.022  -0.675   1.167  0.00  0.00    +0.700 A 
ATOM     17  O   LIG    1        0.019  -0.053   2.212  0.00  0.00    -0.570 OA
ENDROOT
TORSDOF 0
ENDMDL
MODEL      133
REMARK  Name = ZINC000014684177
REMARK                            x       y       z     vdW  Elec       q    Type
REMARK                         _______ _______ _______ _____ _____    ______ ____
ROOT
ATOM      1  C   LIG    1       -1.484   2.731  -1.241  0.00  0.00    +0.240 C 
ENDROOT
BRANCH   1   2
ATOM      2  C   LIG    1       -2.797   3.470  -1.232  0.00  0.00    +0.440 C 
ATOM      3  O   LIG    1       -2.810   4.678  -1.188  0.00  0.00    -0.500 OA
BRANCH   2   4
ATOM      4  O   LIG    1       -3.952   2.788  -1.271  0.00  0.00    -0.270 OA
BRANCH   4   5
ATOM      5  C   LIG    1       -5.099   3.508  -1.157  0.00  0.00    +0.040 A 
ATOM      6  C   LIG    1       -5.589   4.232  -2.239  0.00  0.00    +0.060 A 
ATOM      7  C   LIG    1       -6.762   4.951  -2.073  0.00  0.00    -0.020 A 
ATOM      8  C   LIG    1       -7.402   4.925  -0.848  0.00  0.00    +0.250 A 
ATOM      9  N   LIG    1       -6.911   4.228   0.158  0.00  0.00    -0.470 NA
ATOM     10  C   LIG    1       -5.801   3.526   0.040  0.00  0.00    +0.280 A 
ENDBRANCH   4   5
ENDBRANCH   2   4
ENDBRANCH   1   2
BRANCH   1  11
ATOM     11  O   LIG    1       -0.409   3.671  -1.311  0.00  0.00    -0.500 OA
ATOM     12  H   LIG    1       -0.381   4.292  -0.570  0.00  0.00    +0.380 HD
ENDBRANCH   1  11
BRANCH   1  13
ATOM     13  C   LIG    1       -1.355   1.903   0.039  0.00  0.00    +0.110 C 
BRANCH  13  15
ATOM     14  O   LIG    1       -0.029  -0.054  -0.015  0.00  0.00    -0.680 OA
ATOM     15  C   LIG    1       -0.042   1.164   0.029  0.00  0.00    +0.480 C 
ATOM     16  O   LIG    1        1.007   1.784   0.060  0.00  0.00    -0.670 OA
ENDBRANCH  13  15
BRANCH  13  17
ATOM     17  O   LIG    1       -2.430   0.964   0.108  0.00  0.00    -0.540 OA
ATOM     18  H   LIG    1       -2.458   0.343  -0.632  0.00  0.00    +0.380 HD
ENDBRANCH  13  17
ENDBRANCH   1  13
TORSDOF 7
ENDMDL
MODEL      134
REMARK  Name = ZINC000008581217
REMARK                            x       y       z     vdW  Elec       q    Type
REMARK                         _______ _______ _______ _____ _____    ______ ____
ROOT
ATOM      1  C   LIG    1       -0.018   1.461   0.010  0.00  0.00    +0.320 C 
ATOM      2  N   LIG    1        0.002  -0.004   0.002  0.00  0.00    -0.510 N 
ATOM      3  C   LIG    1       -1.185  -0.700   0.004  0.00  0.00    +0.240 A 
ATOM      4  C   LIG    1       -1.156  -2.089  -0.004  0.00  0.00    -0.090 A 
ATOM      5  C   LIG    1        0.147  -2.756  -0.014  0.00  0.00    +0.600 A 
ATOM      6  N   LIG    1        1.262  -1.993  -0.015  0.00  0.00    -0.560 N 
ATOM      7  C   LIG    1        2.578  -2.637  -0.025  0.00  0.00    +0.350 C 
ATOM      8  O   LIG    1        0.225  -3.971  -0.021  0.00  0.00    -0.490 OA
ATOM      9  N   LIG    1       -2.440  -2.521   0.001  0.00  0.00    -0.380 NA
ATOM     10  C   LIG    1       -3.235  -1.491   0.010  0.00  0.00    +0.290 A 
ATOM     11  N   LIG    1       -2.497  -0.344   0.013  0.00  0.00    -0.560 N 
ATOM     12  H   LIG    1       -2.844   0.562   0.020  0.00  0.00    +0.420 HD
ATOM     13  C   LIG    1        1.180  -0.652  -0.013  0.00  0.00    +0.720 A 
ATOM     14  O   LIG    1        2.208  -0.002  -0.014  0.00  0.00    -0.550 OA
ENDROOT
BRANCH  10  15
ATOM     15  C   LIG    1       -4.741  -1.556   0.018  0.00  0.00    +0.070 C 
BRANCH  15  16
ATOM     16  C   LIG    1       -5.214  -2.384  -1.149  0.00  0.00    +0.500 C 
ATOM     17  O   LIG    1       -6.407  -2.562  -1.326  0.00  0.00    -0.700 OA
ATOM     18  O   LIG    1       -4.404  -2.877  -1.915  0.00  0.00    -0.670 OA
ENDBRANCH  15  16
ENDBRANCH  10  15
TORSDOF 2
ENDMDL
MODEL      135
REMARK  Name = ZINC000309233936
REMARK                            x       y       z     vdW  Elec       q    Type
REMARK                         _______ _______ _______ _____ _____    ______ ____
ROOT
ATOM      1  C   LIG    1        1.387  -2.493  -2.405  0.00  0.00    +0.280 C 
ATOM      2  O   LIG    1        2.793  -2.247  -2.323  0.00  0.00    -0.360 OA
ATOM      3  C   LIG    1        3.539  -2.752  -3.432  0.00  0.00    +0.060 C 
ATOM      4  C   LIG    1        3.373  -4.272  -3.507  0.00  0.00    +0.140 C 
ATOM      5  C   LIG    1        1.884  -4.611  -3.628  0.00  0.00    +0.200 C 
ATOM      6  C   LIG    1        1.135  -4.002  -2.438  0.00  0.00    +0.180 C 
ENDROOT
BRANCH   3   7
ATOM      7  C   LIG    1        4.996  -2.413  -3.254  0.00  0.00    +0.510 C 
ATOM      8  O   LIG    1        5.795  -2.675  -4.136  0.00  0.00    -0.680 OA
ATOM      9  O   LIG    1        5.376  -1.878  -2.226  0.00  0.00    -0.660 OA
ENDBRANCH   3   7
BRANCH   5  10
ATOM     10  O   LIG    1        1.715  -6.029  -3.627  0.00  0.00    -0.550 OA
ATOM     11  H   LIG    1        2.169  -6.480  -4.352  0.00  0.00    +0.390 HD
ENDBRANCH   5  10
BRANCH   4  12
ATOM     12  O   LIG    1        4.072  -4.773  -4.649  0.00  0.00    -0.570 OA
ATOM     13  H   LIG    1        5.022  -4.590  -4.640  0.00  0.00    +0.400 HD
ENDBRANCH   4  12
BRANCH   6  14
ATOM     14  O   LIG    1       -0.265  -4.251  -2.578  0.00  0.00    -0.550 OA
ATOM     15  H   LIG    1       -0.802  -3.893  -1.858  0.00  0.00    +0.380 HD
ENDBRANCH   6  14
BRANCH   1  16
ATOM     16  O   LIG    1        0.738  -1.926  -1.265  0.00  0.00    -0.370 OA
BRANCH  16  17
ATOM     17  C   LIG    1        0.718  -0.497  -1.257  0.00  0.00    +0.180 C 
BRANCH  17  19
ATOM     18  C   LIG    1       -0.019   1.526   0.010  0.00  0.00    +0.020 C 
ATOM     19  C   LIG    1        0.002  -0.004   0.002  0.00  0.00    +0.020 C 
ENDBRANCH  17  19
ENDBRANCH  16  17
ENDBRANCH   1  16
TORSDOF 7
ENDMDL
MODEL      136
REMARK  Name = ZINC000005382694
REMARK                            x       y       z     vdW  Elec       q    Type
REMARK                         _______ _______ _______ _____ _____    ______ ____
ROOT
ATOM      1  C   LIG    1       -0.567   3.214  -1.655  0.00  0.00    +0.240 C 
ATOM      2  C   LIG    1       -2.022   3.663  -1.413  0.00  0.00    -0.300 C 
ATOM      3  S   LIG    1       -2.259   4.983  -2.670  0.00  0.00    +2.390 S 
ATOM      4  C   LIG    1       -1.207   4.158  -3.932  0.00  0.00    -0.330 C 
ATOM      5  O   LIG    1       -1.635   6.183  -2.232  0.00  0.00    -0.920 OA
ATOM      6  O   LIG    1       -3.611   4.997  -3.105  0.00  0.00    -0.940 OA
ATOM      7  C   LIG    1       -0.109   3.494  -3.082  0.00  0.00    +0.190 C 
ENDROOT
BRANCH   7   8
ATOM      8  O   LIG    1        1.028   4.358  -3.035  0.00  0.00    -0.550 OA
ATOM      9  H   LIG    1        1.424   4.535  -3.900  0.00  0.00    +0.380 HD
ENDBRANCH   7   8
BRANCH   1  10
ATOM     10  O   LIG    1       -0.466   1.811  -1.403  0.00  0.00    -0.700 OA
BRANCH  10  12
ATOM     11  O   LIG    1        0.002  -0.004   0.002  0.00  0.00    -1.010 OA
ATOM     12  S   LIG    1       -0.018   1.467   0.010  0.00  0.00    +1.580 S 
ATOM     13  O   LIG    1        1.411   1.818  -0.002  0.00  0.00    -1.040 OA
ENDBRANCH  10  12
ENDBRANCH   1  10
TORSDOF 3
ENDMDL
MODEL      137
REMARK  Name = ZINC000005382695
REMARK                            x       y       z     vdW  Elec       q    Type
REMARK                         _______ _______ _______ _____ _____    ______ ____
ROOT
ATOM      1  C   LIG    1       -0.567   3.214  -1.655  0.00  0.00    +0.240 C 
ATOM      2  C   LIG    1        0.736   3.718  -2.329  0.00  0.00    -0.290 C 
ATOM      3  S   LIG    1        0.172   5.313  -3.049  0.00  0.00    +2.380 S 
ATOM      4  C   LIG    1       -1.507   4.720  -3.480  0.00  0.00    -0.340 C 
ATOM      5  O   LIG    1        0.905   5.586  -4.235  0.00  0.00    -0.940 OA
ATOM      6  O   LIG    1        0.084   6.294  -2.025  0.00  0.00    -0.930 OA
ATOM      7  C   LIG    1       -1.739   3.484  -2.600  0.00  0.00    +0.190 C 
ENDROOT
BRANCH   7   8
ATOM      8  O   LIG    1       -1.928   2.345  -3.442  0.00  0.00    -0.530 OA
ATOM      9  H   LIG    1       -2.695   2.410  -4.027  0.00  0.00    +0.370 HD
ENDBRANCH   7   8
BRANCH   1  10
ATOM     10  O   LIG    1       -0.466   1.811  -1.403  0.00  0.00    -0.680 OA
BRANCH  10  12
ATOM     11  O   LIG    1        0.002  -0.004   0.002  0.00  0.00    -1.010 OA
ATOM     12  S   LIG    1       -0.018   1.467   0.010  0.00  0.00    +1.580 S 
ATOM     13  O   LIG    1        1.411   1.818  -0.002  0.00  0.00    -1.040 OA
ENDBRANCH  10  12
ENDBRANCH   1  10
TORSDOF 3
ENDMDL
MODEL      138
REMARK  Name = ZINC000005382687
REMARK                            x       y       z     vdW  Elec       q    Type
REMARK                         _______ _______ _______ _____ _____    ______ ____
ROOT
ATOM      1  C   LIG    1       -0.567   3.214  -1.655  0.00  0.00    +0.240 C 
ATOM      2  C   LIG    1        0.753   3.705  -2.283  0.00  0.00    -0.290 C 
ATOM      3  S   LIG    1        0.390   3.662  -4.085  0.00  0.00    +2.380 S 
ATOM      4  C   LIG    1       -1.369   4.156  -3.881  0.00  0.00    -0.330 C 
ATOM      5  O   LIG    1        0.464   2.324  -4.559  0.00  0.00    -0.920 OA
ATOM      6  O   LIG    1        1.107   4.696  -4.746  0.00  0.00    -0.950 OA
ATOM      7  C   LIG    1       -1.765   3.469  -2.562  0.00  0.00    +0.210 C 
ENDROOT
BRANCH   7   8
ATOM      8  O   LIG    1       -2.696   4.301  -1.867  0.00  0.00    -0.550 OA
ATOM      9  H   LIG    1       -3.519   4.459  -2.349  0.00  0.00    +0.380 HD
ENDBRANCH   7   8
BRANCH   1  10
ATOM     10  O   LIG    1       -0.466   1.811  -1.403  0.00  0.00    -0.710 OA
BRANCH  10  12
ATOM     11  O   LIG    1        0.002  -0.004   0.002  0.00  0.00    -1.010 OA
ATOM     12  S   LIG    1       -0.018   1.467   0.010  0.00  0.00    +1.590 S 
ATOM     13  O   LIG    1        1.411   1.818  -0.002  0.00  0.00    -1.040 OA
ENDBRANCH  10  12
ENDBRANCH   1  10
TORSDOF 3
ENDMDL
MODEL      139
REMARK  Name = ZINC000079006501
REMARK                            x       y       z     vdW  Elec       q    Type
REMARK                         _______ _______ _______ _____ _____    ______ ____
ROOT
ATOM      1  C   LIG    1        0.210   1.456  -0.035  0.00  0.00    +0.340 C 
ATOM      2  N   LIG    1        0.113  -0.006  -0.020  0.00  0.00    -0.560 N 
ATOM      3  C   LIG    1       -1.101  -0.593  -0.002  0.00  0.00    +0.570 A 
ATOM      4  C   LIG    1       -1.173  -2.059   0.013  0.00  0.00    -0.440 A 
ATOM      5  C   LIG    1        0.036  -2.777   0.006  0.00  0.00    +0.530 A 
ATOM      6  N   LIG    1        1.214  -2.086  -0.013  0.00  0.00    -0.550 N 
ATOM      7  C   LIG    1        2.479  -2.824  -0.019  0.00  0.00    +0.330 C 
ATOM      8  O   LIG    1       -2.116   0.079   0.003  0.00  0.00    -0.490 OA
ATOM      9  C   LIG    1        1.235  -0.744  -0.031  0.00  0.00    +0.710 A 
ATOM     10  O   LIG    1        2.310  -0.176  -0.048  0.00  0.00    -0.550 OA
ENDROOT
BRANCH   5  11
ATOM     11  N   LIG    1        0.033  -4.137   0.019  0.00  0.00    -0.800 N 
ATOM     12  H   LIG    1        0.869  -4.623   0.093  0.00  0.00    +0.400 HD
ATOM     13  H   LIG    1       -0.806  -4.621  -0.047  0.00  0.00    +0.440 HD
ENDBRANCH   5  11
BRANCH   4  14
ATOM     14  C   LIG    1       -2.416  -2.727   0.032  0.00  0.00    +0.430 C 
ATOM     15  O   LIG    1       -2.457  -3.938  -0.063  0.00  0.00    -0.450 OA
BRANCH  14  16
ATOM     16  C   LIG    1       -3.693  -1.939   0.171  0.00  0.00    -0.030 C 
BRANCH  16  17
ATOM     17  C   LIG    1       -4.869  -2.882   0.164  0.00  0.00    +0.490 C 
ATOM     18  O   LIG    1       -6.002  -2.444   0.267  0.00  0.00    -0.710 OA
ATOM     19  O   LIG    1       -4.686  -4.083   0.056  0.00  0.00    -0.670 OA
ENDBRANCH  16  17
ENDBRANCH  14  16
ENDBRANCH   4  14
TORSDOF 4
ENDMDL
MODEL      140
REMARK  Name = ZINC000049474281
REMARK                            x       y       z     vdW  Elec       q    Type
REMARK                         _______ _______ _______ _____ _____    ______ ____
ROOT
ATOM      1  C   LIG    1       -1.522  -2.385   0.004  0.00  0.00    -0.260 A 
ATOM      2  N   LIG    1       -1.533  -3.146   1.052  0.00  0.00    -0.300 NA
ATOM      3  N   LIG    1       -1.364  -4.473   0.636  0.00  0.00    -0.390 N 
ATOM      4  C   LIG    1       -1.251  -4.461  -0.719  0.00  0.00    +0.530 A 
ATOM      5  N   LIG    1       -1.081  -5.582  -1.397  0.00  0.00    -0.630 NA
ATOM      6  C   LIG    1       -1.013  -6.763  -0.771  0.00  0.00    +0.530 A 
ATOM      7  C   LIG    1       -1.125  -6.818   0.633  0.00  0.00    -0.250 A 
ATOM      8  O   LIG    1       -0.854  -7.791  -1.415  0.00  0.00    -0.590 OA
ATOM      9  C   LIG    1       -1.302  -5.656   1.325  0.00  0.00    +0.460 A 
ATOM     10  N   LIG    1       -1.356  -3.157  -1.114  0.00  0.00    -0.520 NA
ENDROOT
BRANCH   1  11
ATOM     11  S   LIG    1       -1.700  -0.632   0.015  0.00  0.00    +2.540 S 
ATOM     12  O   LIG    1       -2.349  -0.338  -1.214  0.00  0.00    -0.910 OA
ATOM     13  O   LIG    1       -2.325  -0.351   1.259  0.00  0.00    -0.920 OA
BRANCH  11  15
ATOM     14  C   LIG    1       -0.019   1.526   0.010  0.00  0.00    +0.080 C 
ATOM     15  C   LIG    1        0.002  -0.004   0.002  0.00  0.00    -0.320 C 
ENDBRANCH  11  15
ENDBRANCH   1  11
BRANCH   9  16
ATOM     16  N   LIG    1       -1.416  -5.672   2.699  0.00  0.00    -0.860 N 
ATOM     17  H   LIG    1       -1.541  -4.841   3.184  0.00  0.00    +0.400 HD
ATOM     18  H   LIG    1       -1.370  -6.513   3.180  0.00  0.00    +0.410 HD
ENDBRANCH   9  16
TORSDOF 3
ENDMDL
MODEL      141
REMARK  Name = ZINC000020215875
REMARK                            x       y       z     vdW  Elec       q    Type
REMARK                         _______ _______ _______ _____ _____    ______ ____
ROOT
ATOM      1  C   UNK A  0        0.041  -3.294  -1.522  0.00  0.00    +0.590 C 
ATOM      2  N   SER A  1        0.061  -4.521  -0.965  0.00  0.00    -0.690 N 
ATOM      3  H   SER A  1        0.066  -4.615   0.001  0.00  0.00    +0.400 HD
ATOM      4  O   UNK A  0        0.034  -3.176  -2.732  0.00  0.00    -0.560 OA
ENDROOT
BRANCH   1   8
ATOM      5  C   UNK A  0       -0.018   1.461   0.010  0.00  0.00    +0.360 C 
ATOM      6  N   UNK A  0        0.002  -0.004   0.002  0.00  0.00    -0.370 N 
ATOM      7  C   UNK A  0        0.008  -0.782  -1.092  0.00  0.00    +0.310 A 
ATOM      8  C   UNK A  0        0.028  -2.095  -0.665  0.00  0.00    -0.270 A 
ATOM      9  C   UNK A  0        0.034  -2.074   0.748  0.00  0.00    +0.270 A 
ATOM     10  N   UNK A  0        0.025  -0.828   1.133  0.00  0.00    -0.310 NA
ENDBRANCH   1   8
BRANCH   2  11
ATOM     11  CA  SER A  1        0.074  -5.713  -1.817  0.00  0.00    +0.160 C 
BRANCH  11  12
ATOM     12  C   SER A  1       -1.339  -6.069  -2.203  0.00  0.00    +0.500 C 
ATOM     13  OXT SER A  1       -2.261  -5.808  -1.451  0.00  0.00    -0.680 OA
ATOM     14  O   SER A  1       -1.558  -6.620  -3.269  0.00  0.00    -0.700 OA
ENDBRANCH  11  12
BRANCH  11  15
ATOM     15  CB  SER A  1        0.703  -6.879  -1.053  0.00  0.00    +0.190 C 
BRANCH  15  16
ATOM     16  OG  SER A  1       -0.124  -7.220   0.062  0.00  0.00    -0.550 OA
ATOM     17  H   SER A  1        0.214  -7.954   0.593  0.00  0.00    +0.360 HD
ENDBRANCH  15  16
ENDBRANCH  11  15
ENDBRANCH   2  11
TORSDOF 5
ENDMDL
MODEL      142
REMARK  Name = ZINC000100637957
REMARK                            x       y       z     vdW  Elec       q    Type
REMARK                         _______ _______ _______ _____ _____    ______ ____
ROOT
ATOM      1  O   LIG    1        0.002  -0.004   0.002  0.00  0.00    -0.540 OA
ATOM      2  C   LIG    1       -0.014   1.212   0.009  0.00  0.00    +0.470 C 
ATOM      3  O   LIG    1       -1.128   1.970   0.029  0.00  0.00    -0.310 OA
ATOM      4  C   LIG    1       -0.734   3.345   0.031  0.00  0.00    +0.150 C 
ATOM      5  C   LIG    1        0.777   3.354   0.009  0.00  0.00    +0.250 C 
ATOM      6  O   LIG    1        1.578   4.442   0.004  0.00  0.00    -0.640 OA
ATOM      7  C   LIG    1        1.169   2.065   0.002  0.00  0.00    -0.330 C 
ENDROOT
BRANCH   7   8
ATOM      8  O   LIG    1        2.460   1.629  -0.017  0.00  0.00    -0.460 OA
ATOM      9  H   LIG    1        2.550   0.666  -0.019  0.00  0.00    +0.360 HD
ENDBRANCH   7   8
BRANCH   4  10
ATOM     10  C   LIG    1       -1.283   4.051  -1.210  0.00  0.00    +0.190 C 
BRANCH  10  11
ATOM     11  O   LIG    1       -0.854   5.414  -1.212  0.00  0.00    -0.530 OA
ATOM     12  H   LIG    1       -1.148   5.920  -0.443  0.00  0.00    +0.370 HD
ENDBRANCH  10  11
BRANCH  10  13
ATOM     13  C   LIG    1       -2.812   3.998  -1.193  0.00  0.00    +0.180 C 
BRANCH  13  14
ATOM     14  O   LIG    1       -3.241   2.635  -1.191  0.00  0.00    -0.530 OA
ATOM     15  H   LIG    1       -2.946   2.128  -1.961  0.00  0.00    +0.370 HD
ENDBRANCH  13  14
BRANCH  13  16
ATOM     16  C   LIG    1       -3.361   4.703  -2.435  0.00  0.00    +0.160 C 
BRANCH  16  17
ATOM     17  O   LIG    1       -4.787   4.756  -2.361  0.00  0.00    -0.570 OA
ATOM     18  H   LIG    1       -5.204   5.191  -3.117  0.00  0.00    +0.370 HD
ENDBRANCH  16  17
ENDBRANCH  13  16
ENDBRANCH  10  13
ENDBRANCH   4  10
TORSDOF 7
ENDMDL
MODEL      143
REMARK  Name = ZINC000100637955
REMARK                            x       y       z     vdW  Elec       q    Type
REMARK                         _______ _______ _______ _____ _____    ______ ____
ROOT
ATOM      1  O   LIG    1        0.002  -0.004   0.002  0.00  0.00    -0.540 OA
ATOM      2  C   LIG    1       -0.014   1.212   0.009  0.00  0.00    +0.470 C 
ATOM      3  O   LIG    1       -1.128   1.970   0.029  0.00  0.00    -0.310 OA
ATOM      4  C   LIG    1       -0.734   3.345   0.031  0.00  0.00    +0.150 C 
ATOM      5  C   LIG    1        0.777   3.354   0.009  0.00  0.00    +0.260 C 
ATOM      6  O   LIG    1        1.578   4.442   0.004  0.00  0.00    -0.650 OA
ATOM      7  C   LIG    1        1.169   2.065   0.002  0.00  0.00    -0.320 C 
ENDROOT
BRANCH   7   8
ATOM      8  O   LIG    1        2.460   1.629  -0.017  0.00  0.00    -0.460 OA
ATOM      9  H   LIG    1        2.550   0.666  -0.019  0.00  0.00    +0.360 HD
ENDBRANCH   7   8
BRANCH   4  10
ATOM     10  C   LIG    1       -1.283   4.051  -1.210  0.00  0.00    +0.220 C 
BRANCH  10  11
ATOM     11  O   LIG    1       -0.706   3.471  -2.382  0.00  0.00    -0.540 OA
ATOM     12  H   LIG    1       -0.889   2.527  -2.485  0.00  0.00    +0.370 HD
ENDBRANCH  10  11
BRANCH  10  13
ATOM     13  C   LIG    1       -2.804   3.890  -1.258  0.00  0.00    +0.190 C 
BRANCH  13  14
ATOM     14  O   LIG    1       -3.138   2.502  -1.197  0.00  0.00    -0.530 OA
ATOM     15  H   LIG    1       -2.772   1.977  -1.922  0.00  0.00    +0.370 HD
ENDBRANCH  13  14
BRANCH  13  16
ATOM     16  C   LIG    1       -3.339   4.487  -2.561  0.00  0.00    +0.160 C 
BRANCH  16  17
ATOM     17  O   LIG    1       -4.767   4.442  -2.554  0.00  0.00    -0.570 OA
ATOM     18  H   LIG    1       -5.176   4.805  -3.352  0.00  0.00    +0.370 HD
ENDBRANCH  16  17
ENDBRANCH  13  16
ENDBRANCH  10  13
ENDBRANCH   4  10
TORSDOF 7
ENDMDL
MODEL      144
REMARK  Name = ZINC000100637956
REMARK                            x       y       z     vdW  Elec       q    Type
REMARK                         _______ _______ _______ _____ _____    ______ ____
ROOT
ATOM      1  O   LIG    1        0.002  -0.004   0.002  0.00  0.00    -0.540 OA
ATOM      2  C   LIG    1       -0.014   1.212   0.009  0.00  0.00    +0.480 C 
ATOM      3  O   LIG    1       -1.128   1.970   0.029  0.00  0.00    -0.330 OA
ATOM      4  C   LIG    1       -0.734   3.345   0.031  0.00  0.00    +0.160 C 
ATOM      5  C   LIG    1        0.777   3.354   0.009  0.00  0.00    +0.250 C 
ATOM      6  O   LIG    1        1.578   4.442   0.004  0.00  0.00    -0.640 OA
ATOM      7  C   LIG    1        1.169   2.065   0.002  0.00  0.00    -0.330 C 
ENDROOT
BRANCH   7   8
ATOM      8  O   LIG    1        2.460   1.629  -0.017  0.00  0.00    -0.460 OA
ATOM      9  H   LIG    1        2.550   0.666  -0.019  0.00  0.00    +0.360 HD
ENDBRANCH   7   8
BRANCH   4  10
ATOM     10  C   LIG    1       -1.283   4.051  -1.210  0.00  0.00    +0.200 C 
BRANCH  10  11
ATOM     11  O   LIG    1       -0.854   5.414  -1.212  0.00  0.00    -0.530 OA
ATOM     12  H   LIG    1       -1.148   5.920  -0.443  0.00  0.00    +0.370 HD
ENDBRANCH  10  11
BRANCH  10  13
ATOM     13  C   LIG    1       -2.812   3.998  -1.193  0.00  0.00    +0.200 C 
BRANCH  13  14
ATOM     14  O   LIG    1       -3.294   4.548   0.035  0.00  0.00    -0.540 OA
ATOM     15  H   LIG    1       -3.039   5.469   0.180  0.00  0.00    +0.370 HD
ENDBRANCH  13  14
BRANCH  13  16
ATOM     16  C   LIG    1       -3.364   4.809  -2.367  0.00  0.00    +0.170 C 
BRANCH  16  17
ATOM     17  O   LIG    1       -4.784   4.665  -2.420  0.00  0.00    -0.570 OA
ATOM     18  H   LIG    1       -5.203   5.153  -3.142  0.00  0.00    +0.380 HD
ENDBRANCH  16  17
ENDBRANCH  13  16
ENDBRANCH  10  13
ENDBRANCH   4  10
TORSDOF 7
ENDMDL
MODEL      145
REMARK  Name = ZINC000100683556
REMARK                            x       y       z     vdW  Elec       q    Type
REMARK                         _______ _______ _______ _____ _____    ______ ____
ROOT
ATOM      1  C   LIG    1       -0.161  -3.443  -1.395  0.00  0.00    +0.260 C 
ATOM      2  C   LIG    1       -1.399  -3.473  -2.295  0.00  0.00    +0.180 C 
ATOM      3  N   LIG    1       -1.249  -4.544  -3.291  0.00  0.00    -0.520 NA
ATOM      4  C   LIG    1       -1.073  -5.846  -2.632  0.00  0.00    +0.140 C 
ATOM      5  C   LIG    1        0.162  -5.792  -1.729  0.00  0.00    +0.220 C 
ATOM      6  O   LIG    1        0.013  -4.726  -0.788  0.00  0.00    -0.370 OA
ENDROOT
BRANCH   1  10
ATOM      7  C   LIG    1       -0.879   0.992   0.947  0.00  0.00    +0.290 C 
ATOM      8  N   LIG    1       -0.661  -0.438   0.715  0.00  0.00    -0.460 N 
ATOM      9  N   LIG    1       -0.537  -1.064  -0.533  0.00  0.00    -0.420 NA
ATOM     10  C   LIG    1       -0.344  -2.399  -0.323  0.00  0.00    +0.090 A 
ATOM     11  C   LIG    1       -0.342  -2.626   1.006  0.00  0.00    -0.340 A 
ATOM     12  C   LIG    1       -0.537  -1.389   1.663  0.00  0.00    +0.470 A 
ATOM     13  O   LIG    1       -0.591  -1.214   2.867  0.00  0.00    -0.660 OA
ENDBRANCH   1  10
BRANCH   3  14
ATOM     14  C   LIG    1       -2.393  -4.571  -4.212  0.00  0.00    +0.200 C 
BRANCH  14  15
ATOM     15  C   LIG    1       -2.397  -3.314  -5.044  0.00  0.00    +0.510 C 
ATOM     16  O   LIG    1       -1.472  -2.533  -4.968  0.00  0.00    -0.510 OA
ATOM     17  N   LIG    1       -3.428  -3.059  -5.874  0.00  0.00    -0.860 N 
ATOM     18  H   LIG    1       -3.431  -2.250  -6.409  0.00  0.00    +0.400 HD
ATOM     19  H   LIG    1       -4.168  -3.683  -5.935  0.00  0.00    +0.400 HD
ENDBRANCH  14  15
ENDBRANCH   3  14
TORSDOF 3
ENDMDL
MODEL      146
REMARK  Name = ZINC000100683559
REMARK                            x       y       z     vdW  Elec       q    Type
REMARK                         _______ _______ _______ _____ _____    ______ ____
ROOT
ATOM      1  C   LIG    1        0.042  -3.337  -1.617  0.00  0.00    +0.260 C 
ATOM      2  C   LIG    1       -1.267  -3.401  -2.407  0.00  0.00    +0.180 C 
ATOM      3  N   LIG    1       -1.216  -4.540  -3.337  0.00  0.00    -0.520 NA
ATOM      4  C   LIG    1       -0.077  -4.410  -4.257  0.00  0.00    +0.150 C 
ATOM      5  C   LIG    1        1.220  -4.335  -3.448  0.00  0.00    +0.210 C 
ATOM      6  O   LIG    1        1.140  -3.243  -2.528  0.00  0.00    -0.370 OA
ENDROOT
BRANCH   1  10
ATOM      7  C   LIG    1       -0.018   1.461   0.010  0.00  0.00    +0.290 C 
ATOM      8  N   LIG    1        0.002  -0.004   0.002  0.00  0.00    -0.460 N 
ATOM      9  N   LIG    1        0.009  -0.825  -1.134  0.00  0.00    -0.410 NA
ATOM     10  C   LIG    1        0.029  -2.126  -0.719  0.00  0.00    +0.090 A 
ATOM     11  C   LIG    1        0.035  -2.144   0.629  0.00  0.00    -0.360 A 
ATOM     12  C   LIG    1        0.023  -0.806   1.086  0.00  0.00    +0.470 A 
ATOM     13  O   LIG    1        0.025  -0.443   2.249  0.00  0.00    -0.660 OA
ENDBRANCH   1  10
BRANCH   3  14
ATOM     14  C   LIG    1       -2.479  -4.672  -4.076  0.00  0.00    +0.200 C 
BRANCH  14  15
ATOM     15  C   LIG    1       -2.485  -5.977  -4.830  0.00  0.00    +0.520 C 
ATOM     16  O   LIG    1       -1.532  -6.724  -4.757  0.00  0.00    -0.520 OA
ATOM     17  N   LIG    1       -3.550  -6.315  -5.583  0.00  0.00    -0.860 N 
ATOM     18  H   LIG    1       -3.554  -7.155  -6.068  0.00  0.00    +0.400 HD
ATOM     19  H   LIG    1       -4.312  -5.718  -5.641  0.00  0.00    +0.400 HD
ENDBRANCH  14  15
ENDBRANCH   3  14
TORSDOF 3
ENDMDL
MODEL      147
REMARK  Name = ZINC000090513886
REMARK                            x       y       z     vdW  Elec       q    Type
REMARK                         _______ _______ _______ _____ _____    ______ ____
ROOT
ATOM      1  C   LIG    1        1.385  -2.521  -2.400  0.00  0.00    +0.080 C 
ENDROOT
BRANCH   1   2
ATOM      2  C   LIG    1        0.713  -1.884  -3.589  0.00  0.00    +0.520 C 
ATOM      3  O   LIG    1       -0.459  -2.120  -3.826  0.00  0.00    -0.680 OA
ATOM      4  O   LIG    1        1.342  -1.132  -4.314  0.00  0.00    -0.630 OA
ENDBRANCH   1   2
BRANCH   1   5
ATOM      5  C   LIG    1        1.337  -4.020  -2.539  0.00  0.00    +0.460 C 
ATOM      6  O   LIG    1        0.450  -4.648  -2.010  0.00  0.00    -0.510 OA
BRANCH   5   7
ATOM      7  O   LIG    1        2.279  -4.659  -3.250  0.00  0.00    -0.340 OA
ATOM      8  C   LIG    1        2.170  -6.104  -3.341  0.00  0.00    +0.250 C 
ENDBRANCH   5   7
ENDBRANCH   1   5
BRANCH   1   9
ATOM      9  O   LIG    1        2.746  -2.091  -2.335  0.00  0.00    -0.500 OA
ATOM     10  H   LIG    1        3.241  -2.463  -1.592  0.00  0.00    +0.350 HD
ENDBRANCH   1   9
BRANCH   1  11
ATOM     11  C   LIG    1        0.657  -2.104  -1.120  0.00  0.00    +0.120 C 
BRANCH  11  12
ATOM     12  C   LIG    1        0.598  -0.600  -1.043  0.00  0.00    +0.450 C 
ATOM     13  O   LIG    1        1.088   0.070  -1.921  0.00  0.00    -0.450 OA
BRANCH  12  15
ATOM     14  C   LIG    1       -0.018   1.448   0.010  0.00  0.00    +0.250 C 
ATOM     15  O   LIG    1        0.002  -0.004   0.002  0.00  0.00    -0.370 OA
ENDBRANCH  12  15
ENDBRANCH  11  12
ENDBRANCH   1  11
TORSDOF 7
ENDMDL
MODEL      148
REMARK  Name = ZINC000205705920
REMARK                            x       y       z     vdW  Elec       q    Type
REMARK                         _______ _______ _______ _____ _____    ______ ____
ROOT
ATOM      1  N   LIG    1        0.796  -0.399  -1.397  0.00  0.00    -0.990 NA
ATOM      2  C   LIG    1        0.067  -0.578  -2.622  0.00  0.00    +0.250 C 
ATOM      3  C   LIG    1       -0.383  -2.024  -2.923  0.00  0.00    +0.190 C 
ATOM      4  O   LIG    1        0.668  -2.968  -2.594  0.00  0.00    -0.390 OA
ATOM      5  C   LIG    1        1.962  -2.549  -2.911  0.00  0.00    +0.230 C 
ATOM      6  C   LIG    1        2.559  -2.001  -1.617  0.00  0.00    -0.130 C 
ATOM      7  C   LIG    1        2.286  -0.568  -1.402  0.00  0.00    +0.320 C 
ENDROOT
BRANCH   1   9
ATOM      8  C   LIG    1       -0.022   1.810   0.012  0.00  0.00    -0.310 C 
ATOM      9  S   LIG    1        0.002  -0.004   0.002  0.00  0.00    +2.610 S 
ATOM     10  O   LIG    1       -1.309  -0.519  -0.182  0.00  0.00    -0.960 OA
ATOM     11  O   LIG    1        0.845  -0.497   1.035  0.00  0.00    -0.940 OA
ENDBRANCH   1   9
BRANCH   6  12
ATOM     12  C   LIG    1        4.052  -2.202  -1.652  0.00  0.00    +0.500 C 
ATOM     13  O   LIG    1        4.739  -1.836  -0.713  0.00  0.00    -0.690 OA
ATOM     14  O   LIG    1        4.574  -2.732  -2.619  0.00  0.00    -0.690 OA
ENDBRANCH   6  12
TORSDOF 2
ENDMDL
MODEL      149
REMARK  Name = ZINC000205705899
REMARK                            x       y       z     vdW  Elec       q    Type
REMARK                         _______ _______ _______ _____ _____    ______ ____
ROOT
ATOM      1  N   LIG    1        0.796  -0.399  -1.397  0.00  0.00    -0.990 NA
ATOM      2  C   LIG    1        0.002  -0.574  -2.635  0.00  0.00    +0.250 C 
ATOM      3  C   LIG    1        0.726   0.061  -3.841  0.00  0.00    +0.200 C 
ATOM      4  O   LIG    1        1.326   1.272  -3.455  0.00  0.00    -0.380 OA
ATOM      5  C   LIG    1        2.698   1.138  -3.094  0.00  0.00    +0.220 C 
ATOM      6  C   LIG    1        2.907   0.800  -1.671  0.00  0.00    -0.140 C 
ATOM      7  C   LIG    1        2.232  -0.552  -1.355  0.00  0.00    +0.320 C 
ENDROOT
BRANCH   1   9
ATOM      8  C   LIG    1       -0.022   1.810   0.012  0.00  0.00    -0.290 C 
ATOM      9  S   LIG    1        0.002  -0.004   0.002  0.00  0.00    +2.600 S 
ATOM     10  O   LIG    1       -1.309  -0.519  -0.182  0.00  0.00    -0.970 OA
ATOM     11  O   LIG    1        0.845  -0.497   1.035  0.00  0.00    -0.950 OA
ENDBRANCH   1   9
BRANCH   6  12
ATOM     12  C   LIG    1        4.384   0.702  -1.390  0.00  0.00    +0.500 C 
ATOM     13  O   LIG    1        4.859  -0.344  -0.981  0.00  0.00    -0.690 OA
ATOM     14  O   LIG    1        5.105   1.668  -1.572  0.00  0.00    -0.690 OA
ENDBRANCH   6  12
TORSDOF 2
ENDMDL
MODEL      150
REMARK  Name = ZINC000005631691
REMARK                            x       y       z     vdW  Elec       q    Type
REMARK                         _______ _______ _______ _____ _____    ______ ____
ROOT
ATOM      1  CA  GLN A  1        0.047  -4.545  -1.809  0.00  0.00    +0.160 C 
ENDROOT
BRANCH   1   3
ATOM      2  C   UNK A  0        0.023  -2.233  -1.040  0.00  0.00    +0.510 C 
ATOM      3  N   GLN A  1        0.025  -3.104  -2.069  0.00  0.00    -0.700 N 
ATOM      4  H   GLN A  1        0.011  -2.775  -2.982  0.00  0.00    +0.390 HD
ATOM      5  O   UNK A  0        0.039  -2.644   0.101  0.00  0.00    -0.520 OA
BRANCH   2   6
ATOM      6  C   UNK A  0       -0.000  -0.750  -1.307  0.00  0.00    +0.050 C 
BRANCH   6   8
ATOM      7  C   UNK A  0       -0.018   1.503   0.010  0.00  0.00    +0.050 C 
ATOM      8  C   UNK A  0        0.002  -0.004   0.002  0.00  0.00    +0.340 C 
ATOM      9  O   UNK A  0        0.020  -0.613   1.044  0.00  0.00    -0.410 OA
ENDBRANCH   6   8
ENDBRANCH   2   6
ENDBRANCH   1   3
BRANCH   1  10
ATOM     10  C   GLN A  1       -1.360  -5.037  -1.585  0.00  0.00    +0.490 C 
ATOM     11  OXT GLN A  1       -1.552  -6.168  -1.174  0.00  0.00    -0.700 OA
ATOM     12  O   GLN A  1       -2.306  -4.303  -1.815  0.00  0.00    -0.690 OA
ENDBRANCH   1  10
BRANCH   1  13
ATOM     13  CB  GLN A  1        0.655  -5.271  -3.011  0.00  0.00    +0.070 C 
BRANCH  13  14
ATOM     14  CG  GLN A  1        2.122  -4.864  -3.163  0.00  0.00    +0.040 C 
BRANCH  14  15
ATOM     15  CD  GLN A  1        2.721  -5.579  -4.347  0.00  0.00    +0.510 C 
ATOM     16  OE1 GLN A  1        2.042  -6.339  -5.005  0.00  0.00    -0.540 OA
ATOM     17  NE2 GLN A  1        4.012  -5.374  -4.676  0.00  0.00    -0.860 N 
ATOM     18 HE21 GLN A  1        4.398  -5.834  -5.438  0.00  0.00    +0.400 HD
ATOM     19 HE22 GLN A  1        4.556  -4.766  -4.150  0.00  0.00    +0.400 HD
ENDBRANCH  14  15
ENDBRANCH  13  14
ENDBRANCH   1  13
TORSDOF 7
ENDMDL
MODEL      151
REMARK  Name = ZINC000064573062
REMARK                            x       y       z     vdW  Elec       q    Type
REMARK                         _______ _______ _______ _____ _____    ______ ____
ROOT
ATOM      1  C   LIG    1        0.041   0.972   2.456  0.00  0.00    +0.360 C 
ENDROOT
BRANCH   1   2
ATOM      2  N   LIG    1       -0.042  -0.490   2.510  0.00  0.00    -0.400 N 
ATOM      3  C   LIG    1        0.992  -1.349   2.599  0.00  0.00    +0.240 A 
ATOM      4  C   LIG    1        0.451  -2.617   2.622  0.00  0.00    -0.080 A 
ATOM      5  N   LIG    1       -0.887  -2.505   2.547  0.00  0.00    -0.190 NA
ATOM      6  N   LIG    1       -1.213  -1.261   2.486  0.00  0.00    -0.110 NA
BRANCH   4   7
ATOM      7  C   LIG    1        1.208  -3.875   2.713  0.00  0.00    +0.560 C 
ATOM      8  O   LIG    1        0.616  -4.946   2.725  0.00  0.00    -0.660 OA
ATOM      9  O   LIG    1        2.430  -3.851   2.777  0.00  0.00    -0.680 OA
ENDBRANCH   4   7
ENDBRANCH   1   2
BRANCH   1  10
ATOM     10  CA  LIG    1       -0.699   1.479   1.216  0.00  0.00    +0.090 C 
BRANCH  10  11
ATOM     11  N   LIG    1       -0.012   1.005   0.008  0.00  0.00    -0.610 N 
ATOM     12  H1  LIG    1       -0.500   1.339  -0.810  0.00  0.00    +0.440 HD
ATOM     13  H2  LIG    1        0.935   1.354   0.000  0.00  0.00    +0.430 HD
ATOM     14  H3  LIG    1        0.002  -0.004   0.002  0.00  0.00    +0.420 HD
ENDBRANCH  10  11
BRANCH  10  15
ATOM     15  C   LIG    1       -0.720   2.985   1.224  0.00  0.00    +0.500 C 
ATOM     16  OXT LIG    1       -1.247   3.583   2.147  0.00  0.00    -0.630 OA
ATOM     17  O   LIG    1       -0.209   3.607   0.308  0.00  0.00    -0.670 OA
ENDBRANCH  10  15
ENDBRANCH   1  10
TORSDOF 5
ENDMDL
MODEL      152
REMARK  Name = ZINC000008615468
REMARK                            x       y       z     vdW  Elec       q    Type
REMARK                         _______ _______ _______ _____ _____    ______ ____
ROOT
ATOM      1  C   LIG    1        0.018  -0.004   0.012  0.00  0.00    +0.600 A 
ATOM      2  N   LIG    1       -1.123  -0.658   0.018  0.00  0.00    -0.700 NA
ATOM      3  C   LIG    1       -1.156  -1.996   0.009  0.00  0.00    +0.460 A 
ATOM      4  C   LIG    1        0.035  -2.714  -0.010  0.00  0.00    -0.240 A 
ATOM      5  C   LIG    1        1.246  -2.007  -0.017  0.00  0.00    +0.540 A 
ATOM      6  O   LIG    1        2.313  -2.601  -0.033  0.00  0.00    -0.610 OA
ATOM      7  N   LIG    1        1.212  -0.658  -0.012  0.00  0.00    -0.710 NA
ENDROOT
BRANCH   4   8
ATOM      8  N   LIG    1        0.025  -4.123  -0.021  0.00  0.00    -0.640 N 
ATOM      9  H   LIG    1       -0.397  -4.611   0.704  0.00  0.00    +0.380 HD
ATOM     10  C   LIG    1        0.602  -4.793  -1.038  0.00  0.00    +0.590 C 
ATOM     11  O   LIG    1        1.204  -4.186  -1.900  0.00  0.00    -0.540 OA
ENDBRANCH   4   8
BRANCH   1  12
ATOM     12  N   LIG    1        0.005   1.367   0.022  0.00  0.00    -0.840 N 
ATOM     13  H   LIG    1       -0.839   1.844   0.035  0.00  0.00    +0.400 HD
ATOM     14  H   LIG    1        0.841   1.860   0.013  0.00  0.00    +0.400 HD
ENDBRANCH   1  12
BRANCH   3  15
ATOM     15  N   LIG    1       -2.368  -2.662   0.016  0.00  0.00    -0.730 N 
ATOM     16  H   LIG    1       -2.389  -3.631   0.008  0.00  0.00    +0.400 HD
BRANCH  15  17
ATOM     17  C   LIG    1       -3.620  -1.902   0.034  0.00  0.00    +0.270 C 
BRANCH  17  18
ATOM     18  C   LIG    1       -4.805  -2.870   0.039  0.00  0.00    +0.160 C 
BRANCH  18  19
ATOM     19  O   LIG    1       -4.800  -3.622   1.254  0.00  0.00    -0.570 OA
ATOM     20  H   LIG    1       -5.525  -4.258   1.326  0.00  0.00    +0.370 HD
ENDBRANCH  18  19
ENDBRANCH  17  18
ENDBRANCH  15  17
ENDBRANCH   3  15
TORSDOF 6
ENDMDL
MODEL      153
REMARK  Name = ZINC000004983793
REMARK                            x       y       z     vdW  Elec       q    Type
REMARK                         _______ _______ _______ _____ _____    ______ ____
ROOT
ATOM      1  C   LIG    1        0.002  -0.004   0.002  0.00  0.00    +0.460 C 
ATOM      2  C   LIG    1       -1.191  -0.729   0.004  0.00  0.00    -0.060 C 
ATOM      3  C   LIG    1       -1.125  -2.108  -0.004  0.00  0.00    -0.290 C 
ATOM      4  N   LIG    1        0.061  -2.700  -0.013  0.00  0.00    -0.470 NA
ATOM      5  C   LIG    1        1.178  -1.987  -0.014  0.00  0.00    +0.580 C 
ATOM      6  N   LIG    1        1.157  -0.663  -0.013  0.00  0.00    -0.250 NA
ATOM      7  O   LIG    1        2.375   0.058  -0.015  0.00  0.00    -0.600 OA
ENDROOT
BRANCH   3   8
ATOM      8  S   LIG    1       -2.600  -3.071  -0.003  0.00  0.00    +2.690 S 
ATOM      9  O   LIG    1       -3.608  -2.294   0.702  0.00  0.00    -1.040 OA
ATOM     10  O   LIG    1       -2.289  -4.314   0.685  0.00  0.00    -1.030 OA
ATOM     11  O   LIG    1       -2.958  -3.293  -1.395  0.00  0.00    -1.040 OA
ENDBRANCH   3   8
BRANCH   1  12
ATOM     12  N   LIG    1       -0.017   1.384   0.010  0.00  0.00    -0.820 NA
ATOM     13  H   LIG    1       -0.863   1.857   0.016  0.00  0.00    +0.420 HD
ATOM     14  H   LIG    1        0.817   1.880   0.004  0.00  0.00    +0.420 HD
ENDBRANCH   1  12
BRANCH   5  15
ATOM     15  N   LIG    1        2.398  -2.644  -0.024  0.00  0.00    -0.810 NA
ATOM     16  H   LIG    1        3.224  -2.134  -0.025  0.00  0.00    +0.420 HD
ATOM     17  H   LIG    1        2.428  -3.613  -0.029  0.00  0.00    +0.420 HD
ENDBRANCH   5  15
TORSDOF 3
ENDMDL
MODEL      154
REMARK  Name = ZINC000001576202
REMARK                            x       y       z     vdW  Elec       q    Type
REMARK                         _______ _______ _______ _____ _____    ______ ____
ROOT
ATOM      1  C   LIG    1       -0.720   3.008   1.225  0.00  0.00    +0.100 C 
ENDROOT
BRANCH   1   2
ATOM      2  CA  LIG    1       -0.699   1.479   1.216  0.00  0.00    +0.080 C 
BRANCH   2   3
ATOM      3  N   LIG    1       -0.012   1.005   0.008  0.00  0.00    -0.610 N 
ATOM      4  H1  LIG    1       -0.500   1.339  -0.810  0.00  0.00    +0.430 HD
ATOM      5  H2  LIG    1        0.935   1.354   0.000  0.00  0.00    +0.410 HD
ATOM      6  H3  LIG    1        0.002  -0.004   0.002  0.00  0.00    +0.430 HD
ENDBRANCH   2   3
BRANCH   2   7
ATOM      7  C   LIG    1       -2.113   0.957   1.227  0.00  0.00    +0.490 C 
ATOM      8  OXT LIG    1       -2.569   0.412   0.236  0.00  0.00    -0.680 OA
ATOM      9  O   LIG    1       -2.800   1.079   2.226  0.00  0.00    -0.640 OA
ENDBRANCH   2   7
ENDBRANCH   1   2
BRANCH   1  10
ATOM     10  C   LIG    1        0.711   3.537   1.339  0.00  0.00    +0.030 C 
BRANCH  10  11
ATOM     11  C   LIG    1        0.691   5.044   1.348  0.00  0.00    +0.500 C 
ATOM     12  N   LIG    1        1.845   5.733   1.442  0.00  0.00    -0.700 N 
ATOM     13  H   LIG    1        2.689   5.259   1.505  0.00  0.00    +0.410 HD
ATOM     14  O   LIG    1       -0.365   5.637   1.270  0.00  0.00    -0.550 OA
BRANCH  12  15
ATOM     15  C   LIG    1        1.825   7.198   1.450  0.00  0.00    +0.190 C 
BRANCH  15  16
ATOM     16  C   LIG    1        3.235   7.719   1.563  0.00  0.00    +0.490 C 
ATOM     17  O   LIG    1        3.441   8.920   1.587  0.00  0.00    -0.690 OA
ATOM     18  O   LIG    1        4.169   6.939   1.631  0.00  0.00    -0.690 OA
ENDBRANCH  15  16
ENDBRANCH  12  15
ENDBRANCH  10  11
ENDBRANCH   1  10
TORSDOF 7
ENDMDL
MODEL      155
REMARK  Name = ZINC000001638486
REMARK                            x       y       z     vdW  Elec       q    Type
REMARK                         _______ _______ _______ _____ _____    ______ ____
ROOT
ATOM      1  C   LIG    1       -0.019   1.526   0.010  0.00  0.00    +0.070 C 
ATOM      2  C   LIG    1        0.002  -0.004   0.002  0.00  0.00    +0.020 C 
ATOM      3  C   LIG    1        0.667  -0.694  -1.191  0.00  0.00    -0.220 C 
ATOM      4  C   LIG    1        1.610   0.110  -2.059  0.00  0.00    +0.570 C 
ATOM      5  N   LIG    1        2.655   0.508  -1.324  0.00  0.00    -0.680 N 
ATOM      6  H   LIG    1        3.381   1.038  -1.687  0.00  0.00    +0.410 HD
ATOM      7  C   LIG    1        2.616   0.113  -0.045  0.00  0.00    +0.560 C 
ATOM      8  O   LIG    1        3.456   0.361   0.792  0.00  0.00    -0.450 OA
ATOM      9  O   LIG    1        1.444   0.356  -3.235  0.00  0.00    -0.480 OA
ATOM     10  C   LIG    1       -1.224  -0.683   0.615  0.00  0.00    +0.110 C 
ATOM     11  C   LIG    1        1.356  -0.692   0.189  0.00  0.00    -0.190 C 
ENDROOT
BRANCH   3  12
ATOM     12  C   LIG    1        0.044  -1.934  -1.779  0.00  0.00    +0.600 C 
ATOM     13  O   LIG    1       -0.979  -2.381  -1.306  0.00  0.00    -0.500 OA
ATOM     14  N   LIG    1        0.625  -2.546  -2.830  0.00  0.00    -0.850 N 
ATOM     15  H   LIG    1        0.224  -3.345  -3.208  0.00  0.00    +0.400 HD
ATOM     16  H   LIG    1        1.443  -2.188  -3.208  0.00  0.00    +0.390 HD
ENDBRANCH   3  12
BRANCH  11  17
ATOM     17  C   LIG    1        1.457  -1.918   1.059  0.00  0.00    +0.540 C 
ATOM     18  O   LIG    1        0.768  -2.895   0.819  0.00  0.00    -0.650 OA
ATOM     19  O   LIG    1        2.228  -1.933   2.004  0.00  0.00    -0.660 OA
ENDBRANCH  11  17
TORSDOF 2
ENDMDL
MODEL      156
REMARK  Name = ZINC000001631157
REMARK                            x       y       z     vdW  Elec       q    Type
REMARK                         _______ _______ _______ _____ _____    ______ ____
ROOT
ATOM      1  C   LIG    1       -0.018   1.459   0.010  0.00  0.00    +0.320 C 
ATOM      2  N   LIG    1        0.002  -0.004   0.002  0.00  0.00    -0.530 N 
ATOM      3  C   LIG    1       -0.010  -0.597  -1.216  0.00  0.00    +0.700 A 
ATOM      4  N   LIG    1       -0.363  -1.884  -1.360  0.00  0.00    -0.660 N 
ATOM      5  H   LIG    1       -0.395  -2.284  -2.241  0.00  0.00    +0.430 HD
ATOM      6  C   LIG    1       -0.676  -2.618  -0.275  0.00  0.00    +0.570 A 
ATOM      7  C   LIG    1       -0.421  -2.086   1.012  0.00  0.00    +0.010 A 
ATOM      8  N   LIG    1       -0.671  -2.877   2.131  0.00  0.00    -0.600 NA
ATOM      9  C   LIG    1       -0.510  -2.358   3.366  0.00  0.00    +0.450 A 
ATOM     10  O   LIG    1       -0.833  -2.985   4.354  0.00  0.00    -0.550 OA
ATOM     11  C   LIG    1        0.064  -0.989   3.480  0.00  0.00    +0.450 A 
ATOM     12  O   LIG    1        0.186  -0.453   4.559  0.00  0.00    -0.520 OA
ATOM     13  N   LIG    1        0.487  -0.362   2.351  0.00  0.00    -0.520 N 
ATOM     14  C   LIG    1        1.461   0.714   2.538  0.00  0.00    +0.280 C 
ATOM     15  O   LIG    1       -1.152  -3.732  -0.398  0.00  0.00    -0.490 OA
ATOM     16  O   LIG    1        0.258   0.066  -2.196  0.00  0.00    -0.560 OA
ATOM     17  C   LIG    1        0.023  -0.777   1.135  0.00  0.00    +0.220 A 
ENDROOT
TORSDOF 0
ENDMDL
MODEL      157
REMARK  Name = ZINC000001641165
REMARK                            x       y       z     vdW  Elec       q    Type
REMARK                         _______ _______ _______ _____ _____    ______ ____
ROOT
ATOM      1  C   LIG    1       -1.330   1.951   0.019  0.00  0.00    +0.140 C 
ATOM      2  O   LIG    1       -1.092   3.358  -0.088  0.00  0.00    -0.380 OA
ATOM      3  C   LIG    1       -0.335   3.897   0.999  0.00  0.00    +0.400 C 
ATOM      4  O   LIG    1       -1.026   3.654   2.226  0.00  0.00    -0.390 OA
ATOM      5  C   LIG    1       -1.265   2.270   2.493  0.00  0.00    +0.120 C 
ATOM      6  C   LIG    1       -2.067   2.135   3.791  0.00  0.00    +0.180 C 
ATOM      7  O   LIG    1       -3.359   2.722   3.604  0.00  0.00    -0.380 OA
ATOM      8  C   LIG    1       -4.105   2.140   2.532  0.00  0.00    +0.390 C 
ATOM      9  O   LIG    1       -3.372   2.281   1.312  0.00  0.00    -0.380 OA
ATOM     10  C   LIG    1       -2.067   1.665   1.331  0.00  0.00    +0.130 C 
ENDROOT
BRANCH   1  12
ATOM     11  O   LIG    1        0.002  -0.004   0.002  0.00  0.00    -0.680 OA
ATOM     12  C   LIG    1       -0.015   1.215   0.009  0.00  0.00    +0.480 C 
ATOM     13  O   LIG    1        1.033   1.839   0.002  0.00  0.00    -0.670 OA
ENDBRANCH   1  12
BRANCH   6  14
ATOM     14  C   LIG    1       -1.334   2.858   4.923  0.00  0.00    +0.220 C 
BRANCH  14  15
ATOM     15  O   LIG    1       -2.021   2.634   6.155  0.00  0.00    -0.570 OA
ATOM     16  H   LIG    1       -1.611   3.064   6.918  0.00  0.00    +0.380 HD
ENDBRANCH  14  15
ENDBRANCH   6  14
TORSDOF 3
ENDMDL
MODEL      158
REMARK  Name = ZINC000001698485
REMARK                            x       y       z     vdW  Elec       q    Type
REMARK                         _______ _______ _______ _____ _____    ______ ____
ROOT
ATOM      1  C   LIG    1       -0.018   1.461   0.010  0.00  0.00    +0.320 C 
ATOM      2  N   LIG    1        0.002  -0.004   0.002  0.00  0.00    -0.570 N 
ATOM      3  C   LIG    1        0.005  -0.665  -1.177  0.00  0.00    +0.580 A 
ATOM      4  C   LIG    1        0.025  -2.131  -1.147  0.00  0.00    -0.470 A 
ATOM      5  C   LIG    1        0.040  -2.778   0.092  0.00  0.00    +0.400 A 
ATOM      6  N   LIG    1        0.035  -2.015   1.233  0.00  0.00    -0.520 N 
ATOM      7  C   LIG    1        0.050  -2.673   2.541  0.00  0.00    +0.330 C 
ATOM      8  N   LIG    1        0.058  -4.123   0.150  0.00  0.00    -0.410 NA
ATOM      9  N   LIG    1        0.063  -4.904  -1.009  0.00  0.00    -0.310 NA
ATOM     10  C   LIG    1        0.050  -4.368  -2.199  0.00  0.00    +0.190 A 
ATOM     11  C   LIG    1        0.030  -2.904  -2.332  0.00  0.00    +0.420 A 
ATOM     12  O   LIG    1        0.017  -2.371  -3.431  0.00  0.00    -0.510 OA
ATOM     13  O   LIG    1       -0.007  -0.061  -2.233  0.00  0.00    -0.510 OA
ATOM     14  C   LIG    1        0.022  -0.674   1.166  0.00  0.00    +0.710 A 
ATOM     15  O   LIG    1        0.018  -0.039   2.203  0.00  0.00    -0.570 OA
ENDROOT
BRANCH  10  16
ATOM     16  O   LIG    1        0.055  -5.156  -3.305  0.00  0.00    -0.460 OA
ATOM     17  H   LIG    1        0.068  -6.104  -3.112  0.00  0.00    +0.390 HD
ENDBRANCH  10  16
TORSDOF 1
ENDMDL
MODEL      159
REMARK  Name = ZINC000001698996
REMARK                            x       y       z     vdW  Elec       q    Type
REMARK                         _______ _______ _______ _____ _____    ______ ____
ROOT
ATOM      1  C   LIG    1       -0.018   1.461   0.010  0.00  0.00    +0.360 C 
ATOM      2  N   LIG    1        0.002  -0.004   0.002  0.00  0.00    -0.380 N 
ATOM      3  N   LIG    1        0.008  -0.804  -1.146  0.00  0.00    -0.240 NA
ATOM      4  C   LIG    1        0.027  -2.074  -0.793  0.00  0.00    +0.130 A 
ATOM      5  C   LIG    1        0.034  -2.112   0.669  0.00  0.00    -0.300 A 
ATOM      6  C   LIG    1        0.052  -3.180   1.670  0.00  0.00    +0.570 A 
ATOM      7  O   LIG    1        0.060  -4.349   1.333  0.00  0.00    -0.440 OA
ATOM      8  N   LIG    1        0.049  -2.836   2.977  0.00  0.00    -0.560 N 
ATOM      9  C   LIG    1        0.063  -3.883   4.001  0.00  0.00    +0.340 C 
ATOM     10  C   LIG    1        0.039  -1.544   3.348  0.00  0.00    +0.720 A 
ATOM     11  O   LIG    1        0.042  -1.277   4.534  0.00  0.00    -0.560 OA
ATOM     12  N   LIG    1        0.026  -0.537   2.458  0.00  0.00    -0.620 N 
ATOM     13  H   LIG    1        0.019   0.380   2.774  0.00  0.00    +0.420 HD
ATOM     14  C   LIG    1        0.023  -0.790   1.103  0.00  0.00    +0.320 A 
ENDROOT
BRANCH   4  15
ATOM     15  C   LIG    1        0.039  -3.235  -1.700  0.00  0.00    +0.550 C 
ATOM     16  O   LIG    1        0.057  -4.369  -1.242  0.00  0.00    -0.630 OA
ATOM     17  O   LIG    1        0.031  -3.065  -2.911  0.00  0.00    -0.670 OA
ENDBRANCH   4  15
TORSDOF 1
ENDMDL
MODEL      160
REMARK  Name = ZINC000097974745
REMARK                            x       y       z     vdW  Elec       q    Type
REMARK                         _______ _______ _______ _____ _____    ______ ____
ROOT
ATOM      1  C   LIG    1       -0.071   1.460  -0.420  0.00  0.00    +0.060 C 
ATOM      2  C   LIG    1       -0.026  -0.069  -0.382  0.00  0.00    +0.120 C 
ATOM      3  O   LIG    1        0.781  -0.549  -1.459  0.00  0.00    -0.360 OA
ATOM      4  C   LIG    1        0.870  -1.974  -1.532  0.00  0.00    +0.160 C 
ATOM      5  C   LIG    1        1.508  -2.510  -0.247  0.00  0.00    +0.200 C 
ATOM      6  C   LIG    1        0.674  -2.057   0.955  0.00  0.00    +0.170 C 
ATOM      7  C   LIG    1        1.730  -2.371  -2.733  0.00  0.00    +0.070 C 
ATOM      8  C   LIG    1        0.576  -0.529   0.949  0.00  0.00    +0.130 C 
ENDROOT
BRANCH   6   9
ATOM      9  O   LIG    1        1.301  -2.493   2.163  0.00  0.00    -0.510 OA
ATOM     10  H   LIG    1        0.826  -2.240   2.966  0.00  0.00    +0.370 HD
ENDBRANCH   6   9
BRANCH   8  11
ATOM     11  O   LIG    1       -0.259  -0.099   2.026  0.00  0.00    -0.560 OA
ATOM     12  H   LIG    1       -0.366   0.860   2.083  0.00  0.00    +0.380 HD
ENDBRANCH   8  11
BRANCH   5  13
ATOM     13  O   LIG    1        2.838  -2.001  -0.127  0.00  0.00    -0.760 OA
BRANCH  13  14
ATOM     14  S   LIG    1        3.872  -3.054   0.243  0.00  0.00    +2.760 S 
ATOM     15  O   LIG    1        4.090  -3.863  -0.946  0.00  0.00    -1.100 OA
ATOM     16  O   LIG    1        3.309  -3.831   1.336  0.00  0.00    -1.070 OA
ATOM     17  O   LIG    1        5.074  -2.339   0.644  0.00  0.00    -1.080 OA
ENDBRANCH  13  14
ENDBRANCH   5  13
TORSDOF 4
ENDMDL
MODEL      161
REMARK  Name = ZINC000001706747
REMARK                            x       y       z     vdW  Elec       q    Type
REMARK                         _______ _______ _______ _____ _____    ______ ____
ROOT
ATOM      1  O   LIG    1        0.002  -0.004   0.002  0.00  0.00    -0.590 OA
ATOM      2  C   LIG    1       -0.014   1.211   0.009  0.00  0.00    +0.660 C 
ATOM      3  N   LIG    1       -1.208   1.815   0.029  0.00  0.00    -0.710 NA
ATOM      4  C   LIG    1       -1.329   3.159   0.038  0.00  0.00    +0.490 C 
ATOM      5  C   LIG    1       -0.052   3.978   0.024  0.00  0.00    +0.050 C 
ATOM      6  C   LIG    1        1.247   3.194   0.001  0.00  0.00    +0.510 C 
ATOM      7  O   LIG    1        2.321   3.757  -0.010  0.00  0.00    -0.510 OA
ATOM      8  O   LIG    1       -2.417   3.692   0.056  0.00  0.00    -0.520 OA
ATOM      9  N   LIG    1        1.163   1.847   0.001  0.00  0.00    -0.700 N 
ATOM     10  H   LIG    1        1.980   1.324  -0.013  0.00  0.00    +0.390 HD
ENDROOT
BRANCH   5  11
ATOM     11  O   LIG    1       -0.080   4.826  -1.126  0.00  0.00    -0.500 OA
ATOM     12  H   LIG    1       -0.136   4.348  -1.965  0.00  0.00    +0.370 HD
ENDBRANCH   5  11
BRANCH   5  13
ATOM     13  C   LIG    1       -0.044   4.869   1.268  0.00  0.00    +0.140 C 
BRANCH  13  14
ATOM     14  C   LIG    1       -1.306   5.692   1.304  0.00  0.00    +0.170 A 
ATOM     15  C   LIG    1       -2.116   5.651   2.423  0.00  0.00    -0.050 A 
ATOM     16  C   LIG    1       -3.275   6.412   2.446  0.00  0.00    +0.050 A 
ATOM     17  C   LIG    1       -3.576   7.190   1.339  0.00  0.00    -0.070 A 
ATOM     18  C   LIG    1       -2.717   7.180   0.255  0.00  0.00    +0.250 A 
ATOM     19  N   LIG    1       -1.621   6.447   0.270  0.00  0.00    -0.440 NA
ENDBRANCH  13  14
ENDBRANCH   5  13
TORSDOF 3
ENDMDL
MODEL      162
REMARK  Name = ZINC000001725812
REMARK                            x       y       z     vdW  Elec       q    Type
REMARK                         _______ _______ _______ _____ _____    ______ ____
ROOT
ATOM      1  C   LIG    1        0.738  -2.677  -2.327  0.00  0.00    +0.210 C 
ENDROOT
BRANCH   1   2
ATOM      2  C   LIG    1        2.151  -2.156  -2.364  0.00  0.00    +0.510 C 
ATOM      3  O   LIG    1        3.083  -2.923  -2.244  0.00  0.00    -0.540 OA
ATOM      4  N   LIG    1        2.380  -0.838  -2.530  0.00  0.00    -0.840 N 
ATOM      5  H   LIG    1        3.289  -0.503  -2.553  0.00  0.00    +0.400 HD
ATOM      6  H   LIG    1        1.634  -0.225  -2.625  0.00  0.00    +0.410 HD
ENDBRANCH   1   2
BRANCH   1   7
ATOM      7  C   LIG    1        0.021  -2.119  -1.096  0.00  0.00    +0.130 C 
BRANCH   7   8
ATOM      8  C   LIG    1       -1.393  -2.640  -1.059  0.00  0.00    +0.500 C 
ATOM      9  O   LIG    1       -1.600  -3.832  -0.909  0.00  0.00    -0.660 OA
ATOM     10  O   LIG    1       -2.330  -1.870  -1.179  0.00  0.00    -0.670 OA
ENDBRANCH   7   8
BRANCH   7  11
ATOM     11  O   LIG    1        0.000  -0.669  -1.164  0.00  0.00    -0.340 OA
BRANCH  11  13
ATOM     12  C   LIG    1       -0.018   1.503   0.010  0.00  0.00    +0.150 C 
ATOM     13  C   LIG    1        0.002  -0.004   0.002  0.00  0.00    +0.460 C 
ATOM     14  O   LIG    1        0.020  -0.614   1.045  0.00  0.00    -0.510 OA
ENDBRANCH  11  13
ENDBRANCH   7  11
ENDBRANCH   1   7
BRANCH   1  15
ATOM     15  O   LIG    1        0.758  -4.128  -2.259  0.00  0.00    -0.290 OA
BRANCH  15  16
ATOM     16  C   LIG    1        0.756  -4.793  -3.425  0.00  0.00    +0.470 C 
ATOM     17  O   LIG    1        0.738  -4.183  -4.468  0.00  0.00    -0.530 OA
ATOM     18  C   LIG    1        0.777  -6.299  -3.433  0.00  0.00    +0.150 C 
ENDBRANCH  15  16
ENDBRANCH   1  15
TORSDOF 7
ENDMDL
MODEL      163
REMARK  Name = ZINC000001731785
REMARK                            x       y       z     vdW  Elec       q    Type
REMARK                         _______ _______ _______ _____ _____    ______ ____
ROOT
ATOM      1  C   ALA A  1       -1.412  -0.526   0.013  0.00  0.00    +0.490 C 
ATOM      2  N   ASP A  2       -2.125  -0.563  -1.130  0.00  0.00    -0.620 N 
ATOM      3  H   ASP A  2       -1.728  -0.253  -1.960  0.00  0.00    +0.390 HD
ATOM      4  O   ALA A  1       -1.908  -0.912   1.050  0.00  0.00    -0.560 OA
ENDROOT
BRANCH   1   6
ATOM      5  CB  ALA A  1       -0.019   1.526   0.010  0.00  0.00    +0.110 C 
ATOM      6  CA  ALA A  1        0.002  -0.004   0.002  0.00  0.00    +0.170 C 
BRANCH   6   7
ATOM      7  N   ALA A  1        0.713  -0.491   1.192  0.00  0.00    -0.620 N 
ATOM      8  H1  ALA A  1        0.240  -0.165   2.022  0.00  0.00    +0.440 HD
ATOM      9  H2  ALA A  1        1.659  -0.141   1.185  0.00  0.00    +0.430 HD
ATOM     10  H3  ALA A  1        0.726  -1.500   1.187  0.00  0.00    +0.440 HD
ENDBRANCH   6   7
ENDBRANCH   1   6
BRANCH   2  11
ATOM     11  CA  ASP A  2       -3.499  -1.070  -1.120  0.00  0.00    +0.190 C 
BRANCH  11  12
ATOM     12  C   ASP A  2       -4.442   0.042  -0.737  0.00  0.00    +0.490 C 
ATOM     13  OXT ASP A  2       -5.610  -0.207  -0.491  0.00  0.00    -0.690 OA
ATOM     14  O   ASP A  2       -4.037   1.190  -0.673  0.00  0.00    -0.700 OA
ENDBRANCH  11  12
BRANCH  11  15
ATOM     15  CB  ASP A  2       -3.862  -1.589  -2.513  0.00  0.00    -0.040 C 
BRANCH  15  16
ATOM     16  CG  ASP A  2       -3.000  -2.780  -2.845  0.00  0.00    +0.490 C 
ATOM     17  OD2 ASP A  2       -3.131  -3.347  -3.916  0.00  0.00    -0.710 OA
ATOM     18  OD1 ASP A  2       -2.173  -3.176  -2.042  0.00  0.00    -0.700 OA
ENDBRANCH  15  16
ENDBRANCH  11  15
ENDBRANCH   2  11
TORSDOF 6
ENDMDL
MODEL      164
REMARK  Name = ZINC000001731784
REMARK                            x       y       z     vdW  Elec       q    Type
REMARK                         _______ _______ _______ _____ _____    ______ ____
ROOT
ATOM      1  C   ALA A  1        0.707  -0.490  -1.238  0.00  0.00    +0.490 C 
ATOM      2  N   ASP A  2        0.053  -0.526  -2.415  0.00  0.00    -0.620 N 
ATOM      3  H   ASP A  2       -0.873  -0.239  -2.465  0.00  0.00    +0.390 HD
ATOM      4  O   ALA A  1        1.864  -0.849  -1.176  0.00  0.00    -0.560 OA
ENDROOT
BRANCH   1   6
ATOM      5  CB  ALA A  1       -0.019   1.526   0.010  0.00  0.00    +0.120 C 
ATOM      6  CA  ALA A  1        0.002  -0.004   0.002  0.00  0.00    +0.170 C 
BRANCH   6   7
ATOM      7  N   ALA A  1        0.713  -0.491   1.192  0.00  0.00    -0.620 N 
ATOM      8  H1  ALA A  1        1.659  -0.141   1.185  0.00  0.00    +0.440 HD
ATOM      9  H2  ALA A  1        0.726  -1.500   1.187  0.00  0.00    +0.440 HD
ATOM     10  H3  ALA A  1        0.240  -0.165   2.022  0.00  0.00    +0.430 HD
ENDBRANCH   6   7
ENDBRANCH   1   6
BRANCH   2  11
ATOM     11  CA  ASP A  2        0.738  -0.999  -3.621  0.00  0.00    +0.190 C 
BRANCH  11  12
ATOM     12  C   ASP A  2        0.652  -2.501  -3.691  0.00  0.00    +0.490 C 
ATOM     13  OXT ASP A  2        1.311  -3.112  -4.516  0.00  0.00    -0.690 OA
ATOM     14  O   ASP A  2       -0.077  -3.107  -2.924  0.00  0.00    -0.710 OA
ENDBRANCH  11  12
BRANCH  11  15
ATOM     15  CB  ASP A  2        0.073  -0.391  -4.857  0.00  0.00    -0.040 C 
BRANCH  15  16
ATOM     16  CG  ASP A  2        0.267   1.104  -4.848  0.00  0.00    +0.490 C 
ATOM     17  OD2 ASP A  2       -0.189   1.783  -5.752  0.00  0.00    -0.710 OA
ATOM     18  OD1 ASP A  2        0.880   1.634  -3.937  0.00  0.00    -0.700 OA
ENDBRANCH  15  16
ENDBRANCH  11  15
ENDBRANCH   2  11
TORSDOF 6
ENDMDL
MODEL      165
REMARK  Name = ZINC000001731783
REMARK                            x       y       z     vdW  Elec       q    Type
REMARK                         _______ _______ _______ _____ _____    ______ ____
ROOT
ATOM      1  C   ALA A  1       -1.412  -0.526   0.013  0.00  0.00    +0.490 C 
ATOM      2  N   ASP A  2       -2.125  -0.563  -1.130  0.00  0.00    -0.620 N 
ATOM      3  H   ASP A  2       -1.728  -0.253  -1.960  0.00  0.00    +0.390 HD
ATOM      4  O   ALA A  1       -1.908  -0.912   1.050  0.00  0.00    -0.560 OA
ENDROOT
BRANCH   1   6
ATOM      5  CB  ALA A  1       -0.019   1.526   0.010  0.00  0.00    +0.120 C 
ATOM      6  CA  ALA A  1        0.002  -0.004   0.002  0.00  0.00    +0.170 C 
BRANCH   6   7
ATOM      7  N   ALA A  1        0.713  -0.491   1.192  0.00  0.00    -0.620 N 
ATOM      8  H1  ALA A  1        0.240  -0.165   2.022  0.00  0.00    +0.440 HD
ATOM      9  H2  ALA A  1        1.659  -0.141   1.185  0.00  0.00    +0.430 HD
ATOM     10  H3  ALA A  1        0.726  -1.500   1.187  0.00  0.00    +0.440 HD
ENDBRANCH   6   7
ENDBRANCH   1   6
BRANCH   2  11
ATOM     11  CA  ASP A  2       -3.499  -1.070  -1.120  0.00  0.00    +0.190 C 
BRANCH  11  12
ATOM     12  C   ASP A  2       -3.482  -2.571  -1.252  0.00  0.00    +0.490 C 
ATOM     13  OXT ASP A  2       -2.582  -3.118  -1.866  0.00  0.00    -0.710 OA
ATOM     14  O   ASP A  2       -4.368  -3.238  -0.745  0.00  0.00    -0.690 OA
ENDBRANCH  11  12
BRANCH  11  15
ATOM     15  CB  ASP A  2       -4.276  -0.464  -2.291  0.00  0.00    -0.040 C 
BRANCH  15  16
ATOM     16  CG  ASP A  2       -4.399   1.026  -2.095  0.00  0.00    +0.490 C 
ATOM     17  OD2 ASP A  2       -4.986   1.703  -2.921  0.00  0.00    -0.710 OA
ATOM     18  OD1 ASP A  2       -3.911   1.553  -1.110  0.00  0.00    -0.700 OA
ENDBRANCH  15  16
ENDBRANCH  11  15
ENDBRANCH   2  11
TORSDOF 6
ENDMDL
MODEL      166
REMARK  Name = ZINC000001731782
REMARK                            x       y       z     vdW  Elec       q    Type
REMARK                         _______ _______ _______ _____ _____    ______ ____
ROOT
ATOM      1  C   ALA A  1        0.707  -0.490  -1.238  0.00  0.00    +0.490 C 
ATOM      2  N   ASP A  2        0.053  -0.526  -2.415  0.00  0.00    -0.620 N 
ATOM      3  H   ASP A  2       -0.873  -0.239  -2.465  0.00  0.00    +0.390 HD
ATOM      4  O   ALA A  1        1.864  -0.849  -1.176  0.00  0.00    -0.560 OA
ENDROOT
BRANCH   1   6
ATOM      5  CB  ALA A  1       -0.019   1.526   0.010  0.00  0.00    +0.110 C 
ATOM      6  CA  ALA A  1        0.002  -0.004   0.002  0.00  0.00    +0.170 C 
BRANCH   6   7
ATOM      7  N   ALA A  1        0.713  -0.491   1.192  0.00  0.00    -0.620 N 
ATOM      8  H1  ALA A  1        1.659  -0.141   1.185  0.00  0.00    +0.440 HD
ATOM      9  H2  ALA A  1        0.726  -1.500   1.187  0.00  0.00    +0.440 HD
ATOM     10  H3  ALA A  1        0.240  -0.165   2.022  0.00  0.00    +0.430 HD
ENDBRANCH   6   7
ENDBRANCH   1   6
BRANCH   2  11
ATOM     11  CA  ASP A  2        0.738  -0.999  -3.621  0.00  0.00    +0.190 C 
BRANCH  11  12
ATOM     12  C   ASP A  2        1.501   0.142  -4.244  0.00  0.00    +0.490 C 
ATOM     13  OXT ASP A  2        1.096   1.285  -4.122  0.00  0.00    -0.700 OA
ATOM     14  O   ASP A  2        2.523  -0.079  -4.871  0.00  0.00    -0.690 OA
ENDBRANCH  11  12
BRANCH  11  15
ATOM     15  CB  ASP A  2       -0.292  -1.529  -4.619  0.00  0.00    -0.040 C 
BRANCH  15  16
ATOM     16  CG  ASP A  2       -0.970  -2.746  -4.043  0.00  0.00    +0.490 C 
ATOM     17  OD2 ASP A  2       -1.831  -3.325  -4.683  0.00  0.00    -0.710 OA
ATOM     18  OD1 ASP A  2       -0.657  -3.151  -2.936  0.00  0.00    -0.700 OA
ENDBRANCH  15  16
ENDBRANCH  11  15
ENDBRANCH   2  11
TORSDOF 6
ENDMDL
MODEL      167
REMARK  Name = ZINC000001763954
REMARK                            x       y       z     vdW  Elec       q    Type
REMARK                         _______ _______ _______ _____ _____    ______ ____
ROOT
ATOM      1  C   GLU A  1       -2.113   0.957   1.227  0.00  0.00    +0.500 C 
ATOM      2  N   SER A  2       -2.804   0.908   2.383  0.00  0.00    -0.660 N 
ATOM      3  H   SER A  2       -2.392   1.208   3.208  0.00  0.00    +0.410 HD
ATOM      4  O   GLU A  1       -2.629   0.582   0.195  0.00  0.00    -0.550 OA
ENDROOT
BRANCH   1   5
ATOM      5  CA  GLU A  1       -0.699   1.479   1.216  0.00  0.00    +0.160 C 
BRANCH   5   6
ATOM      6  N   GLU A  1       -0.012   1.005   0.008  0.00  0.00    -0.620 N 
ATOM      7  H1  GLU A  1       -0.500   1.339  -0.810  0.00  0.00    +0.440 HD
ATOM      8  H2  GLU A  1        0.935   1.354   0.000  0.00  0.00    +0.440 HD
ATOM      9  H3  GLU A  1        0.002  -0.004   0.002  0.00  0.00    +0.430 HD
ENDBRANCH   5   6
BRANCH   5  10
ATOM     10  CB  GLU A  1       -0.720   3.008   1.225  0.00  0.00    +0.100 C 
BRANCH  10  11
ATOM     11  CG  GLU A  1        0.711   3.537   1.339  0.00  0.00    -0.080 C 
BRANCH  11  12
ATOM     12  CD  GLU A  1        0.691   5.044   1.348  0.00  0.00    +0.490 C 
ATOM     13  OE2 GLU A  1        1.735   5.668   1.433  0.00  0.00    -0.700 OA
ATOM     14  OE1 GLU A  1       -0.370   5.640   1.269  0.00  0.00    -0.680 OA
ENDBRANCH  11  12
ENDBRANCH  10  11
ENDBRANCH   5  10
ENDBRANCH   1   5
BRANCH   2  15
ATOM     15  CA  SER A  2       -4.179   0.401   2.393  0.00  0.00    +0.170 C 
BRANCH  15  16
ATOM     16  C   SER A  2       -5.128   1.516   2.041  0.00  0.00    +0.500 C 
ATOM     17  OXT SER A  2       -4.849   2.668   2.326  0.00  0.00    -0.660 OA
ATOM     18  O   SER A  2       -6.176   1.267   1.469  0.00  0.00    -0.690 OA
ENDBRANCH  15  16
BRANCH  15  19
ATOM     19  CB  SER A  2       -4.515  -0.134   3.787  0.00  0.00    +0.190 C 
BRANCH  19  20
ATOM     20  OG  SER A  2       -4.502   0.944   4.726  0.00  0.00    -0.550 OA
ATOM     21  H   SER A  2       -4.707   0.677   5.633  0.00  0.00    +0.370 HD
ENDBRANCH  19  20
ENDBRANCH  15  19
ENDBRANCH   2  15
TORSDOF 9
ENDMDL
MODEL      168
REMARK  Name = ZINC000001888747
REMARK                            x       y       z     vdW  Elec       q    Type
REMARK                         _______ _______ _______ _____ _____    ______ ____
ROOT
ATOM      1  N   THR A  2        2.077   0.091   1.294  0.00  0.00    -0.660 N 
ATOM      2  H   THR A  2        2.503   0.397   0.478  0.00  0.00    +0.410 HD
ATOM      3  C   GLU A  1        2.712   0.220   2.475  0.00  0.00    +0.500 C 
ATOM      4  O   GLU A  1        2.179  -0.163   3.495  0.00  0.00    -0.550 OA
ENDROOT
BRANCH   1   5
ATOM      5  CA  THR A  2        0.742  -0.511   1.242  0.00  0.00    +0.180 C 
BRANCH   5   6
ATOM      6  C   THR A  2        0.870  -2.011   1.172  0.00  0.00    +0.490 C 
ATOM      7  OXT THR A  2        0.002  -2.720   1.651  0.00  0.00    -0.700 OA
ATOM      8  O   THR A  2        1.842  -2.516   0.636  0.00  0.00    -0.660 OA
ENDBRANCH   5   6
BRANCH   5  10
ATOM      9  CG2 THR A  2       -0.019   1.526   0.010  0.00  0.00    +0.000 C 
ATOM     10  CB  THR A  2        0.002  -0.004   0.002  0.00  0.00    +0.170 C 
BRANCH  10  11
ATOM     11  OG1 THR A  2        0.671  -0.465  -1.174  0.00  0.00    -0.540 OA
ATOM     12  HG1 THR A  2        0.256  -0.181  -1.999  0.00  0.00    +0.370 HD
ENDBRANCH  10  11
ENDBRANCH   5  10
ENDBRANCH   1   5
BRANCH   3  13
ATOM     13  CA  GLU A  1        4.085   0.839   2.529  0.00  0.00    +0.160 C 
BRANCH  13  14
ATOM     14  N   GLU A  1        4.360   1.303   3.896  0.00  0.00    -0.620 N 
ATOM     15  H1  GLU A  1        3.671   1.989   4.163  0.00  0.00    +0.430 HD
ATOM     16  H2  GLU A  1        5.279   1.717   3.932  0.00  0.00    +0.440 HD
ATOM     17  H3  GLU A  1        4.319   0.520   4.531  0.00  0.00    +0.440 HD
ENDBRANCH  13  14
BRANCH  13  18
ATOM     18  CB  GLU A  1        5.130  -0.202   2.124  0.00  0.00    +0.100 C 
BRANCH  18  19
ATOM     19  CG  GLU A  1        6.509   0.458   2.057  0.00  0.00    -0.070 C 
BRANCH  19  20
ATOM     20  CD  GLU A  1        7.538  -0.567   1.658  0.00  0.00    +0.490 C 
ATOM     21  OE2 GLU A  1        8.709  -0.244   1.547  0.00  0.00    -0.700 OA
ATOM     22  OE1 GLU A  1        7.201  -1.719   1.446  0.00  0.00    -0.680 OA
ENDBRANCH  19  20
ENDBRANCH  18  19
ENDBRANCH  13  18
ENDBRANCH   3  13
TORSDOF 9
ENDMDL
MODEL      169
REMARK  Name = ZINC000247423693
REMARK                            x       y       z     vdW  Elec       q    Type
REMARK                         _______ _______ _______ _____ _____    ______ ____
ROOT
ATOM      1  CA  LIG    1       -1.330   1.951   0.019  0.00  0.00    +0.160 C 
ENDROOT
BRANCH   1   2
ATOM      2  N   LIG    1       -2.343   1.149  -0.671  0.00  0.00    -0.700 N 
ATOM      3  H   LIG    1       -2.929   0.567  -0.163  0.00  0.00    +0.390 HD
ATOM      4  C   LIG    1       -2.461   1.221  -2.012  0.00  0.00    +0.500 C 
ATOM      5  O   LIG    1       -1.728   1.949  -2.647  0.00  0.00    -0.530 OA
BRANCH   4   6
ATOM      6  C   LIG    1       -3.503   0.396  -2.722  0.00  0.00    +0.210 C 
BRANCH   6   7
ATOM      7  O   LIG    1       -3.431   0.644  -4.127  0.00  0.00    -0.550 OA
ATOM      8  H   LIG    1       -4.075   0.145  -4.648  0.00  0.00    +0.380 HD
ENDBRANCH   6   7
ENDBRANCH   4   6
ENDBRANCH   1   2
BRANCH   1  10
ATOM      9  O   LIG    1        0.002  -0.004   0.002  0.00  0.00    -0.690 OA
ATOM     10  C   LIG    1       -0.015   1.215   0.009  0.00  0.00    +0.490 C 
ATOM     11  OXT LIG    1        1.033   1.839   0.002  0.00  0.00    -0.690 OA
ENDBRANCH   1  10
BRANCH   1  12
ATOM     12  C   LIG    1       -1.768   2.192   1.465  0.00  0.00    +0.040 C 
BRANCH  12  13
ATOM     13  C   LIG    1       -3.037   3.046   1.477  0.00  0.00    +0.010 C 
BRANCH  13  14
ATOM     14  C   LIG    1       -3.475   3.287   2.923  0.00  0.00    +0.260 C 
BRANCH  14  15
ATOM     15  N   LIG    1       -4.691   4.105   2.935  0.00  0.00    -0.730 N 
ATOM     16  H   LIG    1       -5.085   4.401   2.100  0.00  0.00    +0.400 HD
ATOM     17  C   LIG    1       -5.262   4.446   4.107  0.00  0.00    +0.510 C 
ATOM     18  O   LIG    1       -4.770   4.076   5.152  0.00  0.00    -0.520 OA
BRANCH  17  19
ATOM     19  C   LIG    1       -6.513   5.287   4.120  0.00  0.00    +0.220 C 
BRANCH  19  20
ATOM     20  O   LIG    1       -6.922   5.512   5.470  0.00  0.00    -0.550 OA
ATOM     21  H   LIG    1       -7.722   6.048   5.554  0.00  0.00    +0.380 HD
ENDBRANCH  19  20
ENDBRANCH  17  19
ENDBRANCH  14  15
ENDBRANCH  13  14
ENDBRANCH  12  13
ENDBRANCH   1  12
TORSDOF 10
ENDMDL
MODEL      170
REMARK  Name = ZINC000247423699
REMARK                            x       y       z     vdW  Elec       q    Type
REMARK                         _______ _______ _______ _____ _____    ______ ____
ROOT
ATOM      1  CA  LIG    1       -1.330   1.951   0.019  0.00  0.00    +0.160 C 
ENDROOT
BRANCH   1   2
ATOM      2  N   LIG    1       -1.093   3.377  -0.214  0.00  0.00    -0.690 N 
ATOM      3  H   LIG    1       -1.012   3.985   0.538  0.00  0.00    +0.390 HD
ATOM      4  C   LIG    1       -0.988   3.846  -1.474  0.00  0.00    +0.510 C 
ATOM      5  O   LIG    1       -1.090   3.087  -2.414  0.00  0.00    -0.530 OA
BRANCH   4   6
ATOM      6  C   LIG    1       -0.745   5.314  -1.714  0.00  0.00    +0.210 C 
BRANCH   6   7
ATOM      7  O   LIG    1       -0.672   5.561  -3.119  0.00  0.00    -0.550 OA
ATOM      8  H   LIG    1       -0.517   6.488  -3.348  0.00  0.00    +0.380 HD
ENDBRANCH   6   7
ENDBRANCH   4   6
ENDBRANCH   1   2
BRANCH   1  10
ATOM      9  O   LIG    1        0.002  -0.004   0.002  0.00  0.00    -0.700 OA
ATOM     10  C   LIG    1       -0.015   1.215   0.009  0.00  0.00    +0.490 C 
ATOM     11  OXT LIG    1        1.033   1.839   0.002  0.00  0.00    -0.690 OA
ENDBRANCH   1  10
BRANCH   1  12
ATOM     12  C   LIG    1       -2.009   1.762   1.377  0.00  0.00    +0.050 C 
BRANCH  12  13
ATOM     13  C   LIG    1       -3.398   2.403   1.345  0.00  0.00    +0.010 C 
BRANCH  13  14
ATOM     14  C   LIG    1       -4.078   2.214   2.703  0.00  0.00    +0.260 C 
BRANCH  14  15
ATOM     15  N   LIG    1       -5.407   2.827   2.673  0.00  0.00    -0.730 N 
ATOM     16  H   LIG    1       -5.722   3.265   1.867  0.00  0.00    +0.400 HD
ATOM     17  C   LIG    1       -6.194   2.784   3.767  0.00  0.00    +0.510 C 
ATOM     18  O   LIG    1       -5.802   2.237   4.775  0.00  0.00    -0.520 OA
BRANCH  17  19
ATOM     19  C   LIG    1       -7.562   3.415   3.736  0.00  0.00    +0.220 C 
BRANCH  19  20
ATOM     20  O   LIG    1       -8.197   3.239   5.004  0.00  0.00    -0.550 OA
ATOM     21  H   LIG    1       -9.084   3.621   5.057  0.00  0.00    +0.380 HD
ENDBRANCH  19  20
ENDBRANCH  17  19
ENDBRANCH  14  15
ENDBRANCH  13  14
ENDBRANCH  12  13
ENDBRANCH   1  12
TORSDOF 10
ENDMDL
MODEL      171
REMARK  Name = ZINC000002384813
REMARK                            x       y       z     vdW  Elec       q    Type
REMARK                         _______ _______ _______ _____ _____    ______ ____
ROOT
ATOM      1  C   MET A  1        1.932  -3.726  -3.094  0.00  0.00    +0.520 C 
ATOM      2  N   SER A  2        2.940  -4.308  -2.415  0.00  0.00    -0.690 N 
ATOM      3  H   SER A  2        3.529  -3.769  -1.864  0.00  0.00    +0.400 HD
ATOM      4  O   MET A  1        1.195  -4.400  -3.782  0.00  0.00    -0.540 OA
ENDROOT
BRANCH   1   5
ATOM      5  CA  MET A  1        1.720  -2.237  -2.998  0.00  0.00    +0.190 C 
BRANCH   5   6
ATOM      6  N   MET A  1        0.920  -1.781  -4.143  0.00  0.00    -0.830 NA
ATOM      7  H1  MET A  1        0.818  -0.777  -4.136  0.00  0.00    +0.340 HD
ATOM      8  H2  MET A  1        0.019  -2.236  -4.158  0.00  0.00    +0.350 HD
ENDBRANCH   5   6
BRANCH   5   9
ATOM      9  CB  MET A  1        0.982  -1.910  -1.698  0.00  0.00    +0.030 C 
BRANCH   9  10
ATOM     10  CG  MET A  1        0.877  -0.392  -1.539  0.00  0.00    +0.080 C 
BRANCH  10  12
ATOM     11  CE  MET A  1       -0.022   1.810   0.012  0.00  0.00    +0.110 C 
ATOM     12  SD  MET A  1        0.002  -0.004   0.002  0.00  0.00    -0.250 S 
ENDBRANCH  10  12
ENDBRANCH   9  10
ENDBRANCH   5   9
ENDBRANCH   1   5
BRANCH   2  13
ATOM     13  CA  SER A  2        3.146  -5.756  -2.508  0.00  0.00    +0.160 C 
BRANCH  13  14
ATOM     14  C   SER A  2        2.261  -6.455  -1.509  0.00  0.00    +0.500 C 
ATOM     15  OXT SER A  2        1.961  -5.898  -0.467  0.00  0.00    -0.680 OA
ATOM     16  O   SER A  2        1.846  -7.577  -1.742  0.00  0.00    -0.700 OA
ENDBRANCH  13  14
BRANCH  13  17
ATOM     17  CB  SER A  2        4.611  -6.082  -2.210  0.00  0.00    +0.190 C 
BRANCH  17  18
ATOM     18  OG  SER A  2        4.907  -5.745  -0.853  0.00  0.00    -0.550 OA
ATOM     19  H   SER A  2        5.820  -5.926  -0.593  0.00  0.00    +0.360 HD
ENDBRANCH  17  18
ENDBRANCH  13  17
ENDBRANCH   2  13
TORSDOF 9
ENDMDL
MODEL      172
REMARK  Name = ZINC000253588111
REMARK                            x       y       z     vdW  Elec       q    Type
REMARK                         _______ _______ _______ _____ _____    ______ ____
ROOT
ATOM      1  C   LIG    1       -1.432  -1.925   0.005  0.00  0.00    +0.310 C 
ATOM      2  O   LIG    1       -0.907  -2.431  -1.224  0.00  0.00    -0.350 OA
ATOM      3  C   LIG    1       -1.572  -1.939  -2.389  0.00  0.00    +0.060 C 
ATOM      4  C   LIG    1       -3.045  -2.355  -2.348  0.00  0.00    +0.130 C 
ATOM      5  C   LIG    1       -3.684  -1.818  -1.064  0.00  0.00    +0.200 C 
ATOM      6  C   LIG    1       -2.899  -2.341   0.142  0.00  0.00    +0.180 C 
ENDROOT
BRANCH   3   7
ATOM      7  C   LIG    1       -0.921  -2.514  -3.620  0.00  0.00    +0.500 C 
ATOM      8  O   LIG    1       -1.280  -2.148  -4.726  0.00  0.00    -0.680 OA
ATOM      9  O   LIG    1       -0.035  -3.344  -3.510  0.00  0.00    -0.670 OA
ENDBRANCH   3   7
BRANCH   5  10
ATOM     10  O   LIG    1       -5.040  -2.262  -0.983  0.00  0.00    -0.560 OA
ATOM     11  H   LIG    1       -5.594  -1.971  -1.721  0.00  0.00    +0.380 HD
ENDBRANCH   5  10
BRANCH   4  12
ATOM     12  O   LIG    1       -3.725  -1.817  -3.484  0.00  0.00    -0.570 OA
ATOM     13  H   LIG    1       -3.369  -2.113  -4.333  0.00  0.00    +0.400 HD
ENDBRANCH   4  12
BRANCH   6  14
ATOM     14  O   LIG    1       -3.443  -1.788   1.343  0.00  0.00    -0.540 OA
ATOM     15  H   LIG    1       -2.993  -2.077   2.148  0.00  0.00    +0.370 HD
ENDBRANCH   6  14
BRANCH   1  16
ATOM     16  O   LIG    1       -1.339  -0.499   0.012  0.00  0.00    -0.390 OA
BRANCH  16  18
ATOM     17  C   LIG    1       -0.019   1.526   0.010  0.00  0.00    +0.040 C 
ATOM     18  C   LIG    1        0.002  -0.004   0.002  0.00  0.00    +0.170 C 
ENDBRANCH  16  18
ENDBRANCH   1  16
TORSDOF 6
ENDMDL
MODEL      173
REMARK  Name = ZINC000002522685
REMARK                            x       y       z     vdW  Elec       q    Type
REMARK                         _______ _______ _______ _____ _____    ______ ____
ROOT
ATOM      1  C   LIG    1       -0.699   1.479   1.216  0.00  0.00    +0.170 C 
ENDROOT
BRANCH   1   2
ATOM      2  N   LIG    1       -0.012   1.005   0.008  0.00  0.00    -0.620 N 
ATOM      3  H   LIG    1       -0.500   1.339  -0.810  0.00  0.00    +0.440 HD
ATOM      4  H   LIG    1        0.935   1.354   0.000  0.00  0.00    +0.440 HD
ATOM      5  H   LIG    1        0.002  -0.004   0.002  0.00  0.00    +0.430 HD
ENDBRANCH   1   2
BRANCH   1   6
ATOM      6  C   LIG    1        0.030   0.979   2.437  0.00  0.00    +0.500 C 
ATOM      7  N   LIG    1       -0.603   0.931   3.626  0.00  0.00    -0.670 N 
ATOM      8  H   LIG    1       -1.527   1.217   3.696  0.00  0.00    +0.410 HD
ATOM      9  O   LIG    1        1.185   0.621   2.349  0.00  0.00    -0.530 OA
BRANCH   7  10
ATOM     10  C   LIG    1        0.106   0.445   4.813  0.00  0.00    -0.200 C 
BRANCH  10  11
ATOM     11  S   LIG    1        0.794   1.855   5.725  0.00  0.00    +2.620 S 
ATOM     12  O   LIG    1       -0.303   2.668   6.228  0.00  0.00    -1.050 OA
ATOM     13  O   LIG    1        1.624   2.637   4.823  0.00  0.00    -1.040 OA
ATOM     14  O   LIG    1        1.593   1.352   6.832  0.00  0.00    -1.050 OA
ENDBRANCH  10  11
ENDBRANCH   7  10
ENDBRANCH   1   6
BRANCH   1  15
ATOM     15  C   LIG    1       -0.720   3.008   1.225  0.00  0.00    +0.100 C 
BRANCH  15  16
ATOM     16  C   LIG    1       -1.565   3.513   0.054  0.00  0.00    -0.080 C 
BRANCH  16  17
ATOM     17  C   LIG    1       -1.586   5.020   0.062  0.00  0.00    +0.490 C 
ATOM     18  O   LIG    1       -2.208   5.626  -0.794  0.00  0.00    -0.700 OA
ATOM     19  O   LIG    1       -0.980   5.633   0.924  0.00  0.00    -0.680 OA
ENDBRANCH  16  17
ENDBRANCH  15  16
ENDBRANCH   1  15
TORSDOF 7
ENDMDL
MODEL      174
REMARK  Name = ZINC000002522588
REMARK                            x       y       z     vdW  Elec       q    Type
REMARK                         _______ _______ _______ _____ _____    ______ ____
ROOT
ATOM      1  C   SER A  1        0.030   0.979   2.437  0.00  0.00    +0.500 C 
ATOM      2  N   ASP A  2       -0.150   1.589   3.626  0.00  0.00    -0.620 N 
ATOM      3  H   ASP A  2       -0.749   2.349   3.695  0.00  0.00    +0.390 HD
ATOM      4  O   SER A  1        0.778   0.029   2.350  0.00  0.00    -0.550 OA
ENDROOT
BRANCH   1   5
ATOM      5  CA  SER A  1       -0.699   1.479   1.216  0.00  0.00    +0.180 C 
BRANCH   5   6
ATOM      6  N   SER A  1       -0.012   1.005   0.008  0.00  0.00    -0.610 N 
ATOM      7  H1  SER A  1       -0.500   1.339  -0.810  0.00  0.00    +0.440 HD
ATOM      8  H2  SER A  1        0.935   1.354   0.000  0.00  0.00    +0.440 HD
ATOM      9  H3  SER A  1        0.002  -0.004   0.002  0.00  0.00    +0.440 HD
ENDBRANCH   5   6
BRANCH   5  10
ATOM     10  CB  SER A  1       -2.135   0.949   1.227  0.00  0.00    +0.250 C 
BRANCH  10  11
ATOM     11  OG  SER A  1       -2.859   1.515   0.133  0.00  0.00    -0.580 OA
ATOM     12  H   SER A  1       -3.780   1.223   0.078  0.00  0.00    +0.400 HD
ENDBRANCH  10  11
ENDBRANCH   5  10
ENDBRANCH   1   5
BRANCH   2  13
ATOM     13  CA  ASP A  2        0.558   1.103   4.812  0.00  0.00    +0.190 C 
BRANCH  13  14
ATOM     14  C   ASP A  2       -0.221  -0.025   5.436  0.00  0.00    +0.490 C 
ATOM     15  OXT ASP A  2        0.198  -0.573   6.441  0.00  0.00    -0.690 OA
ATOM     16  O   ASP A  2       -1.272  -0.391   4.936  0.00  0.00    -0.700 OA
ENDBRANCH  13  14
BRANCH  13  17
ATOM     17  CB  ASP A  2        0.702   2.244   5.823  0.00  0.00    -0.030 C 
BRANCH  17  18
ATOM     18  CG  ASP A  2        1.584   3.320   5.244  0.00  0.00    +0.490 C 
ATOM     19  OD2 ASP A  2        1.827   4.323   5.892  0.00  0.00    -0.710 OA
ATOM     20  OD1 ASP A  2        2.054   3.187   4.127  0.00  0.00    -0.700 OA
ENDBRANCH  17  18
ENDBRANCH  13  17
ENDBRANCH   2  13
TORSDOF 8
ENDMDL
MODEL      175
REMARK  Name = ZINC000253588112
REMARK                            x       y       z     vdW  Elec       q    Type
REMARK                         _______ _______ _______ _____ _____    ______ ____
ROOT
ATOM      1  C   LIG    1       -1.432  -1.925   0.005  0.00  0.00    +0.280 C 
ATOM      2  O   LIG    1       -0.992  -2.437   1.265  0.00  0.00    -0.360 OA
ATOM      3  C   LIG    1       -1.020  -3.863   1.357  0.00  0.00    +0.060 C 
ATOM      4  C   LIG    1       -2.458  -4.356   1.173  0.00  0.00    +0.140 C 
ATOM      5  C   LIG    1       -2.988  -3.867  -0.179  0.00  0.00    +0.200 C 
ATOM      6  C   LIG    1       -2.886  -2.340  -0.233  0.00  0.00    +0.180 C 
ENDROOT
BRANCH   3   7
ATOM      7  C   LIG    1       -0.512  -4.290   2.709  0.00  0.00    +0.510 C 
ATOM      8  O   LIG    1       -0.368  -5.474   2.961  0.00  0.00    -0.680 OA
ATOM      9  O   LIG    1       -0.244  -3.450   3.552  0.00  0.00    -0.660 OA
ENDBRANCH   3   7
BRANCH   5  10
ATOM     10  O   LIG    1       -4.354  -4.262  -0.328  0.00  0.00    -0.550 OA
ATOM     11  H   LIG    1       -4.492  -5.219  -0.297  0.00  0.00    +0.390 HD
ENDBRANCH   5  10
BRANCH   4  12
ATOM     12  O   LIG    1       -2.481  -5.784   1.208  0.00  0.00    -0.570 OA
ATOM     13  H   LIG    1       -2.154  -6.163   2.035  0.00  0.00    +0.400 HD
ENDBRANCH   4  12
BRANCH   6  14
ATOM     14  O   LIG    1       -3.312  -1.878  -1.517  0.00  0.00    -0.550 OA
ATOM     15  H   LIG    1       -3.273  -0.918  -1.622  0.00  0.00    +0.380 HD
ENDBRANCH   6  14
BRANCH   1  16
ATOM     16  O   LIG    1       -1.339  -0.499   0.012  0.00  0.00    -0.370 OA
BRANCH  16  18
ATOM     17  C   LIG    1       -0.019   1.526   0.010  0.00  0.00    +0.040 C 
ATOM     18  C   LIG    1        0.002  -0.004   0.002  0.00  0.00    +0.180 C 
ENDBRANCH  16  18
ENDBRANCH   1  16
TORSDOF 6
ENDMDL
MODEL      176
REMARK  Name = ZINC000002560967
REMARK                            x       y       z     vdW  Elec       q    Type
REMARK                         _______ _______ _______ _____ _____    ______ ____
ROOT
ATOM      1  C   LIG    1       -0.699   1.479   1.216  0.00  0.00    +0.200 C 
ENDROOT
BRANCH   1   2
ATOM      2  N   LIG    1       -0.012   1.005   0.008  0.00  0.00    -0.610 N 
ATOM      3  H   LIG    1       -0.500   1.339  -0.810  0.00  0.00    +0.430 HD
ATOM      4  H   LIG    1        0.935   1.354   0.000  0.00  0.00    +0.450 HD
ATOM      5  H   LIG    1        0.002  -0.004   0.002  0.00  0.00    +0.420 HD
ENDBRANCH   1   2
BRANCH   1   6
ATOM      6  C   LIG    1       -2.113   0.957   1.227  0.00  0.00    +0.490 C 
ATOM      7  N   LIG    1       -2.804   0.908   2.383  0.00  0.00    -0.700 N 
ATOM      8  H   LIG    1       -2.392   1.208   3.208  0.00  0.00    +0.410 HD
ATOM      9  O   LIG    1       -2.629   0.582   0.195  0.00  0.00    -0.540 OA
BRANCH   7  10
ATOM     10  C   LIG    1       -4.179   0.401   2.393  0.00  0.00    +0.300 C 
BRANCH  10  11
ATOM     11  C   LIG    1       -4.730   0.451   3.819  0.00  0.00    -0.060 C 
BRANCH  11  12
ATOM     12  C   LIG    1       -6.144  -0.070   3.830  0.00  0.00    +0.500 C 
ATOM     13  O   LIG    1       -6.770  -0.115   4.876  0.00  0.00    -0.700 OA
ATOM     14  O   LIG    1       -6.663  -0.448   2.793  0.00  0.00    -0.690 OA
ENDBRANCH  11  12
ENDBRANCH  10  11
ENDBRANCH   7  10
ENDBRANCH   1   6
BRANCH   1  15
ATOM     15  C   LIG    1       -0.720   3.008   1.225  0.00  0.00    -0.010 C 
BRANCH  15  16
ATOM     16  C   LIG    1        0.690   3.529   1.338  0.00  0.00    +0.490 C 
ATOM     17  O   LIG    1        0.895   4.731   1.362  0.00  0.00    -0.660 OA
ATOM     18  O   LIG    1        1.624   2.749   1.405  0.00  0.00    -0.700 OA
ENDBRANCH  15  16
ENDBRANCH   1  15
TORSDOF 7
ENDMDL
MODEL      177
REMARK  Name = ZINC000002560966
REMARK                            x       y       z     vdW  Elec       q    Type
REMARK                         _______ _______ _______ _____ _____    ______ ____
ROOT
ATOM      1  N   VAL A  2        2.125  -0.091  -1.209  0.00  0.00    -0.690 N 
ATOM      2  H   VAL A  2        2.389   0.682  -0.686  0.00  0.00    +0.390 HD
ATOM      3  C   ASN A  1        3.052  -0.791  -1.893  0.00  0.00    +0.520 C 
ATOM      4  O   ASN A  1        2.722  -1.757  -2.547  0.00  0.00    -0.540 OA
ENDROOT
BRANCH   1   5
ATOM      5  CA  VAL A  2        0.718  -0.497  -1.257  0.00  0.00    +0.150 C 
BRANCH   5   7
ATOM      6  CG1 VAL A  2       -0.019   1.526   0.010  0.00  0.00    +0.030 C 
ATOM      7  CB  VAL A  2        0.002  -0.004   0.002  0.00  0.00    -0.020 C 
ATOM      8  CG2 VAL A  2       -1.433  -0.534   0.013  0.00  0.00    +0.030 C 
ENDBRANCH   5   7
BRANCH   5   9
ATOM      9  C   VAL A  2        0.063   0.101  -2.475  0.00  0.00    +0.500 C 
ATOM     10  OXT VAL A  2       -1.055  -0.257  -2.804  0.00  0.00    -0.690 OA
ATOM     11  O   VAL A  2        0.651   0.944  -3.131  0.00  0.00    -0.690 OA
ENDBRANCH   5   9
ENDBRANCH   1   5
BRANCH   3  12
ATOM     12  CA  ASN A  1        4.499  -0.373  -1.844  0.00  0.00    +0.200 C 
BRANCH  12  13
ATOM     13  N   ASN A  1        5.349  -1.504  -2.237  0.00  0.00    -0.830 NA
ATOM     14  H1  ASN A  1        6.327  -1.270  -2.151  0.00  0.00    +0.350 HD
ATOM     15  H2  ASN A  1        5.132  -1.811  -3.174  0.00  0.00    +0.350 HD
ENDBRANCH  12  13
BRANCH  12  16
ATOM     16  CB  ASN A  1        4.725   0.794  -2.807  0.00  0.00    +0.030 C 
BRANCH  16  17
ATOM     17  CG  ASN A  1        6.141   1.292  -2.669  0.00  0.00    +0.520 C 
ATOM     18  OD1 ASN A  1        6.895   0.765  -1.878  0.00  0.00    -0.550 OA
ATOM     19  ND2 ASN A  1        6.570   2.323  -3.424  0.00  0.00    -0.850 N 
ATOM     20 HD21 ASN A  1        7.481   2.643  -3.335  0.00  0.00    +0.400 HD
ATOM     21 HD22 ASN A  1        5.967   2.744  -4.057  0.00  0.00    +0.400 HD
ENDBRANCH  16  17
ENDBRANCH  12  16
ENDBRANCH   3  12
TORSDOF 7
ENDMDL
MODEL      178
REMARK  Name = ZINC000002566325
REMARK                            x       y       z     vdW  Elec       q    Type
REMARK                         _______ _______ _______ _____ _____    ______ ____
ROOT
ATOM      1  C   LIG    1        2.422   4.018  -0.010  0.00  0.00    +0.270 C 
ATOM      2  C   LIG    1        3.207   3.644  -1.275  0.00  0.00    +0.040 C 
ATOM      3  C   LIG    1        3.757   2.243  -1.090  0.00  0.00    +0.360 C 
ATOM      4  C   LIG    1        4.396   1.940   0.260  0.00  0.00    +0.360 C 
ATOM      5  O   LIG    1        5.403   2.952   0.472  0.00  0.00    -0.380 OA
ATOM      6  C   LIG    1        4.726   4.100   1.014  0.00  0.00    +0.200 C 
ATOM      7  O   LIG    1        3.369   2.187   1.250  0.00  0.00    -0.310 OA
ATOM      8  O   LIG    1        3.693   1.412  -1.964  0.00  0.00    -0.430 OA
ATOM      9  C   LIG    1        3.242   3.630   1.227  0.00  0.00    +0.170 C 
ENDROOT
BRANCH   1  15
ATOM     10  O   LIG    1        0.002  -0.004   0.002  0.00  0.00    -0.630 OA
ATOM     11  C   LIG    1       -0.014   1.211   0.009  0.00  0.00    +0.430 A 
ATOM     12  C   LIG    1       -1.304   1.933   0.031  0.00  0.00    -0.020 A 
ATOM     13  C   LIG    1       -1.301   3.278   0.039  0.00  0.00    -0.060 A 
ATOM     14  C   LIG    1       -0.007   3.993   0.024  0.00  0.00    +0.480 A 
ATOM     15  N   LIG    1        1.146   3.298   0.004  0.00  0.00    -0.390 N 
ATOM     16  O   LIG    1        0.015   5.208   0.031  0.00  0.00    -0.610 OA
ATOM     17  N   LIG    1        1.142   1.900   0.001  0.00  0.00    -0.460 NA
ENDBRANCH   1  15
TORSDOF 1
ENDMDL
MODEL      179
REMARK  Name = ZINC000003604306
REMARK                            x       y       z     vdW  Elec       q    Type
REMARK                         _______ _______ _______ _____ _____    ______ ____
ROOT
ATOM      1  C   LIG    1       -1.483   2.739  -1.283  0.00  0.00    +0.240 C 
ENDROOT
BRANCH   1   2
ATOM      2  C   LIG    1       -2.799   3.474  -1.273  0.00  0.00    +0.420 C 
ATOM      3  O   LIG    1       -2.815   4.683  -1.266  0.00  0.00    -0.440 OA
BRANCH   2   4
ATOM      4  O   LIG    1       -3.952   2.787  -1.271  0.00  0.00    -0.260 OA
BRANCH   4   5
ATOM      5  C   LIG    1       -5.101   3.511  -1.262  0.00  0.00    +0.300 A 
ATOM      6  C   LIG    1       -6.325   2.857  -1.254  0.00  0.00    -0.020 A 
ATOM      7  C   LIG    1       -7.489   3.607  -1.245  0.00  0.00    +0.090 A 
ATOM      8  C   LIG    1       -7.385   4.990  -1.243  0.00  0.00    -0.060 A 
ATOM      9  C   LIG    1       -6.133   5.574  -1.252  0.00  0.00    +0.290 A 
ATOM     10  N   LIG    1       -5.042   4.832  -1.255  0.00  0.00    -0.480 NA
ENDBRANCH   4   5
ENDBRANCH   2   4
ENDBRANCH   1   2
BRANCH   1  11
ATOM     11  O   LIG    1       -0.413   3.678  -1.401  0.00  0.00    -0.500 OA
ATOM     12  H   LIG    1       -0.374   4.322  -0.680  0.00  0.00    +0.380 HD
ENDBRANCH   1  11
BRANCH   1  13
ATOM     13  C   LIG    1       -1.330   1.951   0.019  0.00  0.00    +0.110 C 
BRANCH  13  15
ATOM     14  O   LIG    1        0.002  -0.004   0.002  0.00  0.00    -0.680 OA
ATOM     15  C   LIG    1       -0.015   1.215   0.009  0.00  0.00    +0.480 C 
ATOM     16  O   LIG    1        1.033   1.839   0.002  0.00  0.00    -0.670 OA
ENDBRANCH  13  15
BRANCH  13  17
ATOM     17  O   LIG    1       -2.400   1.011   0.136  0.00  0.00    -0.540 OA
ATOM     18  H   LIG    1       -2.439   0.367  -0.584  0.00  0.00    +0.380 HD
ENDBRANCH  13  17
ENDBRANCH   1  13
TORSDOF 7
ENDMDL
MODEL      180
REMARK  Name = ZINC000003604304
REMARK                            x       y       z     vdW  Elec       q    Type
REMARK                         _______ _______ _______ _____ _____    ______ ____
ROOT
ATOM      1  C   LIG    1       -1.483   2.739  -1.283  0.00  0.00    +0.260 C 
ENDROOT
BRANCH   1   2
ATOM      2  C   LIG    1       -2.849   3.375  -1.327  0.00  0.00    +0.430 C 
ATOM      3  O   LIG    1       -3.648   3.033  -2.167  0.00  0.00    -0.440 OA
BRANCH   2   4
ATOM      4  O   LIG    1       -3.177   4.322  -0.434  0.00  0.00    -0.270 OA
BRANCH   4   5
ATOM      5  C   LIG    1       -4.423   4.854  -0.529  0.00  0.00    +0.300 A 
ATOM      6  C   LIG    1       -4.819   5.842   0.363  0.00  0.00    -0.020 A 
ATOM      7  C   LIG    1       -6.091   6.376   0.255  0.00  0.00    +0.090 A 
ATOM      8  C   LIG    1       -6.926   5.900  -0.747  0.00  0.00    -0.060 A 
ATOM      9  C   LIG    1       -6.465   4.916  -1.599  0.00  0.00    +0.290 A 
ATOM     10  N   LIG    1       -5.245   4.430  -1.474  0.00  0.00    -0.480 NA
ENDBRANCH   4   5
ENDBRANCH   2   4
ENDBRANCH   1   2
BRANCH   1  11
ATOM     11  O   LIG    1       -1.334   1.854  -2.396  0.00  0.00    -0.520 OA
ATOM     12  H   LIG    1       -1.982   1.137  -2.418  0.00  0.00    +0.380 HD
ENDBRANCH   1  11
BRANCH   1  13
ATOM     13  C   LIG    1       -1.330   1.951   0.019  0.00  0.00    +0.120 C 
BRANCH  13  15
ATOM     14  O   LIG    1        0.002  -0.004   0.002  0.00  0.00    -0.680 OA
ATOM     15  C   LIG    1       -0.015   1.215   0.009  0.00  0.00    +0.490 C 
ATOM     16  O   LIG    1        1.033   1.839   0.002  0.00  0.00    -0.690 OA
ENDBRANCH  13  15
BRANCH  13  17
ATOM     17  O   LIG    1       -2.400   1.011   0.136  0.00  0.00    -0.550 OA
ATOM     18  H   LIG    1       -2.439   0.367  -0.584  0.00  0.00    +0.370 HD
ENDBRANCH  13  17
ENDBRANCH   1  13
TORSDOF 7
ENDMDL
MODEL      181
REMARK  Name = ZINC000003604302
REMARK                            x       y       z     vdW  Elec       q    Type
REMARK                         _______ _______ _______ _____ _____    ______ ____
ROOT
ATOM      1  C   LIG    1       -1.417   2.822   1.273  0.00  0.00    +0.260 C 
ENDROOT
BRANCH   1   2
ATOM      2  C   LIG    1       -2.779   3.462   1.347  0.00  0.00    +0.430 C 
ATOM      3  O   LIG    1       -3.533   3.177   2.247  0.00  0.00    -0.440 OA
BRANCH   2   4
ATOM      4  O   LIG    1       -3.155   4.350   0.412  0.00  0.00    -0.270 OA
BRANCH   4   5
ATOM      5  C   LIG    1       -4.395   4.889   0.537  0.00  0.00    +0.300 A 
ATOM      6  C   LIG    1       -4.843   5.808  -0.402  0.00  0.00    -0.020 A 
ATOM      7  C   LIG    1       -6.109   6.351  -0.263  0.00  0.00    +0.090 A 
ATOM      8  C   LIG    1       -6.885   5.952   0.816  0.00  0.00    -0.060 A 
ATOM      9  C   LIG    1       -6.375   5.032   1.711  0.00  0.00    +0.290 A 
ATOM     10  N   LIG    1       -5.166   4.529   1.549  0.00  0.00    -0.480 NA
ENDBRANCH   4   5
ENDBRANCH   2   4
ENDBRANCH   1   2
BRANCH   1  11
ATOM     11  O   LIG    1       -1.208   2.012   2.432  0.00  0.00    -0.520 OA
ATOM     12  H   LIG    1       -1.853   1.299   2.534  0.00  0.00    +0.380 HD
ENDBRANCH   1  11
BRANCH   1  13
ATOM     13  C   LIG    1       -1.330   1.951   0.019  0.00  0.00    +0.120 C 
BRANCH  13  15
ATOM     14  O   LIG    1        0.002  -0.004   0.002  0.00  0.00    -0.680 OA
ATOM     15  C   LIG    1       -0.015   1.215   0.009  0.00  0.00    +0.490 C 
ATOM     16  O   LIG    1        1.033   1.839   0.002  0.00  0.00    -0.690 OA
ENDBRANCH  13  15
BRANCH  13  17
ATOM     17  O   LIG    1       -2.403   1.007   0.019  0.00  0.00    -0.550 OA
ATOM     18  H   LIG    1       -2.403   0.412   0.781  0.00  0.00    +0.370 HD
ENDBRANCH  13  17
ENDBRANCH   1  13
TORSDOF 7
ENDMDL
MODEL      182
REMARK  Name = ZINC000003604300
REMARK                            x       y       z     vdW  Elec       q    Type
REMARK                         _______ _______ _______ _____ _____    ______ ____
ROOT
ATOM      1  C   LIG    1       -1.417   2.822   1.273  0.00  0.00    +0.240 C 
ENDROOT
BRANCH   1   2
ATOM      2  C   LIG    1       -2.732   3.558   1.284  0.00  0.00    +0.420 C 
ATOM      3  O   LIG    1       -2.751   4.763   1.199  0.00  0.00    -0.440 OA
BRANCH   2   4
ATOM      4  O   LIG    1       -3.883   2.874   1.387  0.00  0.00    -0.260 OA
BRANCH   4   5
ATOM      5  C   LIG    1       -5.032   3.598   1.390  0.00  0.00    +0.300 A 
ATOM      6  C   LIG    1       -6.253   2.947   1.500  0.00  0.00    -0.020 A 
ATOM      7  C   LIG    1       -7.418   3.697   1.502  0.00  0.00    +0.090 A 
ATOM      8  C   LIG    1       -7.317   5.077   1.393  0.00  0.00    -0.060 A 
ATOM      9  C   LIG    1       -6.067   5.656   1.287  0.00  0.00    +0.290 A 
ATOM     10  N   LIG    1       -4.976   4.916   1.294  0.00  0.00    -0.490 NA
ENDBRANCH   4   5
ENDBRANCH   2   4
ENDBRANCH   1   2
BRANCH   1  11
ATOM     11  O   LIG    1       -0.343   3.766   1.273  0.00  0.00    -0.500 OA
ATOM     12  H   LIG    1       -0.343   4.361   0.512  0.00  0.00    +0.380 HD
ENDBRANCH   1  11
BRANCH   1  13
ATOM     13  C   LIG    1       -1.330   1.951   0.019  0.00  0.00    +0.110 C 
BRANCH  13  15
ATOM     14  O   LIG    1        0.002  -0.004   0.002  0.00  0.00    -0.680 OA
ATOM     15  C   LIG    1       -0.015   1.215   0.009  0.00  0.00    +0.480 C 
ATOM     16  O   LIG    1        1.033   1.839   0.002  0.00  0.00    -0.670 OA
ENDBRANCH  13  15
BRANCH  13  17
ATOM     17  O   LIG    1       -2.403   1.007   0.019  0.00  0.00    -0.540 OA
ATOM     18  H   LIG    1       -2.403   0.412   0.781  0.00  0.00    +0.370 HD
ENDBRANCH  13  17
ENDBRANCH   1  13
TORSDOF 7
ENDMDL
MODEL      183
REMARK  Name = ZINC000022126948
REMARK                            x       y       z     vdW  Elec       q    Type
REMARK                         _______ _______ _______ _____ _____    ______ ____
ROOT
ATOM      1  C   LIG    1       -2.476   0.936   0.015  0.00  0.00    +0.000 C 
ATOM      2  C   LIG    1       -3.802   1.687   0.151  0.00  0.00    +0.230 C 
ATOM      3  N   LIG    1       -4.117   2.371  -1.103  0.00  0.00    -0.630 NA
ATOM      4  C   LIG    1       -3.790   1.871  -2.252  0.00  0.00    +0.620 C 
ATOM      5  N   LIG    1       -3.100   0.682  -2.356  0.00  0.00    -0.710 N 
ATOM      6  H   LIG    1       -3.062   0.219  -3.208  0.00  0.00    +0.400 HD
ATOM      7  C   LIG    1       -2.479   0.158  -1.278  0.00  0.00    +0.540 C 
ATOM      8  O   LIG    1       -1.931  -0.921  -1.350  0.00  0.00    -0.470 OA
ENDROOT
BRANCH   4   9
ATOM      9  N   LIG    1       -4.138   2.544  -3.398  0.00  0.00    -0.610 N 
ATOM     10  C   LIG    1       -4.971   3.756  -3.341  0.00  0.00    +0.290 C 
ATOM     11  C   LIG    1       -4.280   4.856  -4.154  0.00  0.00    +0.210 C 
ATOM     12  O   LIG    1       -3.974   4.357  -5.458  0.00  0.00    -0.380 OA
ATOM     13  C   LIG    1       -3.061   3.257  -5.464  0.00  0.00    +0.220 C 
ATOM     14  C   LIG    1       -3.685   2.078  -4.718  0.00  0.00    +0.250 C 
ENDBRANCH   4   9
BRANCH   1  15
ATOM     15  C   LIG    1       -1.319   1.937   0.008  0.00  0.00    -0.040 C 
BRANCH  15  17
ATOM     16  O   LIG    1       -0.002  -0.028  -0.010  0.00  0.00    -0.670 OA
ATOM     17  C   LIG    1       -0.009   1.192  -0.006  0.00  0.00    +0.480 C 
ATOM     18  O   LIG    1        1.043   1.808  -0.019  0.00  0.00    -0.710 OA
ENDBRANCH  15  17
ENDBRANCH   1  15
TORSDOF 3
ENDMDL
MODEL      184
REMARK  Name = ZINC000022126945
REMARK                            x       y       z     vdW  Elec       q    Type
REMARK                         _______ _______ _______ _____ _____    ______ ____
ROOT
ATOM      1  C   LIG    1       -2.479   0.941   0.019  0.00  0.00    +0.000 C 
ATOM      2  C   LIG    1       -3.812   1.683  -0.092  0.00  0.00    +0.230 C 
ATOM      3  N   LIG    1       -4.115   2.354   1.172  0.00  0.00    -0.630 NA
ATOM      4  C   LIG    1       -3.768   1.846   2.312  0.00  0.00    +0.620 C 
ATOM      5  N   LIG    1       -3.069   0.661   2.397  0.00  0.00    -0.710 N 
ATOM      6  H   LIG    1       -3.016   0.191   3.244  0.00  0.00    +0.400 HD
ATOM      7  C   LIG    1       -2.458   0.152   1.306  0.00  0.00    +0.540 C 
ATOM      8  O   LIG    1       -1.902  -0.924   1.360  0.00  0.00    -0.470 OA
ENDROOT
BRANCH   4   9
ATOM      9  N   LIG    1       -4.106   2.507   3.469  0.00  0.00    -0.610 N 
ATOM     10  C   LIG    1       -3.727   1.970   4.786  0.00  0.00    +0.250 C 
ATOM     11  C   LIG    1       -3.045   3.087   5.585  0.00  0.00    +0.220 C 
ATOM     12  O   LIG    1       -3.885   4.244   5.588  0.00  0.00    -0.380 OA
ATOM     13  C   LIG    1       -4.120   4.800   4.292  0.00  0.00    +0.210 C 
ATOM     14  C   LIG    1       -4.852   3.774   3.427  0.00  0.00    +0.290 C 
ENDBRANCH   4   9
BRANCH   1  15
ATOM     15  C   LIG    1       -1.330   1.951   0.019  0.00  0.00    -0.040 C 
BRANCH  15  17
ATOM     16  O   LIG    1        0.002  -0.004   0.002  0.00  0.00    -0.670 OA
ATOM     17  C   LIG    1       -0.015   1.215   0.009  0.00  0.00    +0.480 C 
ATOM     18  O   LIG    1        1.033   1.839   0.002  0.00  0.00    -0.710 OA
ENDBRANCH  15  17
ENDBRANCH   1  15
TORSDOF 3
ENDMDL
MODEL      185
REMARK  Name = ZINC000001087986
REMARK                            x       y       z     vdW  Elec       q    Type
REMARK                         _______ _______ _______ _____ _____    ______ ____
ROOT
ATOM      1  C   LIG    1       -6.210   1.690   0.041  0.00  0.00    +0.170 A 
ATOM      2  C   LIG    1       -6.235   3.049   0.043  0.00  0.00    -0.060 A 
ATOM      3  C   LIG    1       -7.539   3.722   0.053  0.00  0.00    +0.550 A 
ATOM      4  N   LIG    1       -8.660   2.971   0.060  0.00  0.00    -0.660 N 
ATOM      5  H   LIG    1       -9.529   3.402   0.067  0.00  0.00    +0.430 HD
ATOM      6  C   LIG    1       -8.580   1.629   0.058  0.00  0.00    +0.710 A 
ATOM      7  O   LIG    1       -9.605   0.975   0.064  0.00  0.00    -0.540 OA
ATOM      8  O   LIG    1       -7.608   4.937   0.054  0.00  0.00    -0.500 OA
ATOM      9  N   LIG    1       -7.397   0.991   0.043  0.00  0.00    -0.620 N 
ATOM     10  H   LIG    1       -7.379   0.021   0.041  0.00  0.00    +0.440 HD
ENDROOT
BRANCH   1  13
ATOM     11  N   LIG    1       -3.757   1.656   0.029  0.00  0.00    -0.700 N 
ATOM     12  H   LIG    1       -3.771   2.626   0.034  0.00  0.00    +0.400 HD
ATOM     13  C   LIG    1       -4.915   0.966   0.031  0.00  0.00    +0.550 C 
ATOM     14  O   LIG    1       -4.899  -0.248   0.024  0.00  0.00    -0.520 OA
BRANCH  11  15
ATOM     15  C   LIG    1       -2.479   0.941   0.019  0.00  0.00    +0.300 C 
BRANCH  15  16
ATOM     16  C   LIG    1       -1.330   1.951   0.019  0.00  0.00    -0.060 C 
BRANCH  16  18
ATOM     17  O   LIG    1        0.002  -0.004   0.002  0.00  0.00    -0.690 OA
ATOM     18  C   LIG    1       -0.015   1.215   0.009  0.00  0.00    +0.500 C 
ATOM     19  O   LIG    1        1.033   1.839   0.002  0.00  0.00    -0.700 OA
ENDBRANCH  16  18
ENDBRANCH  15  16
ENDBRANCH  11  15
ENDBRANCH   1  13
TORSDOF 4
ENDMDL
MODEL      186
REMARK  Name = ZINC000004010456
REMARK                            x       y       z     vdW  Elec       q    Type
REMARK                         _______ _______ _______ _____ _____    ______ ____
ROOT
ATOM      1  C   LIG    1        2.422   4.018  -0.010  0.00  0.00    +0.270 C 
ATOM      2  C   LIG    1        3.242   3.630   1.228  0.00  0.00    +0.040 C 
ATOM      3  C   LIG    1        4.670   4.093   1.009  0.00  0.00    +0.330 C 
ATOM      4  C   LIG    1        5.271   3.807  -0.362  0.00  0.00    +0.350 C 
ATOM      5  O   LIG    1        5.119   2.389  -0.588  0.00  0.00    -0.370 OA
ATOM      6  C   LIG    1        3.787   2.194  -1.096  0.00  0.00    +0.240 C 
ATOM      7  O   LIG    1        4.403   4.458  -1.320  0.00  0.00    -0.360 OA
ATOM      8  O   LIG    1        5.297   4.658   1.873  0.00  0.00    -0.440 OA
ATOM      9  C   LIG    1        3.206   3.645  -1.274  0.00  0.00    +0.170 C 
ENDROOT
BRANCH   1  15
ATOM     10  O   LIG    1        0.002  -0.004   0.002  0.00  0.00    -0.620 OA
ATOM     11  C   LIG    1       -0.014   1.211   0.009  0.00  0.00    +0.440 A 
ATOM     12  C   LIG    1       -1.304   1.933   0.031  0.00  0.00    -0.020 A 
ATOM     13  C   LIG    1       -1.301   3.278   0.039  0.00  0.00    -0.050 A 
ATOM     14  C   LIG    1       -0.007   3.993   0.024  0.00  0.00    +0.490 A 
ATOM     15  N   LIG    1        1.146   3.298   0.004  0.00  0.00    -0.390 N 
ATOM     16  O   LIG    1        0.015   5.208   0.031  0.00  0.00    -0.600 OA
ATOM     17  N   LIG    1        1.142   1.900   0.001  0.00  0.00    -0.490 NA
ENDBRANCH   1  15
TORSDOF 1
ENDMDL
MODEL      187
REMARK  Name = ZINC000004143498
REMARK                            x       y       z     vdW  Elec       q    Type
REMARK                         _______ _______ _______ _____ _____    ______ ____
ROOT
ATOM      1  C   LIG    1       -0.006  -0.006  -0.074  0.00  0.00    +0.130 A 
ATOM      2  C   LIG    1       -1.150  -0.707   0.105  0.00  0.00    -0.490 A 
ATOM      3  N   LIG    1       -1.101  -2.078   0.173  0.00  0.00    -0.580 N 
ATOM      4  H   LIG    1       -1.919  -2.582   0.302  0.00  0.00    +0.440 HD
ATOM      5  C   LIG    1        0.072  -2.728   0.064  0.00  0.00    +0.690 A 
ATOM      6  N   LIG    1        1.224  -2.056  -0.116  0.00  0.00    -0.650 N 
ATOM      7  H   LIG    1        2.059  -2.542  -0.193  0.00  0.00    +0.430 HD
ATOM      8  O   LIG    1        0.091  -3.942   0.127  0.00  0.00    -0.560 OA
ATOM      9  C   LIG    1        1.222  -0.710  -0.195  0.00  0.00    +0.550 A 
ATOM     10  O   LIG    1        2.265  -0.103  -0.357  0.00  0.00    -0.520 OA
ENDROOT
BRANCH   2  11
ATOM     11  S   LIG    1       -2.691   0.134   0.250  0.00  0.00    +2.690 S 
ATOM     12  O   LIG    1       -3.243   0.233  -1.092  0.00  0.00    -1.040 OA
ATOM     13  O   LIG    1       -2.404   1.441   0.820  0.00  0.00    -1.040 OA
ATOM     14  O   LIG    1       -3.527  -0.672   1.127  0.00  0.00    -1.050 OA
ENDBRANCH   2  11
BRANCH   1  15
ATOM     15  N   LIG    1       -0.034   1.399  -0.147  0.00  0.00    -0.840 N 
ATOM     16  H   LIG    1       -0.866   1.858  -0.341  0.00  0.00    +0.420 HD
ATOM     17  H   LIG    1        0.780   1.908  -0.006  0.00  0.00    +0.400 HD
ENDBRANCH   1  15
TORSDOF 2
ENDMDL
MODEL      188
REMARK  Name = ZINC000022060718
REMARK                            x       y       z     vdW  Elec       q    Type
REMARK                         _______ _______ _______ _____ _____    ______ ____
ROOT
ATOM      1  C   LIG    1       -1.543  -1.963   0.005  0.00  0.00    +0.050 C 
ATOM      2  N   LIG    1       -0.891  -2.434   1.233  0.00  0.00    -0.690 N 
ATOM      3  H   LIG    1        0.070  -2.490   1.355  0.00  0.00    +0.410 HD
ATOM      4  C   LIG    1       -1.796  -2.775   2.167  0.00  0.00    +0.520 C 
ATOM      5  C   LIG    1       -3.196  -2.569   1.634  0.00  0.00    -0.050 C 
ATOM      6  C   LIG    1       -4.081  -3.771   1.974  0.00  0.00    +0.060 C 
ATOM      7  O   LIG    1       -1.528  -3.188   3.275  0.00  0.00    -0.560 OA
ATOM      8  C   LIG    1       -3.006  -2.450   0.104  0.00  0.00    +0.210 C 
ENDROOT
BRANCH   1   9
ATOM      9  C   LIG    1       -0.875  -2.563  -1.205  0.00  0.00    +0.530 C 
ATOM     10  O   LIG    1       -1.221  -2.223  -2.323  0.00  0.00    -0.680 OA
ATOM     11  O   LIG    1        0.013  -3.387  -1.065  0.00  0.00    -0.680 OA
ENDBRANCH   1   9
BRANCH   8  12
ATOM     12  O   LIG    1       -3.168  -3.719  -0.533  0.00  0.00    -0.530 OA
ATOM     13  H   LIG    1       -4.045  -4.108  -0.416  0.00  0.00    +0.370 HD
ENDBRANCH   8  12
BRANCH   1  14
ATOM     14  C   LIG    1       -1.496  -0.436  -0.067  0.00  0.00    +0.240 C 
BRANCH  14  16
ATOM     15  C   LIG    1        0.713  -0.417  -1.233  0.00  0.00    +0.030 C 
ATOM     16  C   LIG    1       -0.043   0.035   0.018  0.00  0.00    -0.060 C 
ATOM     17  C   LIG    1       -0.006   1.561   0.112  0.00  0.00    +0.010 C 
ENDBRANCH  14  16
BRANCH  14  18
ATOM     18  O   LIG    1       -2.240   0.116   1.022  0.00  0.00    -0.560 OA
ATOM     19  H   LIG    1       -1.908  -0.139   1.894  0.00  0.00    +0.360 HD
ENDBRANCH  14  18
ENDBRANCH   1  14
TORSDOF 5
ENDMDL
MODEL      189
REMARK  Name = ZINC000004228258
REMARK                            x       y       z     vdW  Elec       q    Type
REMARK                         _______ _______ _______ _____ _____    ______ ____
ROOT
ATOM      1  C   LIG    1       -1.413  -2.063   0.004  0.00  0.00    +0.200 C 
ATOM      2  C   LIG    1       -2.850  -2.602   0.033  0.00  0.00    +0.250 C 
ATOM      3  N   LIG    1       -3.477  -2.183   1.294  0.00  0.00    -0.730 N 
ATOM      4  H   LIG    1       -4.373  -1.812   1.299  0.00  0.00    +0.390 HD
ATOM      5  C   LIG    1       -2.769  -2.325   2.478  0.00  0.00    +0.380 A 
ATOM      6  C   LIG    1       -1.394  -2.510   2.442  0.00  0.00    -0.150 A 
ATOM      7  C   LIG    1       -0.695  -2.648   3.646  0.00  0.00    +0.520 A 
ATOM      8  N   LIG    1       -1.389  -2.597   4.804  0.00  0.00    -0.710 NA
ATOM      9  C   LIG    1       -2.738  -2.416   4.786  0.00  0.00    +0.580 A 
ATOM     10  O   LIG    1        0.516  -2.812   3.650  0.00  0.00    -0.630 OA
ATOM     11  N   LIG    1       -3.401  -2.284   3.657  0.00  0.00    -0.680 NA
ATOM     12  N   LIG    1       -0.716  -2.558   1.203  0.00  0.00    -0.720 N 
ATOM     13  H   LIG    1        0.186  -2.909   1.144  0.00  0.00    +0.400 HD
ENDROOT
BRANCH   9  14
ATOM     14  N   LIG    1       -3.423  -2.368   5.973  0.00  0.00    -0.840 N 
ATOM     15  H   LIG    1       -4.384  -2.239   5.974  0.00  0.00    +0.390 HD
ATOM     16  H   LIG    1       -2.946  -2.463   6.813  0.00  0.00    +0.400 HD
ENDBRANCH   9  14
BRANCH   1  17
ATOM     17  C   LIG    1       -1.433  -0.534   0.013  0.00  0.00    +0.160 C 
BRANCH  17  19
ATOM     18  C   LIG    1       -0.019   1.526   0.010  0.00  0.00    -0.010 C 
ATOM     19  C   LIG    1        0.002  -0.004   0.002  0.00  0.00    +0.170 C 
BRANCH  19  20
ATOM     20  O   LIG    1        0.693  -0.477   1.160  0.00  0.00    -0.530 OA
ATOM     21  H   LIG    1        0.294  -0.202   1.996  0.00  0.00    +0.380 HD
ENDBRANCH  19  20
ENDBRANCH  17  19
BRANCH  17  22
ATOM     22  O   LIG    1       -2.124  -0.060  -1.145  0.00  0.00    -0.560 OA
ATOM     23  H   LIG    1       -1.725  -0.336  -1.981  0.00  0.00    +0.370 HD
ENDBRANCH  17  22
ENDBRANCH   1  17
TORSDOF 5
ENDMDL
MODEL      190
REMARK  Name = ZINC000035193491
REMARK                            x       y       z     vdW  Elec       q    Type
REMARK                         _______ _______ _______ _____ _____    ______ ____
ROOT
ATOM      1  C   LIG    1        0.037   5.458   0.032  0.00  0.00    +0.280 C 
ENDROOT
BRANCH   1   6
ATOM      2  O   LIG    1        0.002  -0.004   0.002  0.00  0.00    -0.610 OA
ATOM      3  C   LIG    1       -0.014   1.212   0.009  0.00  0.00    +0.630 A 
ATOM      4  N   LIG    1       -1.195   1.859   0.029  0.00  0.00    -0.690 NA
ATOM      5  C   LIG    1       -1.226   3.207   0.037  0.00  0.00    +0.490 A 
ATOM      6  C   LIG    1        0.037   3.951   0.023  0.00  0.00    -0.040 A 
ATOM      7  N   LIG    1        1.161   3.290   0.004  0.00  0.00    -0.180 NA
ATOM      8  O   LIG    1       -2.289   3.799   0.056  0.00  0.00    -0.560 OA
ATOM      9  N   LIG    1        1.147   1.890   0.001  0.00  0.00    -0.580 N 
ATOM     10  H   LIG    1        1.986   1.403  -0.013  0.00  0.00    +0.410 HD
ENDBRANCH   1   6
BRANCH   1  11
ATOM     11  O   LIG    1       -0.620   5.927   1.212  0.00  0.00    -0.510 OA
ATOM     12  H   LIG    1       -0.204   5.637   2.035  0.00  0.00    +0.370 HD
ENDBRANCH   1  11
BRANCH   1  13
ATOM     13  C   LIG    1        1.480   5.968   0.015  0.00  0.00    +0.160 C 
BRANCH  13  14
ATOM     14  O   LIG    1        2.137   5.499  -1.164  0.00  0.00    -0.530 OA
ATOM     15  H   LIG    1        1.721   5.789  -1.988  0.00  0.00    +0.370 HD
ENDBRANCH  13  14
BRANCH  13  16
ATOM     16  C   LIG    1        1.480   7.498   0.024  0.00  0.00    +0.180 C 
BRANCH  16  17
ATOM     17  O   LIG    1        0.823   7.967   1.203  0.00  0.00    -0.530 OA
ATOM     18  H   LIG    1        1.238   7.677   2.027  0.00  0.00    +0.370 HD
ENDBRANCH  16  17
BRANCH  16  19
ATOM     19  C   LIG    1        2.922   8.008   0.006  0.00  0.00    +0.160 C 
BRANCH  19  20
ATOM     20  O   LIG    1        2.922   9.433  -0.103  0.00  0.00    -0.570 OA
ATOM     21  H   LIG    1        3.805   9.826  -0.120  0.00  0.00    +0.380 HD
ENDBRANCH  19  20
ENDBRANCH  16  19
ENDBRANCH  13  16
ENDBRANCH   1  13
TORSDOF 8
ENDMDL
MODEL      191
REMARK  Name = ZINC000035193496
REMARK                            x       y       z     vdW  Elec       q    Type
REMARK                         _______ _______ _______ _____ _____    ______ ____
ROOT
ATOM      1  C   LIG    1        0.037   5.458   0.032  0.00  0.00    +0.300 C 
ENDROOT
BRANCH   1   6
ATOM      2  O   LIG    1        0.002  -0.004   0.002  0.00  0.00    -0.610 OA
ATOM      3  C   LIG    1       -0.014   1.212   0.009  0.00  0.00    +0.630 A 
ATOM      4  N   LIG    1       -1.195   1.859   0.029  0.00  0.00    -0.690 NA
ATOM      5  C   LIG    1       -1.226   3.207   0.037  0.00  0.00    +0.490 A 
ATOM      6  C   LIG    1        0.037   3.951   0.023  0.00  0.00    -0.040 A 
ATOM      7  N   LIG    1        1.161   3.290   0.004  0.00  0.00    -0.180 NA
ATOM      8  O   LIG    1       -2.289   3.799   0.056  0.00  0.00    -0.560 OA
ATOM      9  N   LIG    1        1.147   1.890   0.001  0.00  0.00    -0.580 N 
ATOM     10  H   LIG    1        1.986   1.403  -0.013  0.00  0.00    +0.410 HD
ENDBRANCH   1   6
BRANCH   1  11
ATOM     11  O   LIG    1       -0.620   5.927   1.212  0.00  0.00    -0.530 OA
ATOM     12  H   LIG    1       -0.204   5.637   2.035  0.00  0.00    +0.360 HD
ENDBRANCH   1  11
BRANCH   1  13
ATOM     13  C   LIG    1        1.480   5.968   0.015  0.00  0.00    +0.170 C 
BRANCH  13  14
ATOM     14  O   LIG    1        2.202   5.392   1.105  0.00  0.00    -0.530 OA
ATOM     15  H   LIG    1        1.836   5.602   1.975  0.00  0.00    +0.370 HD
ENDBRANCH  13  14
BRANCH  13  16
ATOM     16  C   LIG    1        1.483   7.492   0.150  0.00  0.00    +0.190 C 
BRANCH  16  17
ATOM     17  O   LIG    1        0.761   8.068  -0.940  0.00  0.00    -0.540 OA
ATOM     18  H   LIG    1        1.127   7.858  -1.810  0.00  0.00    +0.370 HD
ENDBRANCH  16  17
BRANCH  16  19
ATOM     19  C   LIG    1        2.926   8.002   0.132  0.00  0.00    +0.160 C 
BRANCH  19  20
ATOM     20  O   LIG    1        2.936   9.411   0.374  0.00  0.00    -0.570 OA
ATOM     21  H   LIG    1        3.820   9.803   0.377  0.00  0.00    +0.380 HD
ENDBRANCH  19  20
ENDBRANCH  16  19
ENDBRANCH  13  16
ENDBRANCH   1  13
TORSDOF 8
ENDMDL
MODEL      192
REMARK  Name = ZINC000035193494
REMARK                            x       y       z     vdW  Elec       q    Type
REMARK                         _______ _______ _______ _____ _____    ______ ____
ROOT
ATOM      1  C   LIG    1        0.037   5.458   0.032  0.00  0.00    +0.290 C 
ENDROOT
BRANCH   1   6
ATOM      2  O   LIG    1        0.002  -0.004   0.002  0.00  0.00    -0.610 OA
ATOM      3  C   LIG    1       -0.014   1.212   0.009  0.00  0.00    +0.630 A 
ATOM      4  N   LIG    1       -1.195   1.859   0.029  0.00  0.00    -0.690 NA
ATOM      5  C   LIG    1       -1.226   3.207   0.037  0.00  0.00    +0.490 A 
ATOM      6  C   LIG    1        0.037   3.951   0.023  0.00  0.00    -0.040 A 
ATOM      7  N   LIG    1        1.161   3.290   0.004  0.00  0.00    -0.180 NA
ATOM      8  O   LIG    1       -2.289   3.799   0.056  0.00  0.00    -0.560 OA
ATOM      9  N   LIG    1        1.147   1.890   0.001  0.00  0.00    -0.580 N 
ATOM     10  H   LIG    1        1.986   1.403  -0.013  0.00  0.00    +0.410 HD
ENDBRANCH   1   6
BRANCH   1  11
ATOM     11  O   LIG    1       -0.620   5.927   1.212  0.00  0.00    -0.510 OA
ATOM     12  H   LIG    1       -0.204   5.637   2.035  0.00  0.00    +0.360 HD
ENDBRANCH   1  11
BRANCH   1  13
ATOM     13  C   LIG    1        1.480   5.968   0.015  0.00  0.00    +0.170 C 
BRANCH  13  14
ATOM     14  O   LIG    1        2.202   5.392   1.105  0.00  0.00    -0.530 OA
ATOM     15  H   LIG    1        1.836   5.602   1.975  0.00  0.00    +0.360 HD
ENDBRANCH  13  14
BRANCH  13  16
ATOM     16  C   LIG    1        1.483   7.492   0.150  0.00  0.00    +0.190 C 
BRANCH  16  17
ATOM     17  O   LIG    1        0.760   7.868   1.323  0.00  0.00    -0.530 OA
ATOM     18  H   LIG    1        1.126   7.508   2.143  0.00  0.00    +0.360 HD
ENDBRANCH  16  17
BRANCH  16  19
ATOM     19  C   LIG    1        2.925   7.991   0.257  0.00  0.00    +0.150 C 
BRANCH  19  20
ATOM     20  O   LIG    1        2.936   9.420   0.266  0.00  0.00    -0.570 OA
ATOM     21  H   LIG    1        3.820   9.807   0.333  0.00  0.00    +0.380 HD
ENDBRANCH  19  20
ENDBRANCH  16  19
ENDBRANCH  13  16
ENDBRANCH   1  13
TORSDOF 8
ENDMDL
MODEL      193
REMARK  Name = ZINC000004403777
REMARK                            x       y       z     vdW  Elec       q    Type
REMARK                         _______ _______ _______ _____ _____    ______ ____
ROOT
ATOM      1  C   LIG    1       -1.330   1.951   0.019  0.00  0.00    +0.100 C 
ATOM      2  O   LIG    1       -1.096   3.362  -0.076  0.00  0.00    -0.350 OA
ATOM      3  C   LIG    1       -2.273   4.167   0.001  0.00  0.00    +0.380 C 
ATOM      4  O   LIG    1       -2.983   3.895   1.215  0.00  0.00    -0.390 OA
ATOM      5  C   LIG    1       -3.347   2.522   1.347  0.00  0.00    +0.110 C 
ATOM      6  C   LIG    1       -4.080   2.251   2.660  0.00  0.00    +0.180 C 
ATOM      7  O   LIG    1       -4.314   0.839   2.756  0.00  0.00    -0.380 OA
ATOM      8  C   LIG    1       -3.136   0.035   2.679  0.00  0.00    +0.390 C 
ATOM      9  O   LIG    1       -2.426   0.307   1.465  0.00  0.00    -0.350 OA
ATOM     10  C   LIG    1       -2.063   1.678   1.331  0.00  0.00    +0.120 C 
ENDROOT
BRANCH   1  12
ATOM     11  O   LIG    1        0.002  -0.004   0.002  0.00  0.00    -0.670 OA
ATOM     12  C   LIG    1       -0.015   1.215   0.009  0.00  0.00    +0.510 C 
ATOM     13  O   LIG    1        1.033   1.839   0.002  0.00  0.00    -0.670 OA
ENDBRANCH   1  12
BRANCH   6  14
ATOM     14  C   LIG    1       -5.415   2.998   2.671  0.00  0.00    +0.210 C 
BRANCH  14  15
ATOM     15  O   LIG    1       -6.042   2.836   3.945  0.00  0.00    -0.570 OA
ATOM     16  H   LIG    1       -6.895   3.284   4.023  0.00  0.00    +0.380 HD
ENDBRANCH  14  15
ENDBRANCH   6  14
TORSDOF 3
ENDMDL
MODEL      194
REMARK  Name = ZINC000004403780
REMARK                            x       y       z     vdW  Elec       q    Type
REMARK                         _______ _______ _______ _____ _____    ______ ____
ROOT
ATOM      1  C   LIG    1       -1.330   1.951   0.019  0.00  0.00    +0.040 C 
ATOM      2  O   LIG    1       -1.092   3.358  -0.088  0.00  0.00    -0.350 OA
ATOM      3  C   LIG    1       -2.283   4.147  -0.038  0.00  0.00    +0.370 C 
ATOM      4  O   LIG    1       -2.963   3.904   1.195  0.00  0.00    -0.380 OA
ATOM      5  C   LIG    1       -3.327   2.535   1.395  0.00  0.00    +0.160 C 
ATOM      6  C   LIG    1       -4.300   2.104   0.293  0.00  0.00    +0.130 C 
ATOM      7  O   LIG    1       -4.533   0.685   0.422  0.00  0.00    -0.390 OA
ATOM      8  C   LIG    1       -3.345  -0.108   0.348  0.00  0.00    +0.400 C 
ATOM      9  O   LIG    1       -2.446   0.287   1.387  0.00  0.00    -0.350 OA
ATOM     10  C   LIG    1       -2.067   1.665   1.331  0.00  0.00    +0.180 C 
ENDROOT
BRANCH   1  12
ATOM     11  O   LIG    1        0.002  -0.004   0.002  0.00  0.00    -0.670 OA
ATOM     12  C   LIG    1       -0.015   1.215   0.009  0.00  0.00    +0.510 C 
ATOM     13  O   LIG    1        1.033   1.839   0.002  0.00  0.00    -0.670 OA
ENDBRANCH   1  12
BRANCH   6  14
ATOM     14  C   LIG    1       -5.625   2.855   0.436  0.00  0.00    +0.220 C 
BRANCH  14  15
ATOM     15  O   LIG    1       -6.487   2.514  -0.652  0.00  0.00    -0.570 OA
ATOM     16  H   LIG    1       -7.347   2.955  -0.626  0.00  0.00    +0.380 HD
ENDBRANCH  14  15
ENDBRANCH   6  14
TORSDOF 3
ENDMDL
MODEL      195
REMARK  Name = ZINC000004593522
REMARK                            x       y       z     vdW  Elec       q    Type
REMARK                         _______ _______ _______ _____ _____    ______ ____
ROOT
ATOM      1  N   LIG    1       -2.082  -0.162   1.273  0.00  0.00    -0.610 N 
ATOM      2  C   LIG    1       -1.689  -0.502   2.537  0.00  0.00    +0.710 C 
ATOM      3  N   LIG    1       -2.307   0.271   3.493  0.00  0.00    -0.740 N 
ATOM      4  H   LIG    1       -2.383   0.098   4.444  0.00  0.00    +0.420 HD
ATOM      5  C   LIG    1       -2.803   1.368   2.769  0.00  0.00    +0.370 C 
ATOM      6  N   LIG    1       -3.715   2.430   2.841  0.00  0.00    -0.720 N 
ATOM      7  H   LIG    1       -4.120   2.811   3.636  0.00  0.00    +0.430 HD
ATOM      8  C   LIG    1       -3.907   2.812   1.537  0.00  0.00    +0.730 C 
ATOM      9  N   LIG    1       -3.428   1.886   0.655  0.00  0.00    -0.740 N 
ATOM     10  H   LIG    1       -3.239   2.016  -0.288  0.00  0.00    +0.430 HD
ATOM     11  O   LIG    1       -4.442   3.853   1.206  0.00  0.00    -0.550 OA
ATOM     12  O   LIG    1       -0.888  -1.381   2.787  0.00  0.00    -0.490 OA
ATOM     13  C   LIG    1       -3.283   0.657   1.443  0.00  0.00    +0.420 C 
ENDROOT
BRANCH   1  14
ATOM     14  C   LIG    1       -1.433  -0.534   0.013  0.00  0.00    +0.190 C 
BRANCH  14  15
ATOM     15  C   LIG    1       -1.416  -2.035  -0.119  0.00  0.00    +0.480 C 
ATOM     16  O   LIG    1       -1.451  -2.550  -1.224  0.00  0.00    -0.700 OA
ATOM     17  O   LIG    1       -1.367  -2.734   0.878  0.00  0.00    -0.650 OA
ENDBRANCH  14  15
BRANCH  14  19
ATOM     18  C   LIG    1       -0.019   1.526   0.010  0.00  0.00    +0.010 C 
ATOM     19  C   LIG    1        0.002  -0.004   0.002  0.00  0.00    +0.020 C 
ENDBRANCH  14  19
ENDBRANCH   1  14
TORSDOF 3
ENDMDL
MODEL      196
REMARK  Name = ZINC000004593520
REMARK                            x       y       z     vdW  Elec       q    Type
REMARK                         _______ _______ _______ _____ _____    ______ ____
ROOT
ATOM      1  N   LIG    1       -2.082  -0.162   1.273  0.00  0.00    -0.600 N 
ATOM      2  C   LIG    1       -1.662  -0.517   2.494  0.00  0.00    +0.700 C 
ATOM      3  N   LIG    1       -2.427  -0.051   3.489  0.00  0.00    -0.750 N 
ATOM      4  H   LIG    1       -2.276  -0.208   4.434  0.00  0.00    +0.420 HD
ATOM      5  C   LIG    1       -3.532   0.737   2.924  0.00  0.00    +0.460 C 
ATOM      6  N   LIG    1       -4.802   0.025   3.130  0.00  0.00    -0.740 N 
ATOM      7  H   LIG    1       -5.240  -0.105   3.986  0.00  0.00    +0.430 HD
ATOM      8  C   LIG    1       -5.259  -0.415   1.952  0.00  0.00    +0.710 C 
ATOM      9  N   LIG    1       -4.471  -0.108   0.913  0.00  0.00    -0.740 N 
ATOM     10  H   LIG    1       -4.644  -0.345  -0.011  0.00  0.00    +0.430 HD
ATOM     11  O   LIG    1       -6.297  -1.038   1.834  0.00  0.00    -0.590 OA
ATOM     12  O   LIG    1       -0.675  -1.202   2.682  0.00  0.00    -0.530 OA
ATOM     13  C   LIG    1       -3.290   0.665   1.395  0.00  0.00    +0.450 C 
ENDROOT
BRANCH   1  14
ATOM     14  C   LIG    1       -1.433  -0.534   0.013  0.00  0.00    +0.190 C 
BRANCH  14  15
ATOM     15  C   LIG    1       -1.416  -2.035  -0.119  0.00  0.00    +0.480 C 
ATOM     16  O   LIG    1       -1.451  -2.550  -1.224  0.00  0.00    -0.700 OA
ATOM     17  O   LIG    1       -1.367  -2.734   0.878  0.00  0.00    -0.660 OA
ENDBRANCH  14  15
BRANCH  14  19
ATOM     18  C   LIG    1       -0.019   1.526   0.010  0.00  0.00    +0.010 C 
ATOM     19  C   LIG    1        0.002  -0.004   0.002  0.00  0.00    +0.020 C 
ENDBRANCH  14  19
ENDBRANCH   1  14
TORSDOF 3
ENDMDL
MODEL      197
REMARK  Name = ZINC000004715263
REMARK                            x       y       z     vdW  Elec       q    Type
REMARK                         _______ _______ _______ _____ _____    ______ ____
ROOT
ATOM      1  C   LIG    1        0.009  -0.038  -0.307  0.00  0.00    +0.670 A 
ATOM      2  N   LIG    1       -1.121  -0.713  -0.321  0.00  0.00    -0.630 NA
ATOM      3  C   LIG    1       -1.153  -2.018  -0.026  0.00  0.00    +0.560 A 
ATOM      4  C   LIG    1        0.023  -2.678   0.300  0.00  0.00    -0.950 A 
ATOM      5  C   LIG    1        1.220  -1.954   0.313  0.00  0.00    +0.590 A 
ATOM      6  O   LIG    1        2.274  -2.502   0.596  0.00  0.00    -0.520 OA
ATOM      7  N   LIG    1        1.190  -0.641   0.002  0.00  0.00    -0.660 N 
ATOM      8  H   LIG    1        2.011  -0.125   0.005  0.00  0.00    +0.400 HD
ENDROOT
BRANCH   4   9
ATOM      9  S   LIG    1        0.009  -4.396   0.692  0.00  0.00    +2.730 S 
ATOM     10  O   LIG    1        0.291  -5.110  -0.544  0.00  0.00    -1.080 OA
ATOM     11  O   LIG    1       -1.318  -4.698   1.206  0.00  0.00    -1.080 OA
ATOM     12  O   LIG    1        1.044  -4.607   1.692  0.00  0.00    -1.050 OA
ENDBRANCH   4   9
BRANCH   1  13
ATOM     13  N   LIG    1       -0.002   1.296  -0.615  0.00  0.00    -0.820 N 
ATOM     14  H   LIG    1       -0.837   1.735  -0.840  0.00  0.00    +0.420 HD
ATOM     15  H   LIG    1        0.826   1.801  -0.611  0.00  0.00    +0.410 HD
ENDBRANCH   1  13
BRANCH   3  16
ATOM     16  N   LIG    1       -2.350  -2.704  -0.048  0.00  0.00    -0.820 N 
ATOM     17  H   LIG    1       -2.353  -3.672  -0.110  0.00  0.00    +0.430 HD
ATOM     18  H   LIG    1       -3.188  -2.218  -0.001  0.00  0.00    +0.400 HD
ENDBRANCH   3  16
TORSDOF 3
ENDMDL
MODEL      198
REMARK  Name = ZINC000004758235
REMARK                            x       y       z     vdW  Elec       q    Type
REMARK                         _______ _______ _______ _____ _____    ______ ____
ROOT
ATOM      1  C   LIG    1       -0.153  -0.136   0.543  0.00  0.00    +0.580 A 
ATOM      2  N   LIG    1       -1.209  -0.877   0.219  0.00  0.00    -0.650 NA
ATOM      3  C   LIG    1       -1.062  -2.083  -0.320  0.00  0.00    +0.680 A 
ATOM      4  N   LIG    1        0.158  -2.599  -0.559  0.00  0.00    -0.660 N 
ATOM      5  H   LIG    1        0.242  -3.481  -0.953  0.00  0.00    +0.410 HD
ATOM      6  C   LIG    1        1.281  -1.882  -0.245  0.00  0.00    +0.580 A 
ATOM      7  O   LIG    1       -2.053  -2.736  -0.605  0.00  0.00    -0.570 OA
ATOM      8  C   LIG    1        1.137  -0.626   0.310  0.00  0.00    -0.930 A 
ENDROOT
BRANCH   8   9
ATOM      9  S   LIG    1        2.552   0.336   0.730  0.00  0.00    +2.720 S 
ATOM     10  O   LIG    1        2.884   1.128  -0.444  0.00  0.00    -1.060 OA
ATOM     11  O   LIG    1        3.610  -0.602   1.073  0.00  0.00    -1.060 OA
ATOM     12  O   LIG    1        2.172   1.168   1.861  0.00  0.00    -1.060 OA
ENDBRANCH   8   9
BRANCH   1  13
ATOM     13  N   LIG    1       -0.329   1.112   1.100  0.00  0.00    -0.810 N 
ATOM     14  H   LIG    1       -1.206   1.385   1.411  0.00  0.00    +0.410 HD
ATOM     15  H   LIG    1        0.424   1.718   1.179  0.00  0.00    +0.420 HD
ENDBRANCH   1  13
BRANCH   6  16
ATOM     16  N   LIG    1        2.530  -2.400  -0.485  0.00  0.00    -0.820 N 
ATOM     17  H   LIG    1        3.304  -1.817  -0.490  0.00  0.00    +0.440 HD
ATOM     18  H   LIG    1        2.637  -3.350  -0.648  0.00  0.00    +0.400 HD
ENDBRANCH   6  16
TORSDOF 3
ENDMDL
MODEL      199
REMARK  Name = ZINC000004771925
REMARK                            x       y       z     vdW  Elec       q    Type
REMARK                         _______ _______ _______ _____ _____    ______ ____
ROOT
ATOM      1  C   LIG    1       -0.764   1.940   1.529  0.00  0.00    -0.290 C 
ATOM      2  C   LIG    1       -2.145   2.121   1.619  0.00  0.00    +0.070 C 
ATOM      3  N   LIG    1       -3.181   2.007   0.752  0.00  0.00    -0.430 NA
ATOM      4  C   LIG    1       -4.293   2.297   1.363  0.00  0.00    +0.530 C 
ATOM      5  N   LIG    1       -4.043   2.615   2.663  0.00  0.00    -0.570 N 
ATOM      6  H   LIG    1       -4.701   2.868   3.329  0.00  0.00    +0.440 HD
ATOM      7  C   LIG    1       -2.687   2.513   2.859  0.00  0.00    +0.230 C 
ATOM      8  N   LIG    1       -1.871   2.695   3.889  0.00  0.00    -0.140 NA
ATOM      9  C   LIG    1       -0.573   2.511   3.753  0.00  0.00    +0.510 C 
ATOM     10  O   LIG    1       -2.398   3.088   5.143  0.00  0.00    -0.560 OA
ATOM     11  N   LIG    1       -0.028   2.139   2.609  0.00  0.00    -0.380 NA
ENDROOT
BRANCH   1  13
ATOM     12  O   LIG    1        0.002  -0.004   0.002  0.00  0.00    -1.040 OA
ATOM     13  S   LIG    1       -0.018   1.450   0.010  0.00  0.00    +2.680 S 
ATOM     14  O   LIG    1       -0.845   1.991  -1.057  0.00  0.00    -1.020 OA
ATOM     15  O   LIG    1        1.323   2.015   0.000  0.00  0.00    -1.030 OA
ENDBRANCH   1  13
TORSDOF 1
ENDMDL
MODEL      200
REMARK  Name = ZINC000096532915
REMARK                            x       y       z     vdW  Elec       q    Type
REMARK                         _______ _______ _______ _____ _____    ______ ____
ROOT
ATOM      1  C   LIG    1       -1.357   2.008   0.070  0.00  0.00    -0.050 C 
ATOM      2  C   LIG    1       -1.516   2.967  -1.159  0.00  0.00    +0.030 C 
ATOM      3  C   LIG    1       -2.516   3.622  -0.246  0.00  0.00    -0.020 C 
ATOM      4  C   LIG    1       -2.725   5.117  -0.031  0.00  0.00    -0.290 C 
ATOM      5  S   LIG    1       -2.986   5.146   1.798  0.00  0.00    +2.350 S 
ATOM      6  C   LIG    1       -2.041   3.603   2.148  0.00  0.00    -0.290 C 
ATOM      7  O   LIG    1       -4.362   4.941   2.085  0.00  0.00    -0.950 OA
ATOM      8  O   LIG    1       -2.301   6.259   2.357  0.00  0.00    -0.950 OA
ATOM      9  C   LIG    1       -1.393   3.312   0.810  0.00  0.00    +0.010 C 
ENDROOT
BRANCH   1  11
ATOM     10  O   LIG    1       -0.004   0.071   0.185  0.00  0.00    -0.690 OA
ATOM     11  C   LIG    1       -0.034   1.289   0.135  0.00  0.00    +0.500 C 
ATOM     12  O   LIG    1        1.006   1.924   0.133  0.00  0.00    -0.690 OA
ENDBRANCH   1  11
BRANCH   2  13
ATOM     13  C   LIG    1       -0.281   3.818  -1.462  0.00  0.00    +0.220 C 
BRANCH  13  14
ATOM     14  O   LIG    1       -0.483   4.531  -2.685  0.00  0.00    -0.580 OA
ATOM     15  H   LIG    1        0.261   5.093  -2.940  0.00  0.00    +0.370 HD
ENDBRANCH  13  14
ENDBRANCH   2  13
TORSDOF 3
ENDMDL
MODEL      201
REMARK  Name = ZINC000005353111
REMARK                            x       y       z     vdW  Elec       q    Type
REMARK                         _______ _______ _______ _____ _____    ______ ____
ROOT
ATOM      1  C   LIG    1       -0.002  -0.004  -0.039  0.00  0.00    +0.550 A 
ATOM      2  C   LIG    1       -1.164  -0.710   0.107  0.00  0.00    -0.910 A 
ATOM      3  C   LIG    1       -1.111  -2.112   0.138  0.00  0.00    +0.590 A 
ATOM      4  N   LIG    1        0.079  -2.736   0.025  0.00  0.00    -0.660 N 
ATOM      5  H   LIG    1        0.118  -3.705   0.046  0.00  0.00    +0.430 HD
ATOM      6  C   LIG    1        1.213  -2.026  -0.117  0.00  0.00    +0.720 A 
ATOM      7  O   LIG    1        2.275  -2.608  -0.218  0.00  0.00    -0.560 OA
ATOM      8  O   LIG    1       -2.134  -2.763   0.266  0.00  0.00    -0.500 OA
ATOM      9  N   LIG    1        1.188  -0.681  -0.156  0.00  0.00    -0.650 N 
ATOM     10  H   LIG    1        2.016  -0.186  -0.260  0.00  0.00    +0.430 HD
ENDROOT
BRANCH   2  11
ATOM     11  S   LIG    1       -2.707   0.129   0.252  0.00  0.00    +2.720 S 
ATOM     12  O   LIG    1       -3.259   0.227  -1.090  0.00  0.00    -1.070 OA
ATOM     13  O   LIG    1       -2.421   1.436   0.822  0.00  0.00    -1.070 OA
ATOM     14  O   LIG    1       -3.542  -0.678   1.128  0.00  0.00    -1.040 OA
ENDBRANCH   2  11
BRANCH   1  15
ATOM     15  N   LIG    1       -0.025   1.366  -0.072  0.00  0.00    -0.820 N 
ATOM     16  H   LIG    1       -0.849   1.833  -0.283  0.00  0.00    +0.440 HD
ATOM     17  H   LIG    1        0.784   1.869   0.111  0.00  0.00    +0.400 HD
ENDBRANCH   1  15
TORSDOF 2
ENDMDL
MODEL      202
REMARK  Name = ZINC000005375697
REMARK                            x       y       z     vdW  Elec       q    Type
REMARK                         _______ _______ _______ _____ _____    ______ ____
ROOT
ATOM      1  O   LIG    1        0.002  -0.004   0.002  0.00  0.00    -0.590 OA
ATOM      2  C   LIG    1       -0.014   1.211   0.009  0.00  0.00    +0.660 A 
ATOM      3  N   LIG    1       -1.190   1.869   0.029  0.00  0.00    -0.690 NA
ATOM      4  C   LIG    1       -1.209   3.216   0.036  0.00  0.00    +0.660 A 
ATOM      5  N   LIG    1       -0.051   3.906   0.024  0.00  0.00    -0.590 N 
ATOM      6  C   LIG    1        1.125   3.248   0.004  0.00  0.00    +0.710 A 
ATOM      7  O   LIG    1        2.169   3.870  -0.007  0.00  0.00    -0.570 OA
ATOM      8  O   LIG    1       -2.269   3.810   0.055  0.00  0.00    -0.580 OA
ATOM      9  N   LIG    1        1.143   1.901   0.001  0.00  0.00    -0.700 N 
ATOM     10  H   LIG    1        1.990   1.427  -0.013  0.00  0.00    +0.410 HD
ENDROOT
BRANCH   5  11
ATOM     11  C   LIG    1       -0.071   5.371   0.033  0.00  0.00    +0.460 C 
BRANCH  11  12
ATOM     12  N   LIG    1       -0.058   5.853   1.420  0.00  0.00    -0.540 NA
ATOM     13  C   LIG    1       -0.734   4.903   2.313  0.00  0.00    +0.170 C 
ATOM     14  C   LIG    1       -0.575   5.364   3.764  0.00  0.00    +0.020 C 
ATOM     15  C   LIG    1       -1.181   6.761   3.921  0.00  0.00    +0.000 C 
ATOM     16  C   LIG    1       -0.493   7.720   2.945  0.00  0.00    +0.020 C 
ATOM     17  C   LIG    1       -0.654   7.191   1.518  0.00  0.00    +0.170 C 
ENDBRANCH  11  12
ENDBRANCH   5  11
TORSDOF 2
ENDMDL
MODEL      203
REMARK  Name = ZINC000005502215
REMARK                            x       y       z     vdW  Elec       q    Type
REMARK                         _______ _______ _______ _____ _____    ______ ____
ROOT
ATOM      1  C1* LIG    1        1.615   4.330   0.002  0.00  0.00    +0.440 C 
ATOM      2  O4* LIG    1        2.160   4.538  -1.319  0.00  0.00    -0.360 OA
ATOM      3  C4* LIG    1        3.371   5.296  -1.159  0.00  0.00    +0.180 C 
ATOM      4  C3* LIG    1        3.918   4.992   0.250  0.00  0.00    +0.170 C 
ATOM      5  C2* LIG    1        2.865   4.040   0.871  0.00  0.00    +0.130 C 
ENDROOT
BRANCH   1  10
ATOM      6  O   LIG    1        0.002  -0.004   0.002  0.00  0.00    -0.550 OA
ATOM      7  C   LIG    1       -0.014   1.212   0.009  0.00  0.00    +0.560 A 
ATOM      8  N   LIG    1       -1.113   2.000   0.029  0.00  0.00    -0.670 NA
ATOM      9  C   LIG    1       -0.640   3.268   0.029  0.00  0.00    +0.600 A 
ATOM     10  N   LIG    1        0.704   3.183   0.008  0.00  0.00    -0.490 N 
ATOM     11  O   LIG    1       -1.302   4.288   0.045  0.00  0.00    -0.590 OA
ATOM     12  O   LIG    1        1.052   2.022   0.003  0.00  0.00    -0.140 OA
ENDBRANCH   1  10
BRANCH   4  13
ATOM     13  O3* LIG    1        4.019   6.193   1.017  0.00  0.00    -0.550 OA
ATOM     14  H3* LIG    1        4.359   6.060   1.913  0.00  0.00    +0.390 HD
ENDBRANCH   4  13
BRANCH   5  15
ATOM     15  O2* LIG    1        3.270   2.675   0.738  0.00  0.00    -0.550 OA
ATOM     16  H2* LIG    1        2.643   2.041   1.111  0.00  0.00    +0.390 HD
ENDBRANCH   5  15
BRANCH   3  17
ATOM     17  C5* LIG    1        4.392   4.876  -2.218  0.00  0.00    +0.200 C 
BRANCH  17  18
ATOM     18  O5* LIG    1        3.918   5.255  -3.512  0.00  0.00    -0.560 OA
ATOM     19  H5* LIG    1        4.516   5.019  -4.235  0.00  0.00    +0.380 HD
ENDBRANCH  17  18
ENDBRANCH   3  17
TORSDOF 5
ENDMDL
MODEL      204
REMARK  Name = ZINC000005502194
REMARK                            x       y       z     vdW  Elec       q    Type
REMARK                         _______ _______ _______ _____ _____    ______ ____
ROOT
ATOM      1  C1* LIG    1        1.615   4.330   0.002  0.00  0.00    +0.430 C 
ATOM      2  O4* LIG    1        2.146   4.543  -1.325  0.00  0.00    -0.360 OA
ATOM      3  C4* LIG    1        3.349   5.318  -1.133  0.00  0.00    +0.170 C 
ATOM      4  C3* LIG    1        4.019   4.704   0.116  0.00  0.00    +0.170 C 
ATOM      5  C2* LIG    1        2.851   4.040   0.882  0.00  0.00    +0.120 C 
ENDROOT
BRANCH   1  10
ATOM      6  O   LIG    1        0.002  -0.004   0.002  0.00  0.00    -0.550 OA
ATOM      7  C   LIG    1       -0.014   1.212   0.009  0.00  0.00    +0.560 A 
ATOM      8  N   LIG    1       -1.113   2.000   0.029  0.00  0.00    -0.670 NA
ATOM      9  C   LIG    1       -0.640   3.268   0.029  0.00  0.00    +0.600 A 
ATOM     10  N   LIG    1        0.704   3.183   0.008  0.00  0.00    -0.490 N 
ATOM     11  O   LIG    1       -1.302   4.288   0.045  0.00  0.00    -0.590 OA
ATOM     12  O   LIG    1        1.052   2.022   0.003  0.00  0.00    -0.130 OA
ENDBRANCH   1  10
BRANCH   4  13
ATOM     13  O3* LIG    1        4.992   3.729  -0.266  0.00  0.00    -0.540 OA
ATOM     14  H3* LIG    1        5.444   3.312   0.480  0.00  0.00    +0.380 HD
ENDBRANCH   4  13
BRANCH   5  15
ATOM     15  O2* LIG    1        3.065   2.632   0.999  0.00  0.00    -0.530 OA
ATOM     16  H2* LIG    1        2.362   2.166   1.471  0.00  0.00    +0.390 HD
ENDBRANCH   5  15
BRANCH   3  17
ATOM     17  C5* LIG    1        4.266   5.188  -2.351  0.00  0.00    +0.220 C 
BRANCH  17  18
ATOM     18  O5* LIG    1        3.645   5.800  -3.483  0.00  0.00    -0.570 OA
ATOM     19  H5* LIG    1        4.171   5.755  -4.293  0.00  0.00    +0.380 HD
ENDBRANCH  17  18
ENDBRANCH   3  17
TORSDOF 5
ENDMDL
MODEL      205
REMARK  Name = ZINC000005502329
REMARK                            x       y       z     vdW  Elec       q    Type
REMARK                         _______ _______ _______ _____ _____    ______ ____
ROOT
ATOM      1  C1* LIG    1        1.615   4.330   0.002  0.00  0.00    +0.450 C 
ATOM      2  O4* LIG    1        2.146   4.543  -1.325  0.00  0.00    -0.350 OA
ATOM      3  C4* LIG    1        3.183   3.550  -1.484  0.00  0.00    +0.180 C 
ATOM      4  C3* LIG    1        3.907   3.514  -0.120  0.00  0.00    +0.180 C 
ATOM      5  C2* LIG    1        2.851   4.040   0.882  0.00  0.00    +0.130 C 
ENDROOT
BRANCH   1  10
ATOM      6  O   LIG    1        0.002  -0.004   0.002  0.00  0.00    -0.560 OA
ATOM      7  C   LIG    1       -0.014   1.212   0.009  0.00  0.00    +0.560 A 
ATOM      8  N   LIG    1       -1.113   2.000   0.029  0.00  0.00    -0.680 NA
ATOM      9  C   LIG    1       -0.640   3.268   0.029  0.00  0.00    +0.600 A 
ATOM     10  N   LIG    1        0.704   3.183   0.008  0.00  0.00    -0.500 N 
ATOM     11  O   LIG    1       -1.302   4.288   0.045  0.00  0.00    -0.600 OA
ATOM     12  O   LIG    1        1.052   2.022   0.003  0.00  0.00    -0.130 OA
ENDBRANCH   1  10
BRANCH   4  13
ATOM     13  O3* LIG    1        5.052   4.369  -0.139  0.00  0.00    -0.550 OA
ATOM     14  H3* LIG    1        5.545   4.385   0.693  0.00  0.00    +0.380 HD
ENDBRANCH   4  13
BRANCH   5  15
ATOM     15  O2* LIG    1        2.551   3.045   1.862  0.00  0.00    -0.540 OA
ATOM     16  H2* LIG    1        1.894   3.321   2.515  0.00  0.00    +0.380 HD
ENDBRANCH   5  15
BRANCH   3  17
ATOM     17  C5* LIG    1        4.151   3.964  -2.594  0.00  0.00    +0.210 C 
BRANCH  17  18
ATOM     18  O5* LIG    1        3.470   3.947  -3.850  0.00  0.00    -0.570 OA
ATOM     19  H5* LIG    1        4.025   4.200  -4.601  0.00  0.00    +0.380 HD
ENDBRANCH  17  18
ENDBRANCH   3  17
TORSDOF 5
ENDMDL
MODEL      206
REMARK  Name = ZINC000005502307
REMARK                            x       y       z     vdW  Elec       q    Type
REMARK                         _______ _______ _______ _____ _____    ______ ____
ROOT
ATOM      1  C1* LIG    1        1.615   4.330   0.002  0.00  0.00    +0.450 C 
ATOM      2  O4* LIG    1        2.146   4.543  -1.325  0.00  0.00    -0.350 OA
ATOM      3  C4* LIG    1        3.183   3.550  -1.484  0.00  0.00    +0.180 C 
ATOM      4  C3* LIG    1        3.907   3.514  -0.120  0.00  0.00    +0.170 C 
ATOM      5  C2* LIG    1        2.851   4.040   0.882  0.00  0.00    +0.130 C 
ENDROOT
BRANCH   1  10
ATOM      6  O   LIG    1        0.002  -0.004   0.002  0.00  0.00    -0.560 OA
ATOM      7  C   LIG    1       -0.014   1.212   0.009  0.00  0.00    +0.560 A 
ATOM      8  N   LIG    1       -1.113   2.000   0.029  0.00  0.00    -0.680 NA
ATOM      9  C   LIG    1       -0.640   3.268   0.029  0.00  0.00    +0.600 A 
ATOM     10  N   LIG    1        0.704   3.183   0.008  0.00  0.00    -0.500 N 
ATOM     11  O   LIG    1       -1.302   4.288   0.045  0.00  0.00    -0.600 OA
ATOM     12  O   LIG    1        1.052   2.022   0.003  0.00  0.00    -0.120 OA
ENDBRANCH   1  10
BRANCH   4  13
ATOM     13  O3* LIG    1        4.291   2.178   0.209  0.00  0.00    -0.530 OA
ATOM     14  H3* LIG    1        4.750   2.097   1.056  0.00  0.00    +0.380 HD
ENDBRANCH   4  13
BRANCH   5  15
ATOM     15  O2* LIG    1        2.551   3.045   1.862  0.00  0.00    -0.530 OA
ATOM     16  H2* LIG    1        1.894   3.321   2.515  0.00  0.00    +0.380 HD
ENDBRANCH   5  15
BRANCH   3  17
ATOM     17  C5* LIG    1        4.151   3.964  -2.594  0.00  0.00    +0.200 C 
BRANCH  17  18
ATOM     18  O5* LIG    1        3.470   3.947  -3.850  0.00  0.00    -0.560 OA
ATOM     19  H5* LIG    1        4.025   4.200  -4.601  0.00  0.00    +0.380 HD
ENDBRANCH  17  18
ENDBRANCH   3  17
TORSDOF 5
ENDMDL
MODEL      207
REMARK  Name = ZINC000005558116
REMARK                            x       y       z     vdW  Elec       q    Type
REMARK                         _______ _______ _______ _____ _____    ______ ____
ROOT
ATOM      1  C   LIG    1       -1.247  -2.108   0.003  0.00  0.00    +0.090 A 
ATOM      2  N   LIG    1       -2.340  -2.849   0.004  0.00  0.00    -0.460 NA
ATOM      3  C   LIG    1       -1.952  -4.128  -0.005  0.00  0.00    +0.250 A 
ATOM      4  N   LIG    1       -0.635  -4.163  -0.011  0.00  0.00    -0.240 NA
ATOM      5  N   LIG    1       -0.185  -2.956  -0.013  0.00  0.00    -0.260 NA
ENDROOT
BRANCH   3   6
ATOM      6  N   LIG    1       -2.789  -5.225  -0.006  0.00  0.00    +0.050 N 
ATOM      7  N   LIG    1       -4.077  -5.209  -0.006  0.00  0.00    -0.050 NA
ATOM      8  O   LIG    1       -4.542  -6.325  -0.009  0.00  0.00    -0.010 OA
ATOM      9  C   LIG    1       -3.574  -7.256  -0.011  0.00  0.00    +0.490 A 
ATOM     10  O   LIG    1       -3.721  -8.463  -0.014  0.00  0.00    -0.500 OA
ATOM     11  N   LIG    1       -2.400  -6.578  -0.015  0.00  0.00    -0.350 NA
ENDBRANCH   3   6
BRANCH   1  12
ATOM     12  C   LIG    1       -1.190  -0.632   0.010  0.00  0.00    +0.580 C 
ATOM     13  O   LIG    1       -2.218   0.016   0.023  0.00  0.00    -0.500 OA
BRANCH  12  15
ATOM     14  C   LIG    1       -0.018   1.448   0.010  0.00  0.00    +0.260 C 
ATOM     15  O   LIG    1        0.002  -0.004   0.002  0.00  0.00    -0.340 OA
ENDBRANCH  12  15
ENDBRANCH   1  12
TORSDOF 3
ENDMDL
MODEL      208
REMARK  Name = ZINC000005631656
REMARK                            x       y       z     vdW  Elec       q    Type
REMARK                         _______ _______ _______ _____ _____    ______ ____
ROOT
ATOM      1  CA  ASN A  1       -1.722  -4.579  -0.006  0.00  0.00    +0.180 C 
ENDROOT
BRANCH   1   3
ATOM      2  C   UNK A  0       -0.997  -2.253  -0.001  0.00  0.00    +0.520 C 
ATOM      3  N   ASN A  1       -2.010  -3.143   0.004  0.00  0.00    -0.690 N 
ATOM      4  H   ASN A  1       -2.928  -2.832   0.015  0.00  0.00    +0.380 HD
ATOM      5  O   UNK A  0        0.152  -2.642  -0.014  0.00  0.00    -0.520 OA
BRANCH   2   6
ATOM      6  C   UNK A  0       -1.293  -0.775   0.010  0.00  0.00    +0.050 C 
BRANCH   6   8
ATOM      7  C   UNK A  0       -0.018   1.503   0.010  0.00  0.00    +0.060 C 
ATOM      8  C   UNK A  0        0.002  -0.004   0.002  0.00  0.00    +0.340 C 
ATOM      9  O   UNK A  0        1.056  -0.594  -0.011  0.00  0.00    -0.410 OA
ENDBRANCH   6   8
ENDBRANCH   2   6
ENDBRANCH   1   3
BRANCH   1  10
ATOM     10  C   ASN A  1       -1.516  -5.040  -1.426  0.00  0.00    +0.490 C 
ATOM     11  OXT ASN A  1       -1.264  -6.210  -1.657  0.00  0.00    -0.700 OA
ATOM     12  O   ASN A  1       -1.601  -4.242  -2.344  0.00  0.00    -0.680 OA
ENDBRANCH   1  10
BRANCH   1  13
ATOM     13  CB  ASN A  1       -2.898  -5.339   0.611  0.00  0.00    +0.070 C 
BRANCH  13  14
ATOM     14  CG  ASN A  1       -3.028  -4.969   2.066  0.00  0.00    +0.510 C 
ATOM     15  OD1 ASN A  1       -2.256  -4.176   2.561  0.00  0.00    -0.530 OA
ATOM     16  ND2 ASN A  1       -4.002  -5.519   2.817  0.00  0.00    -0.860 N 
ATOM     17 HD21 ASN A  1       -4.085  -5.281   3.754  0.00  0.00    +0.390 HD
ATOM     18 HD22 ASN A  1       -4.620  -6.154   2.421  0.00  0.00    +0.400 HD
ENDBRANCH  13  14
ENDBRANCH   1  13
TORSDOF 6
ENDMDL
MODEL      209
REMARK  Name = ZINC000001618076
REMARK                            x       y       z     vdW  Elec       q    Type
REMARK                         _______ _______ _______ _____ _____    ______ ____
ROOT
ATOM      1  C   LIG    1        0.002  -0.004   0.002  0.00  0.00    +0.500 A 
ATOM      2  C   LIG    1       -1.195  -0.739   0.004  0.00  0.00    -0.110 A 
ATOM      3  N   LIG    1       -2.511  -0.417   0.012  0.00  0.00    -0.480 NA
ATOM      4  C   LIG    1       -3.224  -1.506   0.010  0.00  0.00    +0.480 A 
ATOM      5  N   LIG    1       -2.407  -2.597  -0.001  0.00  0.00    -0.450 N 
ATOM      6  C   LIG    1       -1.113  -2.142  -0.005  0.00  0.00    +0.300 A 
ATOM      7  N   LIG    1        0.085  -2.718  -0.015  0.00  0.00    -0.550 NA
ATOM      8  C   LIG    1        1.181  -1.989  -0.016  0.00  0.00    +0.550 A 
ATOM      9  N   LIG    1        1.153  -0.668  -0.013  0.00  0.00    -0.600 NA
ENDROOT
BRANCH   1  10
ATOM     10  N   LIG    1       -0.017   1.380   0.010  0.00  0.00    -0.820 N 
ATOM     11  H   LIG    1       -0.863   1.853   0.016  0.00  0.00    +0.420 HD
ATOM     12  H   LIG    1        0.817   1.876   0.004  0.00  0.00    +0.410 HD
ENDBRANCH   1  10
BRANCH   5  13
ATOM     13  C   LIG    1       -2.833  -3.999  -0.007  0.00  0.00    +0.300 C 
BRANCH  13  14
ATOM     14  C   LIG    1       -2.853  -4.532   1.427  0.00  0.00    +0.130 C 
BRANCH  14  15
ATOM     15  C   LIG    1       -3.172  -6.005   1.411  0.00  0.00    +0.480 C 
ATOM     16  O   LIG    1       -4.207  -6.410   1.911  0.00  0.00    -0.680 OA
ATOM     17  O   LIG    1       -2.394  -6.791   0.897  0.00  0.00    -0.680 OA
ENDBRANCH  14  15
BRANCH  14  18
ATOM     18  O   LIG    1       -3.850  -3.838   2.179  0.00  0.00    -0.550 OA
ATOM     19  H   LIG    1       -4.745  -3.932   1.827  0.00  0.00    +0.370 HD
ENDBRANCH  14  18
ENDBRANCH  13  14
ENDBRANCH   5  13
TORSDOF 5
ENDMDL
MODEL      210
REMARK  Name = ZINC000006523773
REMARK                            x       y       z     vdW  Elec       q    Type
REMARK                         _______ _______ _______ _____ _____    ______ ____
ROOT
ATOM      1  C   LIG    1       -0.018   1.461   0.010  0.00  0.00    +0.330 C 
ATOM      2  N   LIG    1        0.002  -0.004   0.002  0.00  0.00    -0.390 N 
ATOM      3  C   LIG    1        0.009  -0.807  -1.104  0.00  0.00    +0.480 A 
ATOM      4  N   LIG    1        0.028  -2.059  -0.740  0.00  0.00    -0.520 NA
ATOM      5  C   LIG    1        0.034  -2.136   0.612  0.00  0.00    +0.460 A 
ATOM      6  N   LIG    1        0.053  -3.163   1.450  0.00  0.00    -0.700 NA
ATOM      7  C   LIG    1        0.059  -3.149   2.773  0.00  0.00    +0.690 C 
ATOM      8  N   LIG    1        0.046  -2.009   3.505  0.00  0.00    -1.050 N 
ATOM      9  H   LIG    1        0.051  -2.016   4.475  0.00  0.00    +0.430 HD
ATOM     10  S   LIG    1        0.022  -0.587   2.621  0.00  0.00    +2.730 S 
ATOM     11  O   LIG    1        1.208   0.207   2.978  0.00  0.00    -0.990 OA
ATOM     12  O   LIG    1       -1.180   0.175   2.993  0.00  0.00    -0.990 OA
ATOM     13  O   LIG    1        0.076  -4.215   3.363  0.00  0.00    -0.570 OA
ATOM     14  C   LIG    1        0.023  -0.801   1.075  0.00  0.00    -0.920 A 
ENDROOT
TORSDOF 0
ENDMDL
MODEL      211
REMARK  Name = ZINC000236416730
REMARK                            x       y       z     vdW  Elec       q    Type
REMARK                         _______ _______ _______ _____ _____    ______ ____
ROOT
ATOM      1  C   LIG    1       -1.330   1.951   0.019  0.00  0.00    -0.090 C 
ATOM      2  C   LIG    1       -2.276   1.513   1.151  0.00  0.00    +0.300 C 
ATOM      3  N   LIG    1       -2.572   2.948   1.323  0.00  0.00    -0.640 N 
ATOM      4  C   LIG    1       -3.613   3.645   1.821  0.00  0.00    +0.520 C 
ATOM      5  O   LIG    1       -4.583   3.059   2.255  0.00  0.00    -0.550 OA
ATOM      6  C   LIG    1       -1.271   3.314   0.731  0.00  0.00    +0.290 C 
ENDROOT
BRANCH   4   7
ATOM      7  C   LIG    1       -3.573   5.151   1.839  0.00  0.00    +0.230 C 
ATOM      8  C   LIG    1       -3.958   5.713   0.452  0.00  0.00    +0.070 C 
ATOM      9  C   LIG    1       -4.734   6.994   0.836  0.00  0.00    +0.070 C 
ATOM     10  C   LIG    1       -5.244   6.715   2.232  0.00  0.00    +0.520 C 
ATOM     11  O   LIG    1       -6.124   7.338   2.788  0.00  0.00    -0.540 OA
ATOM     12  N   LIG    1       -4.579   5.676   2.769  0.00  0.00    -0.710 N 
ATOM     13  H   LIG    1       -4.745   5.319   3.656  0.00  0.00    +0.420 HD
ENDBRANCH   4   7
BRANCH   1  15
ATOM     14  O   LIG    1        0.002  -0.004   0.002  0.00  0.00    -0.690 OA
ATOM     15  C   LIG    1       -0.015   1.215   0.009  0.00  0.00    +0.500 C 
ATOM     16  O   LIG    1        1.033   1.839   0.002  0.00  0.00    -0.690 OA
ENDBRANCH   1  15
TORSDOF 2
ENDMDL
MODEL      212
REMARK  Name = ZINC000236416693
REMARK                            x       y       z     vdW  Elec       q    Type
REMARK                         _______ _______ _______ _____ _____    ______ ____
ROOT
ATOM      1  C   LIG    1       -1.330   1.951   0.019  0.00  0.00    -0.100 C 
ATOM      2  C   LIG    1       -2.276   1.513   1.151  0.00  0.00    +0.300 C 
ATOM      3  N   LIG    1       -2.572   2.948   1.323  0.00  0.00    -0.640 N 
ATOM      4  C   LIG    1       -3.613   3.645   1.821  0.00  0.00    +0.510 C 
ATOM      5  O   LIG    1       -4.583   3.059   2.255  0.00  0.00    -0.540 OA
ATOM      6  C   LIG    1       -1.271   3.314   0.731  0.00  0.00    +0.290 C 
ENDROOT
BRANCH   4   7
ATOM      7  C   LIG    1       -3.573   5.151   1.839  0.00  0.00    +0.230 C 
ATOM      8  C   LIG    1       -2.757   5.649   3.052  0.00  0.00    +0.080 C 
ATOM      9  C   LIG    1       -3.864   5.865   4.109  0.00  0.00    +0.060 C 
ATOM     10  C   LIG    1       -5.117   6.097   3.293  0.00  0.00    +0.530 C 
ATOM     11  O   LIG    1       -6.145   6.578   3.720  0.00  0.00    -0.540 OA
ATOM     12  N   LIG    1       -4.924   5.694   2.023  0.00  0.00    -0.710 N 
ATOM     13  H   LIG    1       -5.592   5.754   1.322  0.00  0.00    +0.410 HD
ENDBRANCH   4   7
BRANCH   1  15
ATOM     14  O   LIG    1        0.002  -0.004   0.002  0.00  0.00    -0.690 OA
ATOM     15  C   LIG    1       -0.015   1.215   0.009  0.00  0.00    +0.500 C 
ATOM     16  O   LIG    1        1.033   1.839   0.002  0.00  0.00    -0.690 OA
ENDBRANCH   1  15
TORSDOF 2
ENDMDL
MODEL      213
REMARK  Name = ZINC000307093271
REMARK                            x       y       z     vdW  Elec       q    Type
REMARK                         _______ _______ _______ _____ _____    ______ ____
ROOT
ATOM      1  C   LIG    1        0.042  -3.301  -1.472  0.00  0.00    +0.620 C 
ATOM      2  N   LIG    1        0.061  -4.520  -0.898  0.00  0.00    -0.630 N 
ATOM      3  C   LIG    1        0.069  -5.044   0.477  0.00  0.00    +0.300 C 
ATOM      4  C   LIG    1        0.789  -6.289  -0.059  0.00  0.00    -0.090 C 
ATOM      5  C   LIG    1        0.079  -5.913  -1.370  0.00  0.00    +0.290 C 
ATOM      6  O   LIG    1        0.034  -3.200  -2.684  0.00  0.00    -0.560 OA
ENDROOT
BRANCH   1  10
ATOM      7  C   LIG    1       -0.018   1.461   0.010  0.00  0.00    +0.380 C 
ATOM      8  N   LIG    1        0.002  -0.004   0.002  0.00  0.00    -0.370 N 
ATOM      9  C   LIG    1        0.008  -0.802  -1.085  0.00  0.00    +0.290 A 
ATOM     10  C   LIG    1        0.028  -2.090  -0.630  0.00  0.00    -0.090 A 
ATOM     11  N   LIG    1        0.035  -2.067   0.714  0.00  0.00    -0.190 NA
ATOM     12  N   LIG    1        0.025  -0.846   1.123  0.00  0.00    -0.070 NA
ENDBRANCH   1  10
BRANCH   4  13
ATOM     13  C   LIG    1        0.316  -7.585   0.547  0.00  0.00    +0.510 C 
ATOM     14  O   LIG    1       -0.113  -7.604   1.688  0.00  0.00    -0.690 OA
ATOM     15  O   LIG    1        0.361  -8.615  -0.104  0.00  0.00    -0.690 OA
ENDBRANCH   4  13
TORSDOF 2
ENDMDL
MODEL      214
REMARK  Name = ZINC000008462533
REMARK                            x       y       z     vdW  Elec       q    Type
REMARK                         _______ _______ _______ _____ _____    ______ ____
ROOT
ATOM      1  C   LIG    1       -0.018   1.461   0.010  0.00  0.00    +0.340 C 
ATOM      2  N   LIG    1        0.002  -0.004   0.002  0.00  0.00    -0.410 N 
ATOM      3  C   LIG    1        0.009  -0.800  -1.085  0.00  0.00    +0.480 A 
ATOM      4  N   LIG    1        0.028  -2.054  -0.714  0.00  0.00    -0.500 NA
ATOM      5  C   LIG    1        0.034  -2.132   0.619  0.00  0.00    +0.310 A 
ATOM      6  N   LIG    1        0.053  -3.184   1.520  0.00  0.00    -0.520 N 
ATOM      7  C   LIG    1        0.063  -4.565   1.032  0.00  0.00    +0.330 C 
ATOM      8  C   LIG    1        0.052  -2.939   2.844  0.00  0.00    +0.710 A 
ATOM      9  O   LIG    1        0.064  -3.876   3.620  0.00  0.00    -0.540 OA
ATOM     10  N   LIG    1        0.042  -1.686   3.330  0.00  0.00    -0.510 N 
ATOM     11  C   LIG    1        0.028  -0.620   2.503  0.00  0.00    +0.600 A 
ATOM     12  O   LIG    1        0.019   0.510   2.955  0.00  0.00    -0.520 OA
ATOM     13  C   LIG    1        0.024  -0.831   1.107  0.00  0.00    -0.140 A 
ENDROOT
BRANCH  10  14
ATOM     14  C   LIG    1        0.046  -1.474   4.780  0.00  0.00    +0.240 C 
BRANCH  14  15
ATOM     15  C   LIG    1       -1.373  -1.416   5.283  0.00  0.00    +0.490 C 
ATOM     16  O   LIG    1       -1.593  -1.245   6.470  0.00  0.00    -0.690 OA
ATOM     17  O   LIG    1       -2.302  -1.540   4.503  0.00  0.00    -0.680 OA
ENDBRANCH  14  15
ENDBRANCH  10  14
TORSDOF 2
ENDMDL
MODEL      215
REMARK  Name = ZINC000409429884
REMARK                            x       y       z     vdW  Elec       q    Type
REMARK                         _______ _______ _______ _____ _____    ______ ____
ROOT
ATOM      1  O   LIG    1        0.136   0.191   0.984  0.00  0.00    -0.610 OA
ATOM      2  C   LIG    1        0.056   1.318   0.524  0.00  0.00    +0.530 A 
ATOM      3  C   LIG    1       -1.165   2.010   0.559  0.00  0.00    -0.260 A 
ATOM      4  C   LIG    1       -1.228   3.272   0.037  0.00  0.00    +0.430 A 
ATOM      5  N   LIG    1       -0.099   3.833  -0.509  0.00  0.00    -0.680 N 
ATOM      6  H   LIG    1       -0.138   4.728  -0.881  0.00  0.00    +0.380 HD
ATOM      7  C   LIG    1        1.059   3.148  -0.530  0.00  0.00    +0.650 A 
ATOM      8  O   LIG    1        2.048   3.661  -1.017  0.00  0.00    -0.620 OA
ATOM      9  N   LIG    1        1.140   1.908  -0.015  0.00  0.00    -0.700 NA
ENDROOT
BRANCH   4  10
ATOM     10  N   LIG    1       -2.408   3.971   0.058  0.00  0.00    -0.640 N 
ATOM     11  C   LIG    1       -2.426   5.439   0.170  0.00  0.00    +0.290 C 
ATOM     12  C   LIG    1       -3.091   6.005  -1.087  0.00  0.00    +0.250 C 
ATOM     13  N   LIG    1       -4.320   5.285  -1.390  0.00  0.00    -0.720 N 
ATOM     14  H   LIG    1       -4.981   5.733  -1.940  0.00  0.00    +0.400 HD
ATOM     15  C   LIG    1       -4.600   4.053  -0.965  0.00  0.00    +0.510 C 
ATOM     16  O   LIG    1       -5.623   3.526  -1.349  0.00  0.00    -0.550 OA
ATOM     17  C   LIG    1       -3.705   3.285  -0.036  0.00  0.00    +0.340 C 
ENDBRANCH   4  10
TORSDOF 1
ENDMDL
MODEL      216
REMARK  Name = ZINC000409430608
REMARK                            x       y       z     vdW  Elec       q    Type
REMARK                         _______ _______ _______ _____ _____    ______ ____
ROOT
ATOM      1  C   LIG    1       -2.479   0.941   0.019  0.00  0.00    +0.270 C 
ATOM      2  N   LIG    1       -2.438   0.178  -1.220  0.00  0.00    -0.680 N 
ATOM      3  H   LIG    1       -1.792  -0.541  -1.299  0.00  0.00    +0.420 HD
ATOM      4  C   LIG    1       -3.251   0.424  -2.255  0.00  0.00    +0.530 C 
ATOM      5  C   LIG    1       -4.292   1.503  -2.195  0.00  0.00    +0.120 C 
ATOM      6  N   LIG    1       -4.596   1.941  -0.837  0.00  0.00    -0.700 N 
ATOM      7  H   LIG    1       -5.414   2.435  -0.671  0.00  0.00    +0.400 HD
ATOM      8  C   LIG    1       -4.025   2.663  -3.165  0.00  0.00    +0.040 C 
ATOM      9  C   LIG    1       -4.828   1.869  -4.210  0.00  0.00    +0.040 C 
ATOM     10  C   LIG    1       -5.543   1.190  -3.029  0.00  0.00    +0.050 C 
ATOM     11  O   LIG    1       -3.143  -0.240  -3.264  0.00  0.00    -0.540 OA
ATOM     12  C   LIG    1       -3.773   1.677   0.184  0.00  0.00    +0.520 C 
ATOM     13  O   LIG    1       -4.088   2.049   1.294  0.00  0.00    -0.540 OA
ENDROOT
BRANCH   1  14
ATOM     14  C   LIG    1       -1.330   1.951   0.019  0.00  0.00    -0.040 C 
BRANCH  14  16
ATOM     15  O   LIG    1        0.002  -0.004   0.002  0.00  0.00    -0.690 OA
ATOM     16  C   LIG    1       -0.015   1.215   0.009  0.00  0.00    +0.500 C 
ATOM     17  O   LIG    1        1.033   1.839   0.002  0.00  0.00    -0.690 OA
ENDBRANCH  14  16
ENDBRANCH   1  14
TORSDOF 2
ENDMDL
MODEL      217
REMARK  Name = ZINC000395901186
REMARK                            x       y       z     vdW  Elec       q    Type
REMARK                         _______ _______ _______ _____ _____    ______ ____
ROOT
ATOM      1  C   LIG    1       -1.295  -0.603   0.011  0.00  0.00    +0.170 C 
ATOM      2  C   LIG    1       -1.737  -0.948   1.455  0.00  0.00    +0.250 C 
ATOM      3  N   LIG    1       -2.710  -2.045   1.300  0.00  0.00    -0.620 N 
ATOM      4  C   LIG    1       -2.446  -2.733   0.028  0.00  0.00    +0.240 C 
ATOM      5  C   LIG    1       -3.681  -2.364   2.179  0.00  0.00    +0.570 C 
ATOM      6  O   LIG    1       -3.808  -1.723   3.203  0.00  0.00    -0.550 OA
ATOM      7  C   LIG    1       -1.265  -2.006  -0.650  0.00  0.00    +0.190 C 
ENDROOT
BRANCH   1   9
ATOM      8  C   LIG    1       -0.017   1.425   0.010  0.00  0.00    +0.200 C 
ATOM      9  O   LIG    1        0.002  -0.004   0.002  0.00  0.00    -0.370 OA
ENDBRANCH   1   9
BRANCH   5  10
ATOM     10  C   LIG    1       -4.592  -3.494   1.896  0.00  0.00    -0.080 C 
ATOM     11  C   LIG    1       -5.559  -3.812   2.771  0.00  0.00    +0.020 C 
BRANCH  11  12
ATOM     12  C   LIG    1       -6.467  -4.939   2.489  0.00  0.00    +0.500 C 
ATOM     13  O   LIG    1       -7.348  -5.228   3.286  0.00  0.00    -0.680 OA
ATOM     14  O   LIG    1       -6.339  -5.584   1.458  0.00  0.00    -0.680 OA
ENDBRANCH  11  12
ENDBRANCH   5  10
BRANCH   7  15
ATOM     15  O   LIG    1       -1.473  -1.910  -2.061  0.00  0.00    -0.550 OA
ATOM     16  H   LIG    1       -1.537  -2.765  -2.508  0.00  0.00    +0.390 HD
ENDBRANCH   7  15
TORSDOF 4
ENDMDL
MODEL      218
REMARK  Name = ZINC000386915334
REMARK                            x       y       z     vdW  Elec       q    Type
REMARK                         _______ _______ _______ _____ _____    ______ ____
ROOT
ATOM      1  C   LIG    1       -3.745   1.973   0.030  0.00  0.00    +0.570 C 
ATOM      2  N   LIG    1       -4.903   1.284   0.032  0.00  0.00    -0.630 N 
ATOM      3  C   LIG    1       -5.044  -0.206   0.031  0.00  0.00    +0.340 C 
ATOM      4  C   LIG    1       -6.492  -0.434   0.168  0.00  0.00    -0.070 C 
ATOM      5  C   LIG    1       -7.470  -1.466  -0.095  0.00  0.00    +0.590 C 
ATOM      6  N   LIG    1       -8.673  -0.805  -0.111  0.00  0.00    -0.710 N 
ATOM      7  H   LIG    1       -9.533  -1.253  -0.078  0.00  0.00    +0.420 HD
ATOM      8  C   LIG    1       -8.529   0.552  -0.178  0.00  0.00    +0.550 C 
ATOM      9  O   LIG    1       -9.369   1.391   0.069  0.00  0.00    -0.460 OA
ATOM     10  O   LIG    1       -7.272  -2.650  -0.264  0.00  0.00    -0.450 OA
ATOM     11  C   LIG    1       -7.112   0.774  -0.644  0.00  0.00    +0.000 C 
ATOM     12  C   LIG    1       -6.280   1.869   0.042  0.00  0.00    +0.310 C 
ATOM     13  O   LIG    1       -3.762   3.188   0.037  0.00  0.00    -0.540 OA
ENDROOT
BRANCH   1  15
ATOM     14  C   LIG    1       -1.301   1.938   0.019  0.00  0.00    +0.020 C 
ATOM     15  C   LIG    1       -2.455   1.251   0.021  0.00  0.00    -0.080 C 
BRANCH  14  17
ATOM     16  O   LIG    1        0.002  -0.004   0.002  0.00  0.00    -0.680 OA
ATOM     17  C   LIG    1       -0.015   1.219   0.009  0.00  0.00    +0.500 C 
ATOM     18  O   LIG    1        1.036   1.844   0.002  0.00  0.00    -0.680 OA
ENDBRANCH  14  17
ENDBRANCH   1  15
TORSDOF 2
ENDMDL
MODEL      219
REMARK  Name = ZINC000409422337
REMARK                            x       y       z     vdW  Elec       q    Type
REMARK                         _______ _______ _______ _____ _____    ______ ____
ROOT
ATOM      1  C   LIG    1       -2.550  -2.680   0.012  0.00  0.00    +0.530 C 
ATOM      2  N   LIG    1       -2.778  -4.008   0.007  0.00  0.00    -0.640 N 
ATOM      3  C   LIG    1       -1.952  -5.225  -0.001  0.00  0.00    +0.280 C 
ATOM      4  C   LIG    1       -3.114  -5.945  -0.699  0.00  0.00    -0.090 C 
ATOM      5  C   LIG    1       -3.963  -4.879   0.014  0.00  0.00    +0.290 C 
ATOM      6  O   LIG    1       -3.482  -1.905   0.025  0.00  0.00    -0.560 OA
ENDROOT
BRANCH   4   7
ATOM      7  C   LIG    1       -3.353  -7.350  -0.209  0.00  0.00    +0.510 C 
ATOM      8  O   LIG    1       -2.423  -8.016   0.212  0.00  0.00    -0.690 OA
ATOM      9  O   LIG    1       -4.477  -7.821  -0.235  0.00  0.00    -0.690 OA
ENDBRANCH   4   7
BRANCH   1  10
ATOM     10  C   LIG    1       -1.136  -2.159   0.001  0.00  0.00    +0.300 C 
BRANCH  10  13
ATOM     11  C   LIG    1       -0.018   1.503   0.010  0.00  0.00    +0.100 C 
ATOM     12  C   LIG    1        0.002  -0.004   0.002  0.00  0.00    +0.510 C 
ATOM     13  N   LIG    1       -1.156  -0.694   0.009  0.00  0.00    -0.720 N 
ATOM     14  H   LIG    1       -2.002  -0.220   0.020  0.00  0.00    +0.410 HD
ATOM     15  O   LIG    1        1.060  -0.596  -0.011  0.00  0.00    -0.550 OA
ENDBRANCH  10  13
ENDBRANCH   1  10
TORSDOF 3
ENDMDL
MODEL      220
REMARK  Name = ZINC000409426096
REMARK                            x       y       z     vdW  Elec       q    Type
REMARK                         _______ _______ _______ _____ _____    ______ ____
ROOT
ATOM      1  C   LIG    1       -3.745   1.973   0.030  0.00  0.00    +0.570 C 
ATOM      2  N   LIG    1       -4.903   1.284   0.032  0.00  0.00    -0.630 N 
ATOM      3  C   LIG    1       -5.041  -0.210   0.031  0.00  0.00    +0.350 C 
ATOM      4  C   LIG    1       -6.390  -0.393  -0.539  0.00  0.00    -0.070 C 
ATOM      5  C   LIG    1       -7.387  -1.428  -0.687  0.00  0.00    +0.590 C 
ATOM      6  N   LIG    1       -8.567  -0.751  -0.873  0.00  0.00    -0.710 N 
ATOM      7  H   LIG    1       -9.383  -1.169  -1.190  0.00  0.00    +0.420 HD
ATOM      8  C   LIG    1       -8.467   0.577  -0.565  0.00  0.00    +0.550 C 
ATOM      9  O   LIG    1       -9.230   1.463  -0.881  0.00  0.00    -0.460 OA
ATOM     10  O   LIG    1       -7.220  -2.628  -0.653  0.00  0.00    -0.450 OA
ATOM     11  C   LIG    1       -7.215   0.690   0.269  0.00  0.00    +0.000 C 
ATOM     12  C   LIG    1       -6.273   1.870   0.042  0.00  0.00    +0.300 C 
ATOM     13  O   LIG    1       -3.762   3.188   0.037  0.00  0.00    -0.540 OA
ENDROOT
BRANCH   1  15
ATOM     14  C   LIG    1       -1.301   1.938   0.019  0.00  0.00    +0.020 C 
ATOM     15  C   LIG    1       -2.455   1.251   0.021  0.00  0.00    -0.080 C 
BRANCH  14  17
ATOM     16  O   LIG    1        0.002  -0.004   0.002  0.00  0.00    -0.680 OA
ATOM     17  C   LIG    1       -0.015   1.219   0.009  0.00  0.00    +0.500 C 
ATOM     18  O   LIG    1        1.036   1.844   0.002  0.00  0.00    -0.680 OA
ENDBRANCH  14  17
ENDBRANCH   1  15
TORSDOF 2
ENDMDL
MODEL      221
REMARK  Name = ZINC000409431747
REMARK                            x       y       z     vdW  Elec       q    Type
REMARK                         _______ _______ _______ _____ _____    ______ ____
ROOT
ATOM      1  C   LIG    1       -1.295  -0.603   0.011  0.00  0.00    +0.170 C 
ATOM      2  C   LIG    1       -1.737  -0.948   1.455  0.00  0.00    +0.250 C 
ATOM      3  N   LIG    1       -2.710  -2.045   1.300  0.00  0.00    -0.620 N 
ATOM      4  C   LIG    1       -2.446  -2.733   0.028  0.00  0.00    +0.230 C 
ATOM      5  C   LIG    1       -3.681  -2.364   2.179  0.00  0.00    +0.570 C 
ATOM      6  O   LIG    1       -3.808  -1.723   3.203  0.00  0.00    -0.550 OA
ATOM      7  C   LIG    1       -1.265  -2.006  -0.650  0.00  0.00    +0.180 C 
ENDROOT
BRANCH   1   9
ATOM      8  C   LIG    1       -0.017   1.425   0.010  0.00  0.00    +0.190 C 
ATOM      9  O   LIG    1        0.002  -0.004   0.002  0.00  0.00    -0.360 OA
ENDBRANCH   1   9
BRANCH   5  10
ATOM     10  C   LIG    1       -4.592  -3.494   1.896  0.00  0.00    -0.080 C 
ATOM     11  C   LIG    1       -5.559  -3.812   2.771  0.00  0.00    +0.020 C 
BRANCH  11  12
ATOM     12  C   LIG    1       -6.467  -4.939   2.489  0.00  0.00    +0.500 C 
ATOM     13  O   LIG    1       -7.348  -5.228   3.286  0.00  0.00    -0.680 OA
ATOM     14  O   LIG    1       -6.339  -5.584   1.458  0.00  0.00    -0.680 OA
ENDBRANCH  11  12
ENDBRANCH   5  10
BRANCH   7  15
ATOM     15  O   LIG    1       -0.033  -2.673  -0.370  0.00  0.00    -0.540 OA
ATOM     16  H   LIG    1        0.005  -3.583  -0.697  0.00  0.00    +0.380 HD
ENDBRANCH   7  15
TORSDOF 4
ENDMDL
MODEL      222
REMARK  Name = ZINC000409431751
REMARK                            x       y       z     vdW  Elec       q    Type
REMARK                         _______ _______ _______ _____ _____    ______ ____
ROOT
ATOM      1  C   LIG    1       -1.295  -0.603   0.011  0.00  0.00    +0.170 C 
ATOM      2  C   LIG    1       -1.764  -0.912  -1.426  0.00  0.00    +0.240 C 
ATOM      3  N   LIG    1       -2.451  -2.211  -1.391  0.00  0.00    -0.620 N 
ATOM      4  C   LIG    1       -2.453  -2.708  -0.004  0.00  0.00    +0.240 C 
ATOM      5  C   LIG    1       -2.989  -2.844  -2.453  0.00  0.00    +0.570 C 
ATOM      6  O   LIG    1       -2.928  -2.339  -3.556  0.00  0.00    -0.550 OA
ATOM      7  C   LIG    1       -1.248  -2.005   0.675  0.00  0.00    +0.190 C 
ENDROOT
BRANCH   1   9
ATOM      8  C   LIG    1       -0.017   1.425   0.010  0.00  0.00    +0.200 C 
ATOM      9  O   LIG    1        0.002  -0.004   0.002  0.00  0.00    -0.370 OA
ENDBRANCH   1   9
BRANCH   5  10
ATOM     10  C   LIG    1       -3.654  -4.153  -2.275  0.00  0.00    -0.080 C 
ATOM     11  C   LIG    1       -4.190  -4.783  -3.332  0.00  0.00    +0.020 C 
BRANCH  11  12
ATOM     12  C   LIG    1       -4.853  -6.088  -3.154  0.00  0.00    +0.500 C 
ATOM     13  O   LIG    1       -5.341  -6.662  -4.117  0.00  0.00    -0.680 OA
ATOM     14  O   LIG    1       -4.915  -6.596  -2.044  0.00  0.00    -0.680 OA
ENDBRANCH  11  12
ENDBRANCH   5  10
BRANCH   7  15
ATOM     15  O   LIG    1       -1.436  -1.916   2.088  0.00  0.00    -0.550 OA
ATOM     16  H   LIG    1       -1.510  -2.773   2.530  0.00  0.00    +0.390 HD
ENDBRANCH   7  15
TORSDOF 4
ENDMDL
MODEL      223
REMARK  Name = ZINC000409431749
REMARK                            x       y       z     vdW  Elec       q    Type
REMARK                         _______ _______ _______ _____ _____    ______ ____
ROOT
ATOM      1  C   LIG    1       -1.295  -0.603   0.011  0.00  0.00    +0.170 C 
ATOM      2  C   LIG    1       -1.764  -0.912  -1.426  0.00  0.00    +0.240 C 
ATOM      3  N   LIG    1       -2.451  -2.211  -1.391  0.00  0.00    -0.610 N 
ATOM      4  C   LIG    1       -2.453  -2.708  -0.004  0.00  0.00    +0.240 C 
ATOM      5  C   LIG    1       -2.989  -2.844  -2.453  0.00  0.00    +0.570 C 
ATOM      6  O   LIG    1       -2.928  -2.339  -3.556  0.00  0.00    -0.550 OA
ATOM      7  C   LIG    1       -1.248  -2.005   0.675  0.00  0.00    +0.180 C 
ENDROOT
BRANCH   1   9
ATOM      8  C   LIG    1       -0.017   1.425   0.010  0.00  0.00    +0.190 C 
ATOM      9  O   LIG    1        0.002  -0.004   0.002  0.00  0.00    -0.360 OA
ENDBRANCH   1   9
BRANCH   5  10
ATOM     10  C   LIG    1       -3.654  -4.153  -2.275  0.00  0.00    -0.080 C 
ATOM     11  C   LIG    1       -4.190  -4.783  -3.332  0.00  0.00    +0.020 C 
BRANCH  11  12
ATOM     12  C   LIG    1       -4.853  -6.088  -3.154  0.00  0.00    +0.510 C 
ATOM     13  O   LIG    1       -5.341  -6.662  -4.117  0.00  0.00    -0.680 OA
ATOM     14  O   LIG    1       -4.915  -6.596  -2.044  0.00  0.00    -0.680 OA
ENDBRANCH  11  12
ENDBRANCH   5  10
BRANCH   7  15
ATOM     15  O   LIG    1       -0.024  -2.674   0.365  0.00  0.00    -0.540 OA
ATOM     16  H   LIG    1        0.012  -3.590   0.673  0.00  0.00    +0.380 HD
ENDBRANCH   7  15
TORSDOF 4
ENDMDL
MODEL      224
REMARK  Name = ZINC000409432742
REMARK                            x       y       z     vdW  Elec       q    Type
REMARK                         _______ _______ _______ _____ _____    ______ ____
ROOT
ATOM      1  C   LIG    1        0.110   1.553  -0.153  0.00  0.00    +0.290 C 
ATOM      2  N   LIG    1        0.071   0.089  -0.121  0.00  0.00    -0.630 N 
ATOM      3  C   LIG    1       -1.226  -0.574  -0.141  0.00  0.00    +0.320 C 
ATOM      4  C   LIG    1       -1.125  -1.984   0.358  0.00  0.00    +0.510 C 
ATOM      5  N   LIG    1        0.030  -2.654   0.399  0.00  0.00    -0.600 N 
ATOM      6  C   LIG    1        1.294  -2.078  -0.039  0.00  0.00    +0.270 C 
ATOM      7  C   LIG    1        0.025  -4.029   0.906  0.00  0.00    +0.290 C 
ATOM      8  O   LIG    1       -2.133  -2.539   0.741  0.00  0.00    -0.550 OA
ATOM      9  C   LIG    1        1.227  -0.581  -0.080  0.00  0.00    +0.510 C 
ATOM     10  O   LIG    1        2.263   0.049  -0.068  0.00  0.00    -0.470 OA
ENDROOT
BRANCH   6  11
ATOM     11  C   LIG    1        1.623  -2.597  -1.440  0.00  0.00    -0.050 C 
BRANCH  11  12
ATOM     12  C   LIG    1        3.008  -2.149  -1.830  0.00  0.00    +0.490 C 
ATOM     13  O   LIG    1        3.414  -2.341  -2.963  0.00  0.00    -0.700 OA
ATOM     14  O   LIG    1        3.722  -1.595  -1.012  0.00  0.00    -0.660 OA
ENDBRANCH  11  12
ENDBRANCH   6  11
TORSDOF 2
ENDMDL
MODEL      225
REMARK  Name = ZINC000001529737
REMARK                            x       y       z     vdW  Elec       q    Type
REMARK                         _______ _______ _______ _____ _____    ______ ____
ROOT
ATOM      1  CG  GLN A  1        2.783  -1.099   2.395  0.00  0.00    +0.030 C 
ENDROOT
BRANCH   1   4
ATOM      2  N   GLN A  1        0.711  -0.489   1.189  0.00  0.00    -0.690 N 
ATOM      3  H   GLN A  1        0.213  -0.731   1.986  0.00  0.00    +0.400 HD
ATOM      4  CD  GLN A  1        2.054  -0.600   1.174  0.00  0.00    +0.500 C 
ATOM      5  OE1 GLN A  1        2.676  -0.297   0.177  0.00  0.00    -0.550 OA
BRANCH   2   7
ATOM      6  CB  GLN A  1       -0.019   1.526   0.010  0.00  0.00    +0.030 C 
ATOM      7  CA  GLN A  1        0.002  -0.004   0.002  0.00  0.00    +0.150 C 
BRANCH   7   8
ATOM      8  C   GLN A  1       -1.412  -0.526   0.013  0.00  0.00    +0.500 C 
ATOM      9  OXT GLN A  1       -1.849  -1.081   1.006  0.00  0.00    -0.690 OA
ATOM     10  O   GLN A  1       -2.118  -0.393  -0.972  0.00  0.00    -0.680 OA
ENDBRANCH   7   8
ENDBRANCH   2   7
ENDBRANCH   1   4
BRANCH   1  11
ATOM     11  CB  GLN A  1        4.287  -1.129   2.114  0.00  0.00    +0.100 C 
BRANCH  11  12
ATOM     12  CA  GLN A  1        5.026  -1.635   3.354  0.00  0.00    +0.080 C 
BRANCH  12  13
ATOM     13  N   GLN A  1        4.855  -0.676   4.453  0.00  0.00    -0.610 N 
ATOM     14  H1  GLN A  1        5.231   0.220   4.179  0.00  0.00    +0.430 HD
ATOM     15  H2  GLN A  1        5.343  -1.010   5.270  0.00  0.00    +0.430 HD
ATOM     16  H3  GLN A  1        3.873  -0.578   4.664  0.00  0.00    +0.410 HD
ENDBRANCH  12  13
BRANCH  12  17
ATOM     17  C   GLN A  1        6.493  -1.781   3.039  0.00  0.00    +0.490 C 
ATOM     18  OXT GLN A  1        6.870  -2.662   2.284  0.00  0.00    -0.640 OA
ATOM     19  O   GLN A  1        7.303  -1.019   3.538  0.00  0.00    -0.680 OA
ENDBRANCH  12  17
ENDBRANCH  11  12
ENDBRANCH   1  11
TORSDOF 7
ENDMDL
MODEL      226
REMARK  Name = ZINC000100637954
REMARK                            x       y       z     vdW  Elec       q    Type
REMARK                         _______ _______ _______ _____ _____    ______ ____
ROOT
ATOM      1  O   LIG    1        0.002  -0.004   0.002  0.00  0.00    -0.530 OA
ATOM      2  C   LIG    1       -0.014   1.212   0.009  0.00  0.00    +0.470 C 
ATOM      3  O   LIG    1       -1.128   1.970   0.029  0.00  0.00    -0.330 OA
ATOM      4  C   LIG    1       -0.734   3.345   0.031  0.00  0.00    +0.170 C 
ATOM      5  C   LIG    1        0.777   3.354   0.009  0.00  0.00    +0.260 C 
ATOM      6  O   LIG    1        1.578   4.442   0.004  0.00  0.00    -0.650 OA
ATOM      7  C   LIG    1        1.169   2.065   0.002  0.00  0.00    -0.320 C 
ENDROOT
BRANCH   7   8
ATOM      8  O   LIG    1        2.460   1.629  -0.017  0.00  0.00    -0.460 OA
ATOM      9  H   LIG    1        2.550   0.666  -0.019  0.00  0.00    +0.360 HD
ENDBRANCH   7   8
BRANCH   4  10
ATOM     10  C   LIG    1       -1.283   4.051  -1.210  0.00  0.00    +0.210 C 
BRANCH  10  11
ATOM     11  O   LIG    1       -0.706   3.471  -2.382  0.00  0.00    -0.540 OA
ATOM     12  H   LIG    1       -0.889   2.527  -2.485  0.00  0.00    +0.380 HD
ENDBRANCH  10  11
BRANCH  10  13
ATOM     13  C   LIG    1       -2.804   3.890  -1.258  0.00  0.00    +0.190 C 
BRANCH  13  14
ATOM     14  O   LIG    1       -3.381   4.470  -0.086  0.00  0.00    -0.540 OA
ATOM     15  H   LIG    1       -3.197   5.413   0.017  0.00  0.00    +0.370 HD
ENDBRANCH  13  14
BRANCH  13  16
ATOM     16  C   LIG    1       -3.353   4.596  -2.499  0.00  0.00    +0.160 C 
BRANCH  16  17
ATOM     17  O   LIG    1       -4.756   4.348  -2.607  0.00  0.00    -0.570 OA
ATOM     18  H   LIG    1       -5.171   4.766  -3.373  0.00  0.00    +0.380 HD
ENDBRANCH  16  17
ENDBRANCH  13  16
ENDBRANCH  10  13
ENDBRANCH   4  10
TORSDOF 7
ENDMDL
MODEL      227
REMARK  Name = ZINC000088466486
REMARK                            x       y       z     vdW  Elec       q    Type
REMARK                         _______ _______ _______ _____ _____    ______ ____
ROOT
ATOM      1  C   LIG    1       -1.483   2.739  -1.283  0.00  0.00    +0.280 C 
ATOM      2  O   LIG    1       -1.437   1.837  -2.430  0.00  0.00    -0.350 OA
ATOM      3  C   LIG    1       -2.164   2.377  -3.425  0.00  0.00    +0.470 C 
ATOM      4  C   LIG    1       -3.320   3.136  -2.805  0.00  0.00    +0.130 C 
ATOM      5  O   LIG    1       -1.936   2.274  -4.607  0.00  0.00    -0.450 OA
ATOM      6  C   LIG    1       -2.877   3.400  -1.349  0.00  0.00    +0.210 C 
ENDROOT
BRANCH   4   7
ATOM      7  O   LIG    1       -3.532   4.370  -3.495  0.00  0.00    -0.540 OA
ATOM      8  H   LIG    1       -3.763   4.264  -4.428  0.00  0.00    +0.390 HD
ENDBRANCH   4   7
BRANCH   1   9
ATOM      9  O   LIG    1       -0.459   3.730  -1.387  0.00  0.00    -0.550 OA
ATOM     10  H   LIG    1        0.439   3.370  -1.373  0.00  0.00    +0.410 HD
ENDBRANCH   1   9
BRANCH   6  11
ATOM     11  O   LIG    1       -3.777   2.781  -0.428  0.00  0.00    -0.510 OA
ATOM     12  H   LIG    1       -4.684   3.110  -0.483  0.00  0.00    +0.380 HD
ENDBRANCH   6  11
BRANCH   1  13
ATOM     13  C   LIG    1       -1.330   1.951   0.019  0.00  0.00    +0.160 C 
BRANCH  13  15
ATOM     14  O   LIG    1        0.002  -0.004   0.002  0.00  0.00    -0.670 OA
ATOM     15  C   LIG    1       -0.015   1.215   0.009  0.00  0.00    +0.470 C 
ATOM     16  O   LIG    1        1.033   1.839   0.002  0.00  0.00    -0.690 OA
ENDBRANCH  13  15
BRANCH  13  17
ATOM     17  O   LIG    1       -2.400   1.011   0.136  0.00  0.00    -0.520 OA
ATOM     18  H   LIG    1       -2.439   0.367  -0.584  0.00  0.00    +0.370 HD
ENDBRANCH  13  17
ENDBRANCH   1  13
TORSDOF 6
ENDMDL
MODEL      228
REMARK  Name = ZINC000088466000
REMARK                            x       y       z     vdW  Elec       q    Type
REMARK                         _______ _______ _______ _____ _____    ______ ____
ROOT
ATOM      1  C   LIG    1       -0.019   1.526   0.010  0.00  0.00    +0.040 C 
ATOM      2  C   LIG    1        0.002  -0.004   0.002  0.00  0.00    +0.060 C 
ATOM      3  O   LIG    1        0.567  -0.466  -1.226  0.00  0.00    -0.340 OA
ATOM      4  C   LIG    1        1.898  -0.005  -1.466  0.00  0.00    +0.310 C 
ATOM      5  C   LIG    1        2.821  -0.510  -0.354  0.00  0.00    +0.130 C 
ATOM      6  C   LIG    1        2.290  -0.024   0.999  0.00  0.00    +0.160 C 
ATOM      7  C   LIG    1        0.848  -0.510   1.174  0.00  0.00    +0.190 C 
ENDROOT
BRANCH   2   8
ATOM      8  C   LIG    1       -1.405  -0.526   0.136  0.00  0.00    +0.520 C 
ATOM      9  O   LIG    1       -2.068  -0.246   1.120  0.00  0.00    -0.690 OA
ATOM     10  O   LIG    1       -1.880  -1.229  -0.740  0.00  0.00    -0.670 OA
ENDBRANCH   2   8
BRANCH   6  11
ATOM     11  O   LIG    1        3.104  -0.551   2.049  0.00  0.00    -0.560 OA
ATOM     12  H   LIG    1        4.033  -0.287   1.996  0.00  0.00    +0.370 HD
ENDBRANCH   6  11
BRANCH   5  13
ATOM     13  O   LIG    1        2.850  -1.939  -0.371  0.00  0.00    -0.520 OA
ATOM     14  H   LIG    1        3.173  -2.316  -1.201  0.00  0.00    +0.370 HD
ENDBRANCH   5  13
BRANCH   4  15
ATOM     15  O   LIG    1        1.911   1.424  -1.484  0.00  0.00    -0.580 OA
ATOM     16  H   LIG    1        1.347   1.814  -2.165  0.00  0.00    +0.380 HD
ENDBRANCH   4  15
BRANCH   7  17
ATOM     17  O   LIG    1        0.825  -1.938   1.200  0.00  0.00    -0.520 OA
ATOM     18  H   LIG    1        1.345  -2.327   1.916  0.00  0.00    +0.370 HD
ENDBRANCH   7  17
TORSDOF 5
ENDMDL
MODEL      229
REMARK  Name = ZINC000003040308
REMARK                            x       y       z     vdW  Elec       q    Type
REMARK                         _______ _______ _______ _____ _____    ______ ____
ROOT
ATOM      1  C   LIG    1       -0.019   1.526   0.010  0.00  0.00    +0.090 C 
ATOM      2  C   LIG    1        0.002  -0.004   0.002  0.00  0.00    -0.400 C 
ENDROOT
BRANCH   2   3
ATOM      3  S   LIG    1        0.851  -0.589  -1.490  0.00  0.00    +2.620 S 
ATOM      4  O   LIG    1        2.180  -0.003  -1.407  0.00  0.00    -1.050 OA
ATOM      5  O   LIG    1        0.172  -0.124  -2.690  0.00  0.00    -1.050 OA
ATOM      6  O   LIG    1        0.944  -2.041  -1.500  0.00  0.00    -1.050 OA
ENDBRANCH   2   3
BRANCH   2   7
ATOM      7  O   LIG    1        0.693  -0.477   1.160  0.00  0.00    -0.520 OA
ATOM      8  H   LIG    1        0.745  -1.441   1.220  0.00  0.00    +0.370 HD
ENDBRANCH   2   7
BRANCH   2   9
ATOM      9  C   LIG    1       -1.433  -0.534   0.013  0.00  0.00    +0.180 C 
BRANCH   9  10
ATOM     10  O   LIG    1       -2.137   0.021   1.126  0.00  0.00    -0.360 OA
BRANCH  10  11
ATOM     11  C   LIG    1       -3.495  -0.412   1.229  0.00  0.00    +0.160 C 
BRANCH  11  12
ATOM     12  C   LIG    1       -4.147   0.240   2.450  0.00  0.00    +0.190 C 
BRANCH  12  13
ATOM     13  O   LIG    1       -4.215   1.654   2.255  0.00  0.00    -0.560 OA
ATOM     14  H   LIG    1       -4.618   2.134   2.992  0.00  0.00    +0.370 HD
ENDBRANCH  12  13
ENDBRANCH  11  12
ENDBRANCH  10  11
ENDBRANCH   9  10
ENDBRANCH   2   9
TORSDOF 7
ENDMDL
MODEL      230
REMARK  Name = ZINC000088465998
REMARK                            x       y       z     vdW  Elec       q    Type
REMARK                         _______ _______ _______ _____ _____    ______ ____
ROOT
ATOM      1  C   LIG    1       -0.019   1.526   0.010  0.00  0.00    +0.040 C 
ATOM      2  C   LIG    1        0.002  -0.004   0.002  0.00  0.00    +0.070 C 
ATOM      3  O   LIG    1       -1.332  -0.499   0.131  0.00  0.00    -0.360 OA
ATOM      4  C   LIG    1       -2.001  -0.073   1.320  0.00  0.00    +0.280 C 
ATOM      5  C   LIG    1       -1.235  -0.581   2.544  0.00  0.00    +0.120 C 
ATOM      6  C   LIG    1        0.204  -0.061   2.489  0.00  0.00    +0.150 C 
ATOM      7  C   LIG    1        0.848  -0.510   1.174  0.00  0.00    +0.190 C 
ENDROOT
BRANCH   2   8
ATOM      8  C   LIG    1        0.596  -0.491  -1.294  0.00  0.00    +0.510 C 
ATOM      9  O   LIG    1       -0.062  -1.197  -2.039  0.00  0.00    -0.680 OA
ATOM     10  O   LIG    1        1.735  -0.180  -1.598  0.00  0.00    -0.670 OA
ENDBRANCH   2   8
BRANCH   6  11
ATOM     11  O   LIG    1        0.200   1.367   2.558  0.00  0.00    -0.530 OA
ATOM     12  H   LIG    1       -0.200   1.720   3.365  0.00  0.00    +0.360 HD
ENDBRANCH   6  11
BRANCH   5  13
ATOM     13  O   LIG    1       -1.228  -2.010   2.543  0.00  0.00    -0.550 OA
ATOM     14  H   LIG    1       -2.109  -2.408   2.573  0.00  0.00    +0.390 HD
ENDBRANCH   5  13
BRANCH   4  15
ATOM     15  O   LIG    1       -3.329  -0.600   1.335  0.00  0.00    -0.560 OA
ATOM     16  H   LIG    1       -3.872  -0.320   0.586  0.00  0.00    +0.390 HD
ENDBRANCH   4  15
BRANCH   7  17
ATOM     17  O   LIG    1        2.168   0.030   1.079  0.00  0.00    -0.520 OA
ATOM     18  H   LIG    1        2.758  -0.246   1.794  0.00  0.00    +0.360 HD
ENDBRANCH   7  17
TORSDOF 5
ENDMDL
MODEL      231
REMARK  Name = ZINC000045887873
REMARK                            x       y       z     vdW  Elec       q    Type
REMARK                         _______ _______ _______ _____ _____    ______ ____
ROOT
ATOM      1  N   LIG    1        0.052  -3.250   1.418  0.00  0.00    -0.520 N 
ATOM      2  C   LIG    1        0.074  -4.603   0.850  0.00  0.00    +0.300 C 
ATOM      3  C   LIG    1        0.525  -5.527   2.003  0.00  0.00    -0.080 C 
ATOM      4  C   LIG    1        0.087  -4.717   3.246  0.00  0.00    +0.110 C 
ATOM      5  C   LIG    1        0.059  -3.284   2.762  0.00  0.00    +0.530 C 
ATOM      6  O   LIG    1        0.038  -2.308   3.481  0.00  0.00    -0.500 OA
ENDROOT
BRANCH   1  11
ATOM      7  C   LIG    1       -0.018   1.461   0.010  0.00  0.00    +0.420 C 
ATOM      8  N   LIG    1        0.002  -0.004   0.002  0.00  0.00    -0.210 N 
ATOM      9  N   LIG    1        0.008  -0.765  -1.039  0.00  0.00    +0.010 NA
ATOM     10  N   LIG    1        0.026  -1.997  -0.673  0.00  0.00    -0.320 NA
ATOM     11  C   LIG    1        0.033  -2.075   0.658  0.00  0.00    +0.440 A 
ATOM     12  N   LIG    1        0.024  -0.845   1.127  0.00  0.00    -0.300 NA
ENDBRANCH   1  11
BRANCH   3  13
ATOM     13  C   LIG    1       -0.189  -6.852   1.944  0.00  0.00    +0.510 C 
ATOM     14  O   LIG    1       -1.372  -6.895   1.653  0.00  0.00    -0.680 OA
ATOM     15  O   LIG    1        0.417  -7.883   2.186  0.00  0.00    -0.690 OA
ENDBRANCH   3  13
TORSDOF 2
ENDMDL
MODEL      232
REMARK  Name = ZINC000575622379
REMARK                            x       y       z     vdW  Elec       q    Type
REMARK                         _______ _______ _______ _____ _____    ______ ____
ROOT
ATOM      1  N   LIG    1       -2.430   0.984   0.019  0.00  0.00    -0.340 N 
ATOM      2  N   LIG    1       -2.956   0.525  -1.194  0.00  0.00    -0.220 NA
ATOM      3  C   LIG    1       -3.940  -0.339  -1.214  0.00  0.00    +0.310 A 
ATOM      4  C   LIG    1       -4.488  -0.825  -0.011  0.00  0.00    +0.080 A 
ATOM      5  C   LIG    1       -3.992  -0.393   1.179  0.00  0.00    +0.030 A 
ATOM      6  C   LIG    1       -2.929   0.534   1.188  0.00  0.00    +0.490 A 
ATOM      7  O   LIG    1       -2.470   0.933   2.246  0.00  0.00    -0.530 OA
ENDROOT
BRANCH   3   8
ATOM      8  N   LIG    1       -4.450  -0.784  -2.440  0.00  0.00    -0.320 N 
ATOM      9  C   LIG    1       -4.033  -0.421  -3.669  0.00  0.00    +0.520 A 
ATOM     10  N   LIG    1       -4.763  -1.058  -4.549  0.00  0.00    -0.540 NA
ATOM     11  C   LIG    1       -5.651  -1.831  -3.925  0.00  0.00    +0.440 A 
ATOM     12  N   LIG    1       -5.495  -1.702  -2.634  0.00  0.00    -0.310 NA
ENDBRANCH   3   8
BRANCH   1  13
ATOM     13  C   LIG    1       -1.330   1.951   0.019  0.00  0.00    +0.260 C 
BRANCH  13  15
ATOM     14  O   LIG    1        0.002  -0.004   0.002  0.00  0.00    -0.680 OA
ATOM     15  C   LIG    1       -0.015   1.215   0.009  0.00  0.00    +0.490 C 
ATOM     16  O   LIG    1        1.033   1.839   0.002  0.00  0.00    -0.690 OA
ENDBRANCH  13  15
ENDBRANCH   1  13
TORSDOF 3
ENDMDL
MODEL      233
REMARK  Name = ZINC000014684175
REMARK                            x       y       z     vdW  Elec       q    Type
REMARK                         _______ _______ _______ _____ _____    ______ ____
ROOT
ATOM      1  C   LIG    1       -1.464   2.772  -1.305  0.00  0.00    +0.260 C 
ENDROOT
BRANCH   1   2
ATOM      2  C   LIG    1       -2.831   3.404  -1.351  0.00  0.00    +0.450 C 
ATOM      3  O   LIG    1       -3.615   3.086  -2.213  0.00  0.00    -0.490 OA
BRANCH   2   4
ATOM      4  O   LIG    1       -3.177   4.322  -0.434  0.00  0.00    -0.290 OA
BRANCH   4   5
ATOM      5  C   LIG    1       -4.383   4.928  -0.593  0.00  0.00    +0.040 A 
ATOM      6  C   LIG    1       -5.557   4.266  -0.249  0.00  0.00    +0.060 A 
ATOM      7  C   LIG    1       -6.763   4.925  -0.429  0.00  0.00    -0.020 A 
ATOM      8  C   LIG    1       -6.760   6.209  -0.940  0.00  0.00    +0.250 A 
ATOM      9  N   LIG    1       -5.629   6.809  -1.257  0.00  0.00    -0.470 NA
ATOM     10  C   LIG    1       -4.461   6.219  -1.096  0.00  0.00    +0.260 A 
ENDBRANCH   4   5
ENDBRANCH   2   4
ENDBRANCH   1   2
BRANCH   1  11
ATOM     11  O   LIG    1       -1.293   1.923  -2.442  0.00  0.00    -0.520 OA
ATOM     12  H   LIG    1       -1.938   1.205  -2.497  0.00  0.00    +0.380 HD
ENDBRANCH   1  11
BRANCH   1  13
ATOM     13  C   LIG    1       -1.328   1.944  -0.025  0.00  0.00    +0.120 C 
BRANCH  13  15
ATOM     14  O   LIG    1        0.011  -0.005  -0.081  0.00  0.00    -0.680 OA
ATOM     15  C   LIG    1       -0.010   1.213  -0.037  0.00  0.00    +0.490 C 
ATOM     16  O   LIG    1        1.035   1.840  -0.007  0.00  0.00    -0.680 OA
ENDBRANCH  13  15
BRANCH  13  17
ATOM     17  O   LIG    1       -2.397   0.998   0.045  0.00  0.00    -0.550 OA
ATOM     18  H   LIG    1       -2.422   0.376  -0.695  0.00  0.00    +0.370 HD
ENDBRANCH  13  17
ENDBRANCH   1  13
TORSDOF 7
ENDMDL
MODEL      234
REMARK  Name = ZINC000014684176
REMARK                            x       y       z     vdW  Elec       q    Type
REMARK                         _______ _______ _______ _____ _____    ______ ____
ROOT
ATOM      1  C   LIG    1       -1.429   2.793   1.244  0.00  0.00    +0.260 C 
ENDROOT
BRANCH   1   2
ATOM      2  C   LIG    1       -2.792   3.432   1.322  0.00  0.00    +0.440 C 
ATOM      3  O   LIG    1       -3.557   3.118   2.202  0.00  0.00    -0.490 OA
BRANCH   2   4
ATOM      4  O   LIG    1       -3.155   4.350   0.412  0.00  0.00    -0.290 OA
BRANCH   4   5
ATOM      5  C   LIG    1       -4.432   4.811   0.477  0.00  0.00    +0.040 A 
ATOM      6  C   LIG    1       -4.797   5.745   1.441  0.00  0.00    +0.060 A 
ATOM      7  C   LIG    1       -6.111   6.185   1.467  0.00  0.00    -0.020 A 
ATOM      8  C   LIG    1       -7.009   5.685   0.543  0.00  0.00    +0.250 A 
ATOM      9  N   LIG    1       -6.630   4.800  -0.358  0.00  0.00    -0.470 NA
ATOM     10  C   LIG    1       -5.389   4.360  -0.421  0.00  0.00    +0.280 A 
ENDBRANCH   4   5
ENDBRANCH   2   4
ENDBRANCH   1   2
BRANCH   1  11
ATOM     11  O   LIG    1       -1.235   1.944   2.378  0.00  0.00    -0.520 OA
ATOM     12  H   LIG    1       -1.882   1.229   2.449  0.00  0.00    +0.380 HD
ENDBRANCH   1  11
BRANCH   1  13
ATOM     13  C   LIG    1       -1.327   1.963  -0.037  0.00  0.00    +0.120 C 
BRANCH  13  15
ATOM     14  O   LIG    1        0.004   0.008  -0.102  0.00  0.00    -0.680 OA
ATOM     15  C   LIG    1       -0.012   1.226  -0.055  0.00  0.00    +0.490 C 
ATOM     16  O   LIG    1        1.036   1.849  -0.028  0.00  0.00    -0.680 OA
ENDBRANCH  13  15
BRANCH  13  17
ATOM     17  O   LIG    1       -2.401   1.021  -0.082  0.00  0.00    -0.550 OA
ATOM     18  H   LIG    1       -2.411   0.401   0.660  0.00  0.00    +0.370 HD
ENDBRANCH  13  17
ENDBRANCH   1  13
TORSDOF 7
ENDMDL
MODEL      235
REMARK  Name = ZINC000004721246
REMARK                            x       y       z     vdW  Elec       q    Type
REMARK                         _______ _______ _______ _____ _____    ______ ____
ROOT
ATOM      1  C   LIG    1        0.652  -0.570  -1.138  0.00  0.00    +0.260 C 
ATOM      2  O   LIG    1        2.057  -0.325  -1.056  0.00  0.00    -0.350 OA
ATOM      3  C   LIG    1        2.803  -0.830  -2.165  0.00  0.00    +0.060 C 
ATOM      4  C   LIG    1        2.638  -2.350  -2.240  0.00  0.00    +0.180 C 
ATOM      5  C   LIG    1        1.149  -2.688  -2.361  0.00  0.00    +0.200 C 
ATOM      6  C   LIG    1        0.400  -2.080  -1.172  0.00  0.00    +0.130 C 
ENDROOT
BRANCH   3   7
ATOM      7  C   LIG    1        4.261  -0.491  -1.987  0.00  0.00    +0.510 C 
ATOM      8  O   LIG    1        5.060  -0.752  -2.870  0.00  0.00    -0.690 OA
ATOM      9  O   LIG    1        4.641   0.044  -0.960  0.00  0.00    -0.660 OA
ENDBRANCH   3   7
BRANCH   1  11
ATOM     10  C   LIG    1       -0.017   1.425   0.010  0.00  0.00    +0.220 C 
ATOM     11  O   LIG    1        0.002  -0.004   0.002  0.00  0.00    -0.370 OA
ENDBRANCH   1  11
BRANCH   5  12
ATOM     12  O   LIG    1        0.979  -4.107  -2.360  0.00  0.00    -0.540 OA
ATOM     13  H   LIG    1        0.058  -4.393  -2.434  0.00  0.00    +0.370 HD
ENDBRANCH   5  12
BRANCH   4  14
ATOM     14  O   LIG    1        3.170  -2.947  -1.056  0.00  0.00    -0.530 OA
ATOM     15  H   LIG    1        4.109  -2.770  -0.914  0.00  0.00    +0.370 HD
ENDBRANCH   4  14
BRANCH   6  16
ATOM     16  O   LIG    1        0.870  -2.671   0.041  0.00  0.00    -0.510 OA
ATOM     17  H   LIG    1        0.438  -2.332   0.837  0.00  0.00    +0.370 HD
ENDBRANCH   6  16
TORSDOF 5
ENDMDL
MODEL      236
REMARK  Name = ZINC000001576200
REMARK                            x       y       z     vdW  Elec       q    Type
REMARK                         _______ _______ _______ _____ _____    ______ ____
ROOT
ATOM      1  CA  GLU A  1       -3.465  -1.164  -1.134  0.00  0.00    +0.170 C 
ENDROOT
BRANCH   1   4
ATOM      2  N   ALA A  2       -1.372  -0.511   0.012  0.00  0.00    -0.660 N 
ATOM      3  H   ALA A  2       -1.794  -0.752   0.852  0.00  0.00    +0.420 HD
ATOM      4  C   GLU A  1       -2.051  -0.643  -1.145  0.00  0.00    +0.490 C 
ATOM      5  O   GLU A  1       -1.524  -0.341  -2.194  0.00  0.00    -0.560 OA
BRANCH   2   7
ATOM      6  CB  ALA A  2       -0.019   1.526   0.010  0.00  0.00    +0.020 C 
ATOM      7  CA  ALA A  2        0.002  -0.004   0.002  0.00  0.00    +0.150 C 
BRANCH   7   8
ATOM      8  C   ALA A  2        0.731  -0.503   1.223  0.00  0.00    +0.490 C 
ATOM      9  OXT ALA A  2        1.937  -0.350   1.318  0.00  0.00    -0.680 OA
ATOM     10  O   ALA A  2        0.115  -1.060   2.115  0.00  0.00    -0.680 OA
ENDBRANCH   7   8
ENDBRANCH   2   7
ENDBRANCH   1   4
BRANCH   1  11
ATOM     11  N   GLU A  1       -4.139  -0.778  -2.381  0.00  0.00    -0.620 N 
ATOM     12  H1  GLU A  1       -3.642  -1.169  -3.167  0.00  0.00    +0.440 HD
ATOM     13  H2  GLU A  1       -4.152   0.228  -2.458  0.00  0.00    +0.430 HD
ATOM     14  H3  GLU A  1       -5.085  -1.127  -2.374  0.00  0.00    +0.440 HD
ENDBRANCH   1  11
BRANCH   1  15
ATOM     15  CB  GLU A  1       -3.445  -2.690  -1.017  0.00  0.00    +0.090 C 
BRANCH  15  16
ATOM     16  CG  GLU A  1       -4.877  -3.210  -0.880  0.00  0.00    -0.080 C 
BRANCH  16  17
ATOM     17  CD  GLU A  1       -4.857  -4.712  -0.765  0.00  0.00    +0.490 C 
ATOM     18  OE2 GLU A  1       -5.903  -5.328  -0.647  0.00  0.00    -0.690 OA
ATOM     19  OE1 GLU A  1       -3.796  -5.311  -0.789  0.00  0.00    -0.680 OA
ENDBRANCH  16  17
ENDBRANCH  15  16
ENDBRANCH   1  15
TORSDOF 7
ENDMDL
MODEL      237
REMARK  Name = ZINC000001574718
REMARK                            x       y       z     vdW  Elec       q    Type
REMARK                         _______ _______ _______ _____ _____    ______ ____
ROOT
ATOM      1  S   LIG    1       -2.692   0.753   0.019  0.00  0.00    +2.640 S 
ATOM      2  O   LIG    1       -2.737   0.049   1.252  0.00  0.00    -0.960 OA
ATOM      3  O   LIG    1       -2.749   0.062  -1.222  0.00  0.00    -0.960 OA
ENDROOT
BRANCH   1   4
ATOM      4  N   LIG    1       -4.061   1.685   0.030  0.00  0.00    -1.020 NA
ATOM      5  C   LIG    1       -4.678   2.110   1.297  0.00  0.00    +0.270 C 
ATOM      6  C   LIG    1       -4.907   3.624   1.240  0.00  0.00    +0.210 C 
ATOM      7  O   LIG    1       -5.623   3.947   0.045  0.00  0.00    -0.380 OA
ATOM      8  C   LIG    1       -4.925   3.628  -1.160  0.00  0.00    +0.210 C 
ATOM      9  C   LIG    1       -4.693   2.118  -1.226  0.00  0.00    +0.270 C 
ENDBRANCH   1   4
BRANCH   1  10
ATOM     10  C   LIG    1       -1.330   1.951   0.019  0.00  0.00    -0.450 C 
BRANCH  10  12
ATOM     11  O   LIG    1        0.002  -0.004   0.002  0.00  0.00    -0.680 OA
ATOM     12  C   LIG    1       -0.015   1.215   0.009  0.00  0.00    +0.520 C 
ATOM     13  O   LIG    1        1.033   1.839   0.002  0.00  0.00    -0.670 OA
ENDBRANCH  10  12
ENDBRANCH   1  10
TORSDOF 3
ENDMDL
MODEL      238
REMARK  Name = ZINC000001643467
REMARK                            x       y       z     vdW  Elec       q    Type
REMARK                         _______ _______ _______ _____ _____    ______ ____
ROOT
ATOM      1  C   LIG    1        1.740  -2.172  -3.034  0.00  0.00    -0.430 C 
ENDROOT
BRANCH   1   2
ATOM      2  P   LIG    1        0.813  -1.461  -4.434  0.00  0.00    +2.100 P 
ATOM      3  O   LIG    1        1.502  -1.875  -5.779  0.00  0.00    -1.130 OA
ATOM      4  O   LIG    1        0.801   0.101  -4.313  0.00  0.00    -1.110 OA
ATOM      5  O   LIG    1       -0.658  -1.998  -4.414  0.00  0.00    -1.120 OA
ENDBRANCH   1   2
BRANCH   1   6
ATOM      6  N   LIG    1        1.854  -3.626  -3.210  0.00  0.00    -0.600 N 
ATOM      7  H   LIG    1        2.342  -3.822  -4.071  0.00  0.00    +0.430 HD
ATOM      8  H   LIG    1        0.932  -4.034  -3.245  0.00  0.00    +0.430 HD
ATOM      9  H   LIG    1        2.367  -4.019  -2.435  0.00  0.00    +0.400 HD
ENDBRANCH   1   6
BRANCH   1  10
ATOM     10  C   LIG    1        0.999  -1.873  -1.729  0.00  0.00    +0.060 C 
BRANCH  10  11
ATOM     11  C   LIG    1        0.880  -0.358  -1.545  0.00  0.00    -0.300 C 
BRANCH  11  13
ATOM     12  C   LIG    1       -0.022   1.810   0.012  0.00  0.00    -0.260 C 
ATOM     13  S   LIG    1        0.002  -0.004   0.002  0.00  0.00    +2.420 S 
ATOM     14  O   LIG    1       -1.334  -0.474  -0.117  0.00  0.00    -0.940 OA
ATOM     15  O   LIG    1        0.801  -0.452   1.088  0.00  0.00    -0.960 OA
ENDBRANCH  11  13
ENDBRANCH  10  11
ENDBRANCH   1  10
TORSDOF 5
ENDMDL
MODEL      239
REMARK  Name = ZINC000017315542
REMARK                            x       y       z     vdW  Elec       q    Type
REMARK                         _______ _______ _______ _____ _____    ______ ____
ROOT
ATOM      1  C   LIG    1       -0.846  -0.529  -1.450  0.00  0.00    -0.150 A 
ATOM      2  N   LIG    1       -0.163  -1.079  -2.415  0.00  0.00    -0.540 NA
ATOM      3  C   LIG    1       -0.761  -1.496  -3.540  0.00  0.00    +0.260 A 
ATOM      4  C   LIG    1       -2.143  -1.340  -3.686  0.00  0.00    -0.140 A 
ATOM      5  C   LIG    1       -2.870  -0.741  -2.627  0.00  0.00    +0.540 A 
ATOM      6  O   LIG    1       -4.076  -0.583  -2.706  0.00  0.00    -0.580 OA
ATOM      7  N   LIG    1       -2.478  -1.839  -4.899  0.00  0.00    -0.440 NA
ATOM      8  C   LIG    1       -1.408  -2.282  -5.493  0.00  0.00    +0.390 A 
ATOM      9  N   LIG    1       -0.322  -2.091  -4.691  0.00  0.00    -0.580 N 
ATOM     10  H   LIG    1        0.594  -2.333  -4.898  0.00  0.00    +0.420 HD
ATOM     11  N   LIG    1       -2.189  -0.353  -1.525  0.00  0.00    -0.610 NA
ENDROOT
BRANCH   1  12
ATOM     12  S   LIG    1        0.002  -0.004   0.002  0.00  0.00    +2.740 S 
ATOM     13  O   LIG    1       -0.792  -0.422   1.104  0.00  0.00    -0.950 OA
ATOM     14  O   LIG    1        1.360  -0.386  -0.166  0.00  0.00    -0.950 OA
BRANCH  12  15
ATOM     15  N   LIG    1       -0.020   1.652   0.011  0.00  0.00    -1.240 NA
ATOM     16  H   LIG    1       -0.867   2.125   0.018  0.00  0.00    +0.420 HD
ATOM     17  H   LIG    1        0.813   2.148   0.006  0.00  0.00    +0.420 HD
ENDBRANCH  12  15
ENDBRANCH   1  12
TORSDOF 2
ENDMDL
MODEL      240
REMARK  Name = ZINC000001725811
REMARK                            x       y       z     vdW  Elec       q    Type
REMARK                         _______ _______ _______ _____ _____    ______ ____
ROOT
ATOM      1  C   LIG    1        0.021  -2.119  -1.096  0.00  0.00    +0.210 C 
ENDROOT
BRANCH   1   2
ATOM      2  C   LIG    1       -1.393  -2.640  -1.059  0.00  0.00    +0.510 C 
ATOM      3  O   LIG    1       -2.325  -1.874  -1.179  0.00  0.00    -0.540 OA
ATOM      4  N   LIG    1       -1.621  -3.958  -0.893  0.00  0.00    -0.840 N 
ATOM      5  H   LIG    1       -2.531  -4.293  -0.869  0.00  0.00    +0.400 HD
ATOM      6  H   LIG    1       -0.876  -4.571  -0.798  0.00  0.00    +0.410 HD
ENDBRANCH   1   2
BRANCH   1   7
ATOM      7  O   LIG    1        0.000  -0.669  -1.164  0.00  0.00    -0.290 OA
BRANCH   7   9
ATOM      8  C   LIG    1       -0.018   1.503   0.010  0.00  0.00    +0.160 C 
ATOM      9  C   LIG    1        0.002  -0.004   0.002  0.00  0.00    +0.470 C 
ATOM     10  O   LIG    1        0.020  -0.614   1.045  0.00  0.00    -0.530 OA
ENDBRANCH   7   9
ENDBRANCH   1   7
BRANCH   1  11
ATOM     11  C   LIG    1        0.738  -2.677  -2.327  0.00  0.00    +0.130 C 
BRANCH  11  12
ATOM     12  C   LIG    1        2.151  -2.156  -2.364  0.00  0.00    +0.500 C 
ATOM     13  O   LIG    1        2.358  -0.964  -2.514  0.00  0.00    -0.660 OA
ATOM     14  O   LIG    1        3.088  -2.927  -2.244  0.00  0.00    -0.670 OA
ENDBRANCH  11  12
BRANCH  11  15
ATOM     15  O   LIG    1        0.758  -4.128  -2.259  0.00  0.00    -0.340 OA
BRANCH  15  16
ATOM     16  C   LIG    1        0.756  -4.793  -3.425  0.00  0.00    +0.460 C 
ATOM     17  O   LIG    1        0.738  -4.183  -4.468  0.00  0.00    -0.510 OA
ATOM     18  C   LIG    1        0.777  -6.299  -3.433  0.00  0.00    +0.150 C 
ENDBRANCH  15  16
ENDBRANCH  11  15
ENDBRANCH   1  11
TORSDOF 7
ENDMDL
MODEL      241
REMARK  Name = ZINC000001857909
REMARK                            x       y       z     vdW  Elec       q    Type
REMARK                         _______ _______ _______ _____ _____    ______ ____
ROOT
ATOM      1  C   LIG    1        0.077  -2.055  -1.092  0.00  0.00    -0.010 A 
ATOM      2  CA  LIG    1        0.170  -2.817  -2.224  0.00  0.00    +0.130 A 
ATOM      3  N   LIG    1        0.254  -4.196  -2.106  0.00  0.00    -0.610 N 
ATOM      4  H   LIG    1        0.320  -4.739  -2.906  0.00  0.00    +0.440 HD
ATOM      5  C   LIG    1        0.244  -4.793  -0.903  0.00  0.00    +0.700 A 
ATOM      6  N   LIG    1        0.155  -4.091   0.240  0.00  0.00    -0.650 N 
ATOM      7  H   LIG    1        0.150  -4.557   1.091  0.00  0.00    +0.430 HD
ATOM      8  O   LIG    1        0.320  -6.005  -0.846  0.00  0.00    -0.560 OA
ATOM      9  C   LIG    1        0.076  -2.745   0.215  0.00  0.00    +0.550 A 
ATOM     10  O   LIG    1       -0.005  -2.110   1.249  0.00  0.00    -0.500 OA
ENDROOT
BRANCH   1  13
ATOM     11  C   LIG    1       -1.105   1.475  -0.616  0.00  0.00    +0.100 C 
ATOM     12  C   LIG    1       -1.067  -0.032  -0.635  0.00  0.00    +0.520 C 
ATOM     13  N   LIG    1       -0.008  -0.672  -1.169  0.00  0.00    -0.620 N 
ATOM     14  H   LIG    1        0.694  -0.167  -1.607  0.00  0.00    +0.420 HD
ATOM     15  O   LIG    1       -1.988  -0.667  -0.169  0.00  0.00    -0.550 OA
ENDBRANCH   1  13
BRANCH   2  16
ATOM     16  C   LIG    1        0.183  -2.181  -3.551  0.00  0.00    +0.530 C 
ATOM     17  OXT LIG    1        0.170  -2.872  -4.561  0.00  0.00    -0.660 OA
ATOM     18  O   LIG    1        0.205  -0.961  -3.645  0.00  0.00    -0.640 OA
ENDBRANCH   2  16
TORSDOF 2
ENDMDL
MODEL      242
REMARK  Name = ZINC000019366017
REMARK                            x       y       z     vdW  Elec       q    Type
REMARK                         _______ _______ _______ _____ _____    ______ ____
ROOT
ATOM      1  N   LIG    1       -2.181   1.403   1.605  0.00  0.00    -0.500 NA
ATOM      2  C   LIG    1       -2.740   1.172   0.266  0.00  0.00    +0.180 C 
ATOM      3  C   LIG    1       -4.090   0.462   0.395  0.00  0.00    +0.190 C 
ATOM      4  N   LIG    1       -4.997   1.285   1.207  0.00  0.00    -0.530 NA
ATOM      5  C   LIG    1       -4.438   1.516   2.546  0.00  0.00    +0.170 C 
ATOM      6  C   LIG    1       -3.088   2.226   2.417  0.00  0.00    +0.170 C 
ENDROOT
BRANCH   1   7
ATOM      7  C   LIG    1       -0.848   2.016   1.520  0.00  0.00    -0.310 C 
BRANCH   7   9
ATOM      8  O   LIG    1        0.002  -0.004   0.002  0.00  0.00    -1.050 OA
ATOM      9  S   LIG    1       -0.018   1.450   0.010  0.00  0.00    +2.640 S 
ATOM     10  O   LIG    1       -0.752   1.947  -1.143  0.00  0.00    -1.060 OA
ATOM     11  O   LIG    1        1.341   1.970  -0.000  0.00  0.00    -1.070 OA
ENDBRANCH   7   9
ENDBRANCH   1   7
BRANCH   4  12
ATOM     12  C   LIG    1       -6.330   0.672   1.292  0.00  0.00    +0.180 C 
BRANCH  12  13
ATOM     13  C   LIG    1       -7.308   1.664   1.925  0.00  0.00    +0.160 C 
BRANCH  13  14
ATOM     14  O   LIG    1       -7.465   2.793   1.063  0.00  0.00    -0.560 OA
ATOM     15  H   LIG    1       -8.073   3.465   1.402  0.00  0.00    +0.370 HD
ENDBRANCH  13  14
ENDBRANCH  12  13
ENDBRANCH   4  12
TORSDOF 5
ENDMDL
MODEL      243
REMARK  Name = ZINC000386618438
REMARK                            x       y       z     vdW  Elec       q    Type
REMARK                         _______ _______ _______ _____ _____    ______ ____
ROOT
ATOM      1  C   LIG    1       -3.745   1.973   0.030  0.00  0.00    +0.580 C 
ATOM      2  N   LIG    1       -4.903   1.284   0.032  0.00  0.00    -0.620 N 
ATOM      3  C   LIG    1       -5.085  -0.186   0.032  0.00  0.00    +0.310 C 
ATOM      4  C   LIG    1       -6.269  -0.435   0.990  0.00  0.00    +0.010 C 
ATOM      5  C   LIG    1       -7.221  -1.426   0.357  0.00  0.00    +0.540 C 
ATOM      6  N   LIG    1       -8.361  -0.803   0.036  0.00  0.00    -0.680 N 
ATOM      7  H   LIG    1       -9.108  -1.259  -0.383  0.00  0.00    +0.420 HD
ATOM      8  C   LIG    1       -8.387   0.499   0.340  0.00  0.00    +0.540 C 
ATOM      9  O   LIG    1       -9.319   1.248   0.136  0.00  0.00    -0.470 OA
ATOM     10  O   LIG    1       -6.987  -2.600   0.170  0.00  0.00    -0.470 OA
ATOM     11  C   LIG    1       -7.064   0.899   0.992  0.00  0.00    +0.010 C 
ATOM     12  C   LIG    1       -6.282   1.823   0.042  0.00  0.00    +0.290 C 
ATOM     13  O   LIG    1       -3.762   3.188   0.037  0.00  0.00    -0.540 OA
ENDROOT
BRANCH   1  15
ATOM     14  C   LIG    1       -1.301   1.938   0.019  0.00  0.00    +0.020 C 
ATOM     15  C   LIG    1       -2.455   1.251   0.021  0.00  0.00    -0.080 C 
BRANCH  14  17
ATOM     16  O   LIG    1        0.002  -0.004   0.002  0.00  0.00    -0.680 OA
ATOM     17  C   LIG    1       -0.015   1.219   0.009  0.00  0.00    +0.500 C 
ATOM     18  O   LIG    1        1.036   1.844   0.002  0.00  0.00    -0.680 OA
ENDBRANCH  14  17
ENDBRANCH   1  15
TORSDOF 2
ENDMDL
MODEL      244
REMARK  Name = ZINC000136001994
REMARK                            x       y       z     vdW  Elec       q    Type
REMARK                         _______ _______ _______ _____ _____    ______ ____
ROOT
ATOM      1  C   LIG    1        3.059  -0.968   1.571  0.00  0.00    +0.190 C 
ATOM      2  O   LIG    1        3.345   0.435   1.589  0.00  0.00    -0.330 OA
ATOM      3  C   LIG    1        3.258   0.866   2.861  0.00  0.00    +0.490 C 
ATOM      4  C   LIG    1        2.907  -0.243   3.741  0.00  0.00    -0.310 C 
ATOM      5  O   LIG    1        3.444   2.013   3.224  0.00  0.00    -0.540 OA
ATOM      6  C   LIG    1        2.780  -1.363   3.002  0.00  0.00    +0.260 C 
ATOM      7  O   LIG    1        2.463  -2.596   3.453  0.00  0.00    -0.650 OA
ENDROOT
BRANCH   1  12
ATOM      8  C   LIG    1       -0.019   1.526   0.010  0.00  0.00    +0.040 C 
ATOM      9  C   LIG    1        0.002  -0.004   0.002  0.00  0.00    +0.250 C 
ATOM     10  O   LIG    1        0.687  -0.471  -1.172  0.00  0.00    -0.380 OA
ATOM     11  C   LIG    1        2.048  -0.708  -0.737  0.00  0.00    +0.210 C 
ATOM     12  C   LIG    1        1.831  -1.242   0.701  0.00  0.00    +0.160 C 
ATOM     13  C   LIG    1       -1.432  -0.537   0.003  0.00  0.00    +0.070 C 
ATOM     14  O   LIG    1        0.695  -0.483   1.162  0.00  0.00    -0.360 OA
ENDBRANCH   1  12
BRANCH   4  15
ATOM     15  O   LIG    1        2.737  -0.160   5.091  0.00  0.00    -0.460 OA
ATOM     16  H   LIG    1        2.870   0.727   5.451  0.00  0.00    +0.360 HD
ENDBRANCH   4  15
TORSDOF 2
ENDMDL
MODEL      245
REMARK  Name = ZINC000005382686
REMARK                            x       y       z     vdW  Elec       q    Type
REMARK                         _______ _______ _______ _____ _____    ______ ____
ROOT
ATOM      1  C   LIG    1       -0.567   3.214  -1.655  0.00  0.00    +0.230 C 
ATOM      2  C   LIG    1       -2.022   3.663  -1.413  0.00  0.00    -0.300 C 
ATOM      3  S   LIG    1       -2.259   4.983  -2.670  0.00  0.00    +2.390 S 
ATOM      4  C   LIG    1       -1.207   4.158  -3.932  0.00  0.00    -0.330 C 
ATOM      5  O   LIG    1       -1.635   6.183  -2.232  0.00  0.00    -0.930 OA
ATOM      6  O   LIG    1       -3.611   4.997  -3.105  0.00  0.00    -0.940 OA
ATOM      7  C   LIG    1       -0.109   3.494  -3.082  0.00  0.00    +0.190 C 
ENDROOT
BRANCH   7   8
ATOM      8  O   LIG    1        0.270   2.260  -3.695  0.00  0.00    -0.510 OA
ATOM      9  H   LIG    1        0.637   2.359  -4.584  0.00  0.00    +0.370 HD
ENDBRANCH   7   8
BRANCH   1  10
ATOM     10  O   LIG    1       -0.466   1.811  -1.403  0.00  0.00    -0.680 OA
BRANCH  10  12
ATOM     11  O   LIG    1        0.002  -0.004   0.002  0.00  0.00    -1.010 OA
ATOM     12  S   LIG    1       -0.018   1.467   0.010  0.00  0.00    +1.580 S 
ATOM     13  O   LIG    1        1.411   1.818  -0.002  0.00  0.00    -1.040 OA
ENDBRANCH  10  12
ENDBRANCH   1  10
TORSDOF 3
ENDMDL
MODEL      246
REMARK  Name = ZINC000002457180
REMARK                            x       y       z     vdW  Elec       q    Type
REMARK                         _______ _______ _______ _____ _____    ______ ____
ROOT
ATOM      1  C   LIG    1       -2.462   0.956   0.019  0.00  0.00    +0.510 C 
ATOM      2  N   LIG    1       -3.738   1.388   0.027  0.00  0.00    -0.630 N 
ATOM      3  C   LIG    1       -4.049   2.825   0.030  0.00  0.00    +0.280 C 
ATOM      4  C   LIG    1       -5.049   3.110  -1.095  0.00  0.00    +0.160 C 
ATOM      5  N   LIG    1       -6.211   2.223  -0.949  0.00  0.00    -0.530 NA
ATOM      6  C   LIG    1       -5.826   0.813  -1.092  0.00  0.00    +0.160 C 
ATOM      7  C   LIG    1       -4.858   0.434   0.027  0.00  0.00    +0.280 C 
ATOM      8  O   LIG    1       -2.224  -0.233   0.011  0.00  0.00    -0.490 OA
ENDROOT
BRANCH   1   9
ATOM      9  C   LIG    1       -1.330   1.951   0.019  0.00  0.00    -0.050 C 
BRANCH   9  11
ATOM     10  O   LIG    1        0.002  -0.004   0.002  0.00  0.00    -0.660 OA
ATOM     11  C   LIG    1       -0.015   1.215   0.009  0.00  0.00    +0.490 C 
ATOM     12  O   LIG    1        1.033   1.839   0.002  0.00  0.00    -0.710 OA
ENDBRANCH   9  11
ENDBRANCH   1   9
BRANCH   5  13
ATOM     13  C   LIG    1       -7.269   2.580  -1.904  0.00  0.00    +0.180 C 
BRANCH  13  14
ATOM     14  C   LIG    1       -8.546   1.810  -1.562  0.00  0.00    +0.180 C 
BRANCH  14  15
ATOM     15  O   LIG    1       -9.030   2.234  -0.286  0.00  0.00    -0.560 OA
ATOM     16  H   LIG    1       -9.839   1.786  -0.004  0.00  0.00    +0.370 HD
ENDBRANCH  14  15
ENDBRANCH  13  14
ENDBRANCH   5  13
TORSDOF 5
ENDMDL
MODEL      247
REMARK  Name = ZINC000255187232
REMARK                            x       y       z     vdW  Elec       q    Type
REMARK                         _______ _______ _______ _____ _____    ______ ____
ROOT
ATOM      1  C   LIG    1       -3.814   1.688   0.029  0.00  0.00    +0.210 C 
ATOM      2  N   LIG    1       -4.014   2.374   1.317  0.00  0.00    -0.720 N 
ATOM      3  H   LIG    1       -3.456   3.072   1.695  0.00  0.00    +0.440 HD
ATOM      4  C   LIG    1       -5.121   1.845   1.868  0.00  0.00    +0.700 C 
ATOM      5  N   LIG    1       -5.671   0.897   1.100  0.00  0.00    -0.580 N 
ATOM      6  O   LIG    1       -5.572   2.189   2.943  0.00  0.00    -0.560 OA
ATOM      7  C   LIG    1       -4.972   0.712  -0.042  0.00  0.00    +0.530 C 
ATOM      8  O   LIG    1       -5.219  -0.072  -0.933  0.00  0.00    -0.450 OA
ENDROOT
BRANCH   1   9
ATOM      9  C   LIG    1       -2.479   0.941   0.019  0.00  0.00    +0.070 C 
BRANCH   9  10
ATOM     10  C   LIG    1       -1.330   1.951   0.019  0.00  0.00    -0.060 C 
BRANCH  10  12
ATOM     11  O   LIG    1        0.002  -0.004   0.002  0.00  0.00    -0.700 OA
ATOM     12  C   LIG    1       -0.015   1.215   0.009  0.00  0.00    +0.490 C 
ATOM     13  O   LIG    1        1.033   1.839   0.002  0.00  0.00    -0.700 OA
ENDBRANCH  10  12
ENDBRANCH   9  10
ENDBRANCH   1   9
BRANCH   5  14
ATOM     14  C   LIG    1       -6.883   0.153   1.451  0.00  0.00    +0.330 C 
BRANCH  14  15
ATOM     15  C   LIG    1       -8.110   0.894   0.916  0.00  0.00    +0.170 C 
BRANCH  15  16
ATOM     16  O   LIG    1       -8.073   0.905  -0.513  0.00  0.00    -0.560 OA
ATOM     17  H   LIG    1       -8.823   1.360  -0.922  0.00  0.00    +0.380 HD
ENDBRANCH  15  16
ENDBRANCH  14  15
ENDBRANCH   5  14
TORSDOF 6
ENDMDL
MODEL      248
REMARK  Name = ZINC000004721247
REMARK                            x       y       z     vdW  Elec       q    Type
REMARK                         _______ _______ _______ _____ _____    ______ ____
ROOT
ATOM      1  C   LIG    1        0.652  -0.570  -1.138  0.00  0.00    +0.290 C 
ATOM      2  O   LIG    1       -0.088  -0.248  -2.317  0.00  0.00    -0.340 OA
ATOM      3  C   LIG    1       -1.440  -0.712  -2.303  0.00  0.00    +0.060 C 
ATOM      4  C   LIG    1       -1.452  -2.239  -2.194  0.00  0.00    +0.180 C 
ATOM      5  C   LIG    1       -0.699  -2.659  -0.928  0.00  0.00    +0.200 C 
ATOM      6  C   LIG    1        0.723  -2.091  -0.982  0.00  0.00    +0.130 C 
ENDROOT
BRANCH   3   7
ATOM      7  C   LIG    1       -2.128  -0.293  -3.576  0.00  0.00    +0.510 C 
ATOM      8  O   LIG    1       -3.318  -0.511  -3.726  0.00  0.00    -0.690 OA
ATOM      9  O   LIG    1       -1.495   0.263  -4.457  0.00  0.00    -0.670 OA
ENDBRANCH   3   7
BRANCH   1  11
ATOM     10  C   LIG    1       -0.017   1.425   0.010  0.00  0.00    +0.200 C 
ATOM     11  O   LIG    1        0.002  -0.004   0.002  0.00  0.00    -0.410 OA
ENDBRANCH   1  11
BRANCH   5  12
ATOM     12  O   LIG    1       -0.644  -4.085  -0.855  0.00  0.00    -0.540 OA
ATOM     13  H   LIG    1       -0.180  -4.421  -0.076  0.00  0.00    +0.370 HD
ENDBRANCH   5  12
BRANCH   4  14
ATOM     14  O   LIG    1       -0.815  -2.805  -3.340  0.00  0.00    -0.530 OA
ATOM     15  H   LIG    1       -1.238  -2.576  -4.179  0.00  0.00    +0.370 HD
ENDBRANCH   4  14
BRANCH   6  16
ATOM     16  O   LIG    1        1.420  -2.655  -2.095  0.00  0.00    -0.510 OA
ATOM     17  H   LIG    1        2.329  -2.340  -2.190  0.00  0.00    +0.360 HD
ENDBRANCH   6  16
TORSDOF 5
ENDMDL
MODEL      249
REMARK  Name = ZINC000002562361
REMARK                            x       y       z     vdW  Elec       q    Type
REMARK                         _______ _______ _______ _____ _____    ______ ____
ROOT
ATOM      1  C   LIG    1       -2.811   5.468  -0.081  0.00  0.00    +0.160 C 
ENDROOT
BRANCH   1   2
ATOM      2  O   LIG    1       -2.183   5.861  -1.302  0.00  0.00    -0.540 OA
ATOM      3  H   LIG    1       -2.609   5.508  -2.095  0.00  0.00    +0.370 HD
ENDBRANCH   1   2
BRANCH   1   4
ATOM      4  C   LIG    1       -2.788   3.942   0.037  0.00  0.00    +0.200 C 
BRANCH   4   5
ATOM      5  O   LIG    1       -3.416   3.549   1.259  0.00  0.00    -0.540 OA
ATOM      6  H   LIG    1       -2.989   3.903   2.051  0.00  0.00    +0.370 HD
ENDBRANCH   4   5
BRANCH   4   7
ATOM      7  C   LIG    1       -1.338   3.452   0.027  0.00  0.00    +0.010 C 
BRANCH   7   8
ATOM      8  C   LIG    1       -1.318   1.945   0.019  0.00  0.00    +0.300 C 
ATOM      9  O   LIG    1       -2.356   1.327   0.020  0.00  0.00    -0.440 OA
BRANCH   8  11
ATOM     10  O   LIG    1        0.002  -0.004   0.002  0.00  0.00    -0.660 OA
ATOM     11  C   LIG    1       -0.015   1.216   0.009  0.00  0.00    +0.460 C 
ATOM     12  O   LIG    1        1.034   1.841   0.002  0.00  0.00    -0.670 OA
ENDBRANCH   8  11
ENDBRANCH   7   8
ENDBRANCH   4   7
ENDBRANCH   1   4
BRANCH   1  13
ATOM     13  C   LIG    1       -4.260   5.958  -0.071  0.00  0.00    +0.160 C 
BRANCH  13  14
ATOM     14  O   LIG    1       -4.994   5.296  -1.103  0.00  0.00    -0.540 OA
ATOM     15  H   LIG    1       -4.646   5.449  -1.993  0.00  0.00    +0.370 HD
ENDBRANCH  13  14
BRANCH  13  16
ATOM     16  C   LIG    1       -4.289   7.469  -0.313  0.00  0.00    +0.190 C 
BRANCH  16  17
ATOM     17  O   LIG    1       -3.555   8.131   0.719  0.00  0.00    -0.540 OA
ATOM     18  H   LIG    1       -3.902   7.978   1.608  0.00  0.00    +0.370 HD
ENDBRANCH  16  17
BRANCH  16  19
ATOM     19  C   LIG    1       -5.738   7.959  -0.304  0.00  0.00    +0.150 C 
BRANCH  19  20
ATOM     20  O   LIG    1       -5.774   9.346  -0.645  0.00  0.00    -0.570 OA
ATOM     21  H   LIG    1       -6.664   9.725  -0.658  0.00  0.00    +0.380 HD
ENDBRANCH  19  20
ENDBRANCH  16  19
ENDBRANCH  13  16
ENDBRANCH   1  13
TORSDOF 12
ENDMDL
MODEL      250
REMARK  Name = ZINC000002560841
REMARK                            x       y       z     vdW  Elec       q    Type
REMARK                         _______ _______ _______ _____ _____    ______ ____
ROOT
ATOM      1  CA  SER A  1       -1.136  -2.159   0.001  0.00  0.00    +0.250 C 
ENDROOT
BRANCH   1   4
ATOM      2  C   UNK A  0       -0.018   1.503   0.010  0.00  0.00    +0.100 C 
ATOM      3  C   UNK A  0        0.002  -0.004   0.002  0.00  0.00    +0.510 C 
ATOM      4  N   SER A  1       -1.156  -0.694   0.009  0.00  0.00    -0.700 N 
ATOM      5  H   SER A  1       -2.002  -0.220   0.020  0.00  0.00    +0.410 HD
ATOM      6  O   UNK A  0        1.060  -0.596  -0.011  0.00  0.00    -0.560 OA
ENDBRANCH   1   4
BRANCH   1   7
ATOM      7  C   SER A  1       -2.422  -2.675  -0.590  0.00  0.00    +0.510 C 
ATOM      8  N   GLY A  2       -2.629  -4.003  -0.699  0.00  0.00    -0.690 N 
ATOM      9  H   GLY A  2       -1.949  -4.625  -0.397  0.00  0.00    +0.410 HD
ATOM     10  O   SER A  1       -3.272  -1.896  -0.967  0.00  0.00    -0.550 OA
BRANCH   8  11
ATOM     11  CA  GLY A  2       -3.879  -4.505  -1.273  0.00  0.00    +0.190 C 
BRANCH  11  12
ATOM     12  C   GLY A  2       -3.859  -6.012  -1.282  0.00  0.00    +0.490 C 
ATOM     13  OXT GLY A  2       -4.812  -6.632  -1.722  0.00  0.00    -0.690 OA
ATOM     14  O   GLY A  2       -2.889  -6.611  -0.848  0.00  0.00    -0.690 OA
ENDBRANCH  11  12
ENDBRANCH   8  11
ENDBRANCH   1   7
BRANCH   1  15
ATOM     15  CB  SER A  1       -0.990  -2.675   1.434  0.00  0.00    +0.200 C 
BRANCH  15  16
ATOM     16  OG  SER A  1       -2.148  -2.316   2.190  0.00  0.00    -0.560 OA
ATOM     17  H   SER A  1       -2.124  -2.612   3.111  0.00  0.00    +0.380 HD
ENDBRANCH  15  16
ENDBRANCH   1  15
TORSDOF 6
ENDMDL
MODEL      251
REMARK  Name = ZINC000004530779
REMARK                            x       y       z     vdW  Elec       q    Type
REMARK                         _______ _______ _______ _____ _____    ______ ____
ROOT
ATOM      1  C   LIG    1       -2.479   0.941   0.019  0.00  0.00    +0.210 C 
ATOM      2  O   LIG    1       -2.456   0.192   1.236  0.00  0.00    -0.360 OA
ATOM      3  C   LIG    1       -3.477  -0.802   1.329  0.00  0.00    +0.300 C 
ATOM      4  C   LIG    1       -4.851  -0.129   1.267  0.00  0.00    +0.130 C 
ATOM      5  C   LIG    1       -4.960   0.672  -0.034  0.00  0.00    +0.160 C 
ATOM      6  C   LIG    1       -3.812   1.685  -0.096  0.00  0.00    +0.170 C 
ENDROOT
BRANCH   5   7
ATOM      7  O   LIG    1       -6.211   1.362  -0.068  0.00  0.00    -0.550 OA
ATOM      8  H   LIG    1       -6.982   0.780  -0.026  0.00  0.00    +0.380 HD
ENDBRANCH   5   7
BRANCH   4   9
ATOM      9  O   LIG    1       -5.002   0.750   2.384  0.00  0.00    -0.540 OA
ATOM     10  H   LIG    1       -4.940   0.309   3.242  0.00  0.00    +0.380 HD
ENDBRANCH   4   9
BRANCH   3  11
ATOM     11  O   LIG    1       -3.347  -1.506   2.566  0.00  0.00    -0.550 OA
ATOM     12  H   LIG    1       -2.498  -1.957   2.674  0.00  0.00    +0.400 HD
ENDBRANCH   3  11
BRANCH   6  13
ATOM     13  O   LIG    1       -3.862   2.389  -1.339  0.00  0.00    -0.550 OA
ATOM     14  H   LIG    1       -4.684   2.880  -1.479  0.00  0.00    +0.380 HD
ENDBRANCH   6  13
BRANCH   1  15
ATOM     15  C   LIG    1       -1.330   1.951   0.019  0.00  0.00    -0.020 C 
BRANCH  15  17
ATOM     16  O   LIG    1        0.002  -0.004   0.002  0.00  0.00    -0.690 OA
ATOM     17  C   LIG    1       -0.015   1.215   0.009  0.00  0.00    +0.500 C 
ATOM     18  O   LIG    1        1.033   1.839   0.002  0.00  0.00    -0.710 OA
ENDBRANCH  15  17
ENDBRANCH   1  15
TORSDOF 6
ENDMDL
