MODEL        1
REMARK  Name = ZINC000004771367
REMARK                            x       y       z     vdW  Elec       q    Type
REMARK                         _______ _______ _______ _____ _____    ______ ____
ROOT
ATOM      1  N   LIG    1        0.002  -0.004   0.002  0.00  0.00    -0.300 N 
ATOM      2  C   LIG    1        0.009  -0.825  -1.094  0.00  0.00    +0.250 A 
ATOM      3  N   LIG    1        0.028  -2.063  -0.652  0.00  0.00    -0.270 NA
ATOM      4  N   LIG    1        0.033  -2.070   0.633  0.00  0.00    -0.280 NA
ATOM      5  C   LIG    1        0.024  -0.836   1.089  0.00  0.00    +0.320 A 
ENDROOT
BRANCH   2   6
ATOM      6  C   LIG    1       -0.002  -0.398  -2.511  0.00  0.00    +0.130 A 
ATOM      7  N   LIG    1       -0.015   0.853  -2.964  0.00  0.00    -0.380 NA
ATOM      8  N   LIG    1       -0.021   0.799  -4.252  0.00  0.00    -0.180 NA
ATOM      9  N   LIG    1       -0.012  -0.434  -4.623  0.00  0.00    -0.190 NA
ATOM     10  N   LIG    1        0.004  -1.190  -3.579  0.00  0.00    -0.330 NA
ENDBRANCH   2   6
BRANCH   5  11
ATOM     11  C   LIG    1        0.026  -0.425   2.510  0.00  0.00    +0.130 A 
ATOM     12  N   LIG    1        0.011   0.820   2.977  0.00  0.00    -0.340 NA
ATOM     13  N   LIG    1        0.020   0.753   4.265  0.00  0.00    -0.200 NA
ATOM     14  N   LIG    1        0.039  -0.484   4.622  0.00  0.00    -0.200 NA
ATOM     15  N   LIG    1        0.039  -1.229   3.570  0.00  0.00    -0.340 NA
ENDBRANCH   5  11
BRANCH   1  16
ATOM     16  N   LIG    1       -0.016   1.362   0.009  0.00  0.00    -0.560 N 
ATOM     17  H   LIG    1       -0.555   1.720  -0.765  0.00  0.00    +0.380 HD
ATOM     18  H   LIG    1        0.920   1.736   0.003  0.00  0.00    +0.350 HD
ENDBRANCH   1  16
TORSDOF 3
ENDMDL
MODEL        2
REMARK  Name = ZINC000001642213
REMARK                            x       y       z     vdW  Elec       q    Type
REMARK                         _______ _______ _______ _____ _____    ______ ____
ROOT
ATOM      1  C   LIG    1       -1.169   2.100  -0.095  0.00  0.00    -0.200 C 
ATOM      2  C   LIG    1       -2.003   1.871   1.167  0.00  0.00    -0.050 C 
ATOM      3  C   LIG    1       -1.490   3.273   0.834  0.00  0.00    -0.210 C 
ENDROOT
BRANCH   1   5
ATOM      4  O   LIG    1        0.465   0.408  -0.338  0.00  0.00    -0.760 OA
ATOM      5  C   LIG    1        0.246   1.583  -0.098  0.00  0.00    +0.530 C 
ATOM      6  O   LIG    1        1.173   2.340   0.136  0.00  0.00    -0.660 OA
ENDBRANCH   1   5
BRANCH   1   7
ATOM      7  C   LIG    1       -1.883   2.046  -1.421  0.00  0.00    +0.590 C 
ATOM      8  O   LIG    1       -1.420   2.628  -2.387  0.00  0.00    -0.730 OA
ATOM      9  O   LIG    1       -2.925   1.421  -1.527  0.00  0.00    -0.740 OA
ENDBRANCH   1   7
BRANCH   3  10
ATOM     10  C   LIG    1       -2.498   4.286   0.353  0.00  0.00    +0.540 C 
ATOM     11  O   LIG    1       -3.230   4.019  -0.585  0.00  0.00    -0.690 OA
ATOM     12  O   LIG    1       -2.580   5.372   0.901  0.00  0.00    -0.740 OA
ENDBRANCH   3  10
BRANCH   3  13
ATOM     13  C   LIG    1       -0.367   3.822   1.675  0.00  0.00    +0.560 C 
ATOM     14  O   LIG    1        0.630   4.275   1.141  0.00  0.00    -0.670 OA
ATOM     15  O   LIG    1       -0.457   3.813   2.891  0.00  0.00    -0.770 OA
ENDBRANCH   3  13
TORSDOF 4
ENDMDL
MODEL        3
REMARK  Name = ZINC000066339601
REMARK                            x       y       z     vdW  Elec       q    Type
REMARK                         _______ _______ _______ _____ _____    ______ ____
ROOT
ATOM      1  N   LIG    1       -1.103  -0.589   0.135  0.00  0.00    -0.510 N 
ENDROOT
BRANCH   1   5
ATOM      2  N   LIG    1       -0.050   1.498   0.181  0.00  0.00    -0.790 N 
ATOM      3  H   LIG    1       -0.912   1.926   0.297  0.00  0.00    +0.440 HD
ATOM      4  H   LIG    1        0.750   2.038   0.085  0.00  0.00    +0.410 HD
ATOM      5  C   LIG    1        0.036   0.169   0.149  0.00  0.00    +0.710 C 
BRANCH   5   6
ATOM      6  N   LIG    1        1.229  -0.421   0.131  0.00  0.00    -0.810 N 
ATOM      7  H   LIG    1        1.292  -1.389   0.108  0.00  0.00    +0.430 HD
ATOM      8  H   LIG    1        2.037   0.116   0.141  0.00  0.00    +0.410 HD
ENDBRANCH   5   6
ENDBRANCH   1   5
BRANCH   1   9
ATOM      9  C   LIG    1       -2.292  -0.139   0.862  0.00  0.00    -0.330 C 
BRANCH   9  10
ATOM     10  P   LIG    1       -3.420   0.716  -0.288  0.00  0.00    +2.170 P 
ATOM     11  O   LIG    1       -4.622   1.321   0.512  0.00  0.00    -1.160 OA
ATOM     12  O   LIG    1       -3.958  -0.306  -1.347  0.00  0.00    -1.150 OA
ATOM     13  O   LIG    1       -2.647   1.866  -1.019  0.00  0.00    -1.150 OA
ENDBRANCH   9  10
ENDBRANCH   1   9
BRANCH   1  14
ATOM     14  C   LIG    1       -1.133  -1.852  -0.607  0.00  0.00    +0.240 C 
BRANCH  14  15
ATOM     15  C   LIG    1       -0.697  -2.976   0.297  0.00  0.00    +0.480 C 
ATOM     16  O   LIG    1       -0.651  -4.118  -0.129  0.00  0.00    -0.690 OA
ATOM     17  O   LIG    1       -0.390  -2.744   1.454  0.00  0.00    -0.690 OA
ENDBRANCH  14  15
ENDBRANCH   1  14
TORSDOF 6
ENDMDL
MODEL        4
REMARK  Name = ZINC000005502659
REMARK                            x       y       z     vdW  Elec       q    Type
REMARK                         _______ _______ _______ _____ _____    ______ ____
ROOT
ATOM      1  C   LIG    1       -0.018   1.461   0.010  0.00  0.00    +0.260 C 
ATOM      2  N   LIG    1        0.002  -0.004   0.002  0.00  0.00    -0.610 N 
ATOM      3  C   LIG    1       -1.244  -0.787   0.004  0.00  0.00    +0.290 C 
ATOM      4  CA  LIG    1       -1.070  -1.982   0.906  0.00  0.00    -0.050 C 
ATOM      5  N   LIG    1        0.106  -2.510   1.112  0.00  0.00    -0.330 NA
ATOM      6  C   LIG    1        1.214  -1.990   0.581  0.00  0.00    -0.260 A 
ATOM      7  C   LIG    1        2.450  -2.690   0.607  0.00  0.00    +0.550 A 
ATOM      8  O   LIG    1        2.537  -3.787   1.130  0.00  0.00    -0.590 OA
ATOM      9  N   LIG    1        3.528  -2.103   0.043  0.00  0.00    -0.720 NA
ATOM     10  C   LIG    1        3.427  -0.873  -0.531  0.00  0.00    +0.600 A 
ATOM     11  N   LIG    1        2.291  -0.200  -0.551  0.00  0.00    -0.690 NA
ATOM     12  C   LIG    1        1.187  -0.704  -0.013  0.00  0.00    +0.440 A 
ENDROOT
BRANCH  10  13
ATOM     13  N   LIG    1        4.535  -0.317  -1.103  0.00  0.00    -0.830 N 
ATOM     14  H   LIG    1        5.377  -0.798  -1.097  0.00  0.00    +0.400 HD
ATOM     15  H   LIG    1        4.480   0.559  -1.516  0.00  0.00    +0.390 HD
ENDBRANCH  10  13
BRANCH   4  16
ATOM     16  C   LIG    1       -2.203  -2.543   1.541  0.00  0.00    +0.540 C 
ATOM     17  OXT LIG    1       -3.313  -2.057   1.356  0.00  0.00    -0.730 OA
ATOM     18  O   LIG    1       -2.075  -3.514   2.277  0.00  0.00    -0.690 OA
ENDBRANCH   4  16
TORSDOF 2
ENDMDL
MODEL        5
REMARK  Name = ZINC000072220996
REMARK                            x       y       z     vdW  Elec       q    Type
REMARK                         _______ _______ _______ _____ _____    ______ ____
ROOT
ATOM      1  C   LIG    1       -1.291   1.935   0.019  0.00  0.00    -0.410 A 
ATOM      2  C   LIG    1       -2.503   1.236   0.026  0.00  0.00    +0.310 A 
ATOM      3  N   LIG    1       -3.645   1.904   0.035  0.00  0.00    -0.680 NA
ATOM      4  C   LIG    1       -3.675   3.226   0.037  0.00  0.00    +0.570 A 
ATOM      5  N   LIG    1       -2.536   3.967   0.030  0.00  0.00    -0.710 NA
ATOM      6  C   LIG    1       -1.331   3.357   0.027  0.00  0.00    +0.520 A 
ATOM      7  O   LIG    1       -0.302   4.009   0.021  0.00  0.00    -0.590 OA
ENDROOT
BRANCH   4   8
ATOM      8  N   LIG    1       -4.881   3.863   0.046  0.00  0.00    -0.600 N 
ATOM      9  C   LIG    1       -4.971   5.333   0.043  0.00  0.00    +0.300 C 
ATOM     10  C   LIG    1       -5.705   5.763  -1.229  0.00  0.00    +0.250 C 
ATOM     11  N   LIG    1       -6.904   4.962  -1.430  0.00  0.00    -0.720 N 
ATOM     12  H   LIG    1       -7.605   5.331  -1.989  0.00  0.00    +0.390 HD
ATOM     13  C   LIG    1       -7.106   3.755  -0.898  0.00  0.00    +0.520 C 
ATOM     14  O   LIG    1       -8.113   3.150  -1.202  0.00  0.00    -0.570 OA
ATOM     15  C   LIG    1       -6.144   3.110   0.054  0.00  0.00    +0.340 C 
ENDBRANCH   4   8
BRANCH   1  17
ATOM     16  O   LIG    1        0.002  -0.004   0.002  0.00  0.00    -0.740 OA
ATOM     17  C   LIG    1       -0.015   1.220   0.009  0.00  0.00    +0.540 C 
ATOM     18  O   LIG    1        1.038   1.847   0.002  0.00  0.00    -0.690 OA
ENDBRANCH   1  17
TORSDOF 2
ENDMDL
MODEL        6
REMARK  Name = ZINC000604971565
REMARK                            x       y       z     vdW  Elec       q    Type
REMARK                         _______ _______ _______ _____ _____    ______ ____
ROOT
ATOM      1  C   LIG    1        0.002  -0.004   0.002  0.00  0.00    +0.550 A 
ATOM      2  N   LIG    1       -1.142  -0.660   0.004  0.00  0.00    -0.660 NA
ATOM      3  C   LIG    1       -1.191  -1.991  -0.004  0.00  0.00    +0.520 A 
ATOM      4  C   LIG    1        0.007  -2.726  -0.014  0.00  0.00    -0.170 A 
ATOM      5  N   LIG    1        0.320  -4.042  -0.023  0.00  0.00    -0.520 NA
ATOM      6  C   LIG    1        1.635  -4.149  -0.030  0.00  0.00    +0.390 A 
ATOM      7  N   LIG    1        2.191  -2.939  -0.026  0.00  0.00    -0.560 NA
ATOM      8  C   LIG    1        1.230  -2.026  -0.016  0.00  0.00    +0.270 A 
ATOM      9  N   LIG    1        1.198  -0.647  -0.013  0.00  0.00    -0.590 NA
ENDROOT
BRANCH   1  10
ATOM     10  N   LIG    1       -0.017   1.365   0.009  0.00  0.00    -0.840 N 
ATOM     11  H   LIG    1       -0.863   1.838   0.016  0.00  0.00    +0.400 HD
ATOM     12  H   LIG    1        0.817   1.861   0.004  0.00  0.00    +0.400 HD
ENDBRANCH   1  10
BRANCH   3  13
ATOM     13  N   LIG    1       -2.403  -2.640  -0.002  0.00  0.00    -0.840 N 
ATOM     14  H   LIG    1       -2.433  -3.610  -0.007  0.00  0.00    +0.420 HD
ATOM     15  H   LIG    1       -3.227  -2.129   0.005  0.00  0.00    +0.390 HD
ENDBRANCH   3  13
BRANCH   6  16
ATOM     16  O   LIG    1        2.321  -5.321  -0.041  0.00  0.00    -0.690 OA
BRANCH  16  17
ATOM     17  S   LIG    1        1.434  -6.558  -0.044  0.00  0.00    +2.780 S 
ATOM     18  O   LIG    1        0.890  -6.680  -1.388  0.00  0.00    -1.090 OA
ATOM     19  O   LIG    1        0.395  -6.331   0.947  0.00  0.00    -1.060 OA
ATOM     20  O   LIG    1        2.285  -7.685   0.305  0.00  0.00    -1.090 OA
ENDBRANCH  16  17
ENDBRANCH   6  16
TORSDOF 4
ENDMDL
MODEL        7
REMARK  Name = ZINC000075615445
REMARK                            x       y       z     vdW  Elec       q    Type
REMARK                         _______ _______ _______ _____ _____    ______ ____
ROOT
ATOM      1  C   LIG    1       -0.018   1.461   0.010  0.00  0.00    +0.280 C 
ATOM      2  N   LIG    1        0.002  -0.004   0.002  0.00  0.00    -0.950 N 
ATOM      3  C   LIG    1       -1.068  -0.811   0.003  0.00  0.00    +0.500 C 
ATOM      4  C   LIG    1       -0.751  -2.272  -0.008  0.00  0.00    +0.190 C 
ATOM      5  N   LIG    1        0.700  -2.503  -0.016  0.00  0.00    -0.960 NA
ATOM      6  O   LIG    1       -2.205  -0.390   0.010  0.00  0.00    -0.540 OA
ATOM      7  S   LIG    1        1.358  -0.970  -0.017  0.00  0.00    +2.540 S 
ATOM      8  O   LIG    1        2.008  -0.792   1.234  0.00  0.00    -1.040 OA
ATOM      9  O   LIG    1        1.994  -0.787  -1.274  0.00  0.00    -1.040 OA
ENDROOT
BRANCH   4  10
ATOM     10  C   LIG    1       -1.365  -2.909  -1.256  0.00  0.00    -0.060 C 
BRANCH  10  11
ATOM     11  C   LIG    1       -1.155  -4.401  -1.212  0.00  0.00    +0.510 C 
ATOM     12  O   LIG    1       -1.572  -5.102  -2.119  0.00  0.00    -0.740 OA
ATOM     13  O   LIG    1       -0.569  -4.907  -0.271  0.00  0.00    -0.670 OA
ENDBRANCH  10  11
ENDBRANCH   4  10
TORSDOF 2
ENDMDL
MODEL        8
REMARK  Name = ZINC000075615441
REMARK                            x       y       z     vdW  Elec       q    Type
REMARK                         _______ _______ _______ _____ _____    ______ ____
ROOT
ATOM      1  C   LIG    1       -0.018   1.461   0.010  0.00  0.00    +0.290 C 
ATOM      2  N   LIG    1        0.002  -0.004   0.002  0.00  0.00    -0.950 N 
ATOM      3  C   LIG    1       -1.068  -0.811   0.003  0.00  0.00    +0.500 C 
ATOM      4  C   LIG    1       -0.751  -2.272  -0.008  0.00  0.00    +0.190 C 
ATOM      5  N   LIG    1        0.700  -2.503  -0.016  0.00  0.00    -0.960 NA
ATOM      6  O   LIG    1       -2.205  -0.390   0.010  0.00  0.00    -0.540 OA
ATOM      7  S   LIG    1        1.358  -0.970  -0.017  0.00  0.00    +2.540 S 
ATOM      8  O   LIG    1        2.008  -0.792   1.234  0.00  0.00    -1.040 OA
ATOM      9  O   LIG    1        1.994  -0.787  -1.274  0.00  0.00    -1.040 OA
ENDROOT
BRANCH   4  10
ATOM     10  C   LIG    1       -1.353  -2.924   1.238  0.00  0.00    -0.070 C 
BRANCH  10  11
ATOM     11  C   LIG    1       -1.144  -4.415   1.175  0.00  0.00    +0.510 C 
ATOM     12  O   LIG    1       -1.552  -5.127   2.078  0.00  0.00    -0.740 OA
ATOM     13  O   LIG    1       -0.567  -4.910   0.222  0.00  0.00    -0.670 OA
ENDBRANCH  10  11
ENDBRANCH   4  10
TORSDOF 2
ENDMDL
MODEL        9
REMARK  Name = ZINC000002561006
REMARK                            x       y       z     vdW  Elec       q    Type
REMARK                         _______ _______ _______ _____ _____    ______ ____
ROOT
ATOM      1  CA  ASP A  2       -2.961  -2.460   0.048  0.00  0.00    +0.270 C 
ENDROOT
BRANCH   1   3
ATOM      2  C   GLY A  1       -1.026  -1.368   1.049  0.00  0.00    +0.520 C 
ATOM      3  N   ASP A  2       -1.575  -1.987  -0.014  0.00  0.00    -0.680 N 
ATOM      4  H   ASP A  2       -1.053  -2.120  -0.821  0.00  0.00    +0.400 HD
ATOM      5  O   GLY A  1       -1.704  -1.122   2.025  0.00  0.00    -0.540 OA
BRANCH   2   6
ATOM      6  CA  GLY A  1        0.430  -0.980   1.027  0.00  0.00    +0.200 C 
BRANCH   6   7
ATOM      7  N   GLY A  1        0.782  -0.325   2.293  0.00  0.00    -0.830 NA
ATOM      8  H1  GLY A  1        0.184   0.469   2.468  0.00  0.00    +0.350 HD
ATOM      9  H2  GLY A  1        1.754  -0.055   2.303  0.00  0.00    +0.340 HD
ENDBRANCH   6   7
ENDBRANCH   2   6
ENDBRANCH   1   3
BRANCH   1  10
ATOM     10  C   ASP A  2       -3.007  -3.790   0.754  0.00  0.00    +0.500 C 
ATOM     11  N   GLY A  3       -4.185  -4.420   0.929  0.00  0.00    -0.700 N 
ATOM     12  H   GLY A  3       -5.004  -4.017   0.601  0.00  0.00    +0.410 HD
ATOM     13  O   ASP A  2       -1.983  -4.294   1.165  0.00  0.00    -0.560 OA
BRANCH  11  14
ATOM     14  CA  GLY A  3       -4.230  -5.713   1.616  0.00  0.00    +0.170 C 
BRANCH  14  15
ATOM     15  C   GLY A  3       -5.655  -6.199   1.680  0.00  0.00    +0.490 C 
ATOM     16  OXT GLY A  3       -5.912  -7.264   2.215  0.00  0.00    -0.700 OA
ATOM     17  O   GLY A  3       -6.550  -5.527   1.197  0.00  0.00    -0.690 OA
ENDBRANCH  14  15
ENDBRANCH  11  14
ENDBRANCH   1  10
BRANCH   1  18
ATOM     18  CB  ASP A  2       -3.510  -2.616  -1.371  0.00  0.00    -0.040 C 
BRANCH  18  19
ATOM     19  CG  ASP A  2       -3.594  -1.264  -2.030  0.00  0.00    +0.500 C 
ATOM     20  OD2 ASP A  2       -3.912  -1.176  -3.204  0.00  0.00    -0.710 OA
ATOM     21  OD1 ASP A  2       -3.342  -0.257  -1.390  0.00  0.00    -0.690 OA
ENDBRANCH  18  19
ENDBRANCH   1  18
TORSDOF 8
ENDMDL
MODEL       10
REMARK  Name = ZINC000001698485
REMARK                            x       y       z     vdW  Elec       q    Type
REMARK                         _______ _______ _______ _____ _____    ______ ____
ROOT
ATOM      1  C   LIG    1       -0.018   1.461   0.010  0.00  0.00    +0.290 C 
ATOM      2  N   LIG    1        0.002  -0.004   0.002  0.00  0.00    -0.580 N 
ATOM      3  C   LIG    1        0.005  -0.665  -1.177  0.00  0.00    +0.560 A 
ATOM      4  C   LIG    1        0.025  -2.131  -1.147  0.00  0.00    -0.500 A 
ATOM      5  C   LIG    1        0.040  -2.778   0.092  0.00  0.00    +0.320 A 
ATOM      6  N   LIG    1        0.035  -2.015   1.233  0.00  0.00    -0.520 N 
ATOM      7  C   LIG    1        0.050  -2.673   2.541  0.00  0.00    +0.320 C 
ATOM      8  N   LIG    1        0.058  -4.123   0.150  0.00  0.00    -0.400 NA
ATOM      9  N   LIG    1        0.063  -4.904  -1.009  0.00  0.00    -0.430 NA
ATOM     10  C   LIG    1        0.050  -4.368  -2.199  0.00  0.00    +0.300 A 
ATOM     11  O   LIG    1        0.055  -5.156  -3.305  0.00  0.00    -0.740 OA
ATOM     12  C   LIG    1        0.030  -2.904  -2.332  0.00  0.00    +0.370 A 
ATOM     13  O   LIG    1        0.017  -2.371  -3.431  0.00  0.00    -0.550 OA
ATOM     14  O   LIG    1       -0.007  -0.061  -2.233  0.00  0.00    -0.540 OA
ATOM     15  C   LIG    1        0.022  -0.674   1.166  0.00  0.00    +0.710 A 
ATOM     16  O   LIG    1        0.018  -0.039   2.203  0.00  0.00    -0.610 OA
ENDROOT
TORSDOF 0
ENDMDL
MODEL       11
REMARK  Name = ZINC000002522588
REMARK                            x       y       z     vdW  Elec       q    Type
REMARK                         _______ _______ _______ _____ _____    ______ ____
ROOT
ATOM      1  C   SER A  1        0.731  -0.503   1.223  0.00  0.00    +0.520 C 
ATOM      2  N   ASP A  2        0.541  -1.767   1.651  0.00  0.00    -0.660 N 
ATOM      3  H   ASP A  2       -0.064  -2.355   1.173  0.00  0.00    +0.390 HD
ATOM      4  O   SER A  1        1.488   0.232   1.820  0.00  0.00    -0.550 OA
ENDROOT
BRANCH   1   5
ATOM      5  CA  SER A  1        0.002  -0.004   0.002  0.00  0.00    +0.180 C 
BRANCH   5   6
ATOM      6  N   SER A  1       -0.018   1.465   0.010  0.00  0.00    -0.820 NA
ATOM      7  H1  SER A  1       -0.556   1.823  -0.764  0.00  0.00    +0.340 HD
ATOM      8  H2  SER A  1        0.919   1.839   0.003  0.00  0.00    +0.340 HD
ENDBRANCH   5   6
BRANCH   5   9
ATOM      9  CB  SER A  1        0.718  -0.497  -1.257  0.00  0.00    +0.160 C 
BRANCH   9  10
ATOM     10  OG  SER A  1       -0.036  -0.123  -2.412  0.00  0.00    -0.580 OA
ATOM     11  H   SER A  1        0.360  -0.404  -3.248  0.00  0.00    +0.370 HD
ENDBRANCH   9  10
ENDBRANCH   5   9
ENDBRANCH   1   5
BRANCH   2  12
ATOM     12  CA  ASP A  2        1.250  -2.252   2.838  0.00  0.00    +0.190 C 
BRANCH  12  13
ATOM     13  C   ASP A  2        2.617  -2.746   2.440  0.00  0.00    +0.490 C 
ATOM     14  OXT ASP A  2        2.797  -3.213   1.328  0.00  0.00    -0.710 OA
ATOM     15  O   ASP A  2        3.543  -2.678   3.230  0.00  0.00    -0.710 OA
ENDBRANCH  12  13
BRANCH  12  16
ATOM     16  CB  ASP A  2        0.458  -3.398   3.471  0.00  0.00    -0.050 C 
BRANCH  16  17
ATOM     17  CG  ASP A  2       -0.861  -2.877   3.980  0.00  0.00    +0.490 C 
ATOM     18  OD2 ASP A  2       -1.647  -3.634   4.524  0.00  0.00    -0.720 OA
ATOM     19  OD1 ASP A  2       -1.142  -1.698   3.848  0.00  0.00    -0.690 OA
ENDBRANCH  16  17
ENDBRANCH  12  16
ENDBRANCH   2  12
TORSDOF 8
ENDMDL
MODEL       12
REMARK  Name = ZINC000004715263
REMARK                            x       y       z     vdW  Elec       q    Type
REMARK                         _______ _______ _______ _____ _____    ______ ____
ROOT
ATOM      1  C   LIG    1        0.009  -0.038  -0.307  0.00  0.00    +0.600 A 
ATOM      2  N   LIG    1       -1.121  -0.713  -0.321  0.00  0.00    -0.720 NA
ATOM      3  C   LIG    1       -1.153  -2.018  -0.026  0.00  0.00    +0.530 A 
ATOM      4  C   LIG    1        0.023  -2.678   0.300  0.00  0.00    -0.990 A 
ATOM      5  C   LIG    1        1.220  -1.954   0.313  0.00  0.00    +0.570 A 
ATOM      6  O   LIG    1        2.274  -2.502   0.596  0.00  0.00    -0.600 OA
ATOM      7  N   LIG    1        1.190  -0.641   0.002  0.00  0.00    -0.730 NA
ENDROOT
BRANCH   4   8
ATOM      8  S   LIG    1        0.009  -4.396   0.692  0.00  0.00    +2.740 S 
ATOM      9  O   LIG    1        0.291  -5.110  -0.544  0.00  0.00    -1.100 OA
ATOM     10  O   LIG    1       -1.318  -4.698   1.206  0.00  0.00    -1.110 OA
ATOM     11  O   LIG    1        1.044  -4.607   1.692  0.00  0.00    -1.080 OA
ENDBRANCH   4   8
BRANCH   1  12
ATOM     12  N   LIG    1       -0.002   1.296  -0.615  0.00  0.00    -0.840 N 
ATOM     13  H   LIG    1       -0.837   1.735  -0.840  0.00  0.00    +0.390 HD
ATOM     14  H   LIG    1        0.826   1.801  -0.611  0.00  0.00    +0.400 HD
ENDBRANCH   1  12
BRANCH   3  15
ATOM     15  N   LIG    1       -2.350  -2.704  -0.048  0.00  0.00    -0.850 N 
ATOM     16  H   LIG    1       -2.353  -3.672  -0.110  0.00  0.00    +0.410 HD
ATOM     17  H   LIG    1       -3.188  -2.218  -0.001  0.00  0.00    +0.380 HD
ENDBRANCH   3  15
TORSDOF 3
ENDMDL
MODEL       13
REMARK  Name = ZINC000006523773
REMARK                            x       y       z     vdW  Elec       q    Type
REMARK                         _______ _______ _______ _____ _____    ______ ____
ROOT
ATOM      1  C   LIG    1       -0.018   1.461   0.010  0.00  0.00    +0.290 C 
ATOM      2  N   LIG    1        0.002  -0.004   0.002  0.00  0.00    -0.390 N 
ATOM      3  C   LIG    1        0.009  -0.807  -1.104  0.00  0.00    +0.410 A 
ATOM      4  N   LIG    1        0.028  -2.059  -0.740  0.00  0.00    -0.540 NA
ATOM      5  C   LIG    1        0.034  -2.136   0.612  0.00  0.00    +0.450 A 
ATOM      6  N   LIG    1        0.053  -3.163   1.450  0.00  0.00    -0.770 NA
ATOM      7  C   LIG    1        0.059  -3.149   2.773  0.00  0.00    +0.670 C 
ATOM      8  N   LIG    1        0.046  -2.009   3.505  0.00  0.00    -1.020 NA
ATOM      9  S   LIG    1        0.022  -0.587   2.621  0.00  0.00    +2.600 S 
ATOM     10  O   LIG    1        1.208   0.207   2.978  0.00  0.00    -1.070 OA
ATOM     11  O   LIG    1       -1.180   0.175   2.993  0.00  0.00    -1.070 OA
ATOM     12  O   LIG    1        0.076  -4.215   3.363  0.00  0.00    -0.640 OA
ATOM     13  C   LIG    1        0.023  -0.801   1.075  0.00  0.00    -0.920 A 
ENDROOT
TORSDOF 0
ENDMDL
MODEL       14
REMARK  Name = ZINC000019366734
REMARK                            x       y       z     vdW  Elec       q    Type
REMARK                         _______ _______ _______ _____ _____    ______ ____
ROOT
ATOM      1  C   LIG    1        0.002  -0.004   0.002  0.00  0.00    +0.080 C 
ENDROOT
BRANCH   1   2
ATOM      2  N   LIG    1       -0.018   1.465   0.010  0.00  0.00    -0.770 NA
ATOM      3  H   LIG    1       -0.556   1.823  -0.764  0.00  0.00    +0.280 HD
ATOM      4  H   LIG    1        0.919   1.839   0.003  0.00  0.00    +0.340 HD
ENDBRANCH   1   2
BRANCH   1   5
ATOM      5  C   LIG    1        0.814  -0.502   1.170  0.00  0.00    +0.550 C 
ATOM      6  O   LIG    1        0.956  -1.700   1.347  0.00  0.00    -0.720 OA
ATOM      7  O   LIG    1        1.328   0.293   1.938  0.00  0.00    -0.660 OA
ENDBRANCH   1   5
BRANCH   1   8
ATOM      8  CA  LIG    1        0.630  -0.498  -1.303  0.00  0.00    +0.050 C 
BRANCH   8   9
ATOM      9  N   LIG    1       -0.161  -0.013  -2.441  0.00  0.00    -0.610 N 
ATOM     10  H1  LIG    1        0.253  -0.339  -3.302  0.00  0.00    +0.410 HD
ATOM     11  H2  LIG    1       -0.175   0.996  -2.436  0.00  0.00    +0.420 HD
ATOM     12  H3  LIG    1       -1.105  -0.363  -2.369  0.00  0.00    +0.410 HD
ENDBRANCH   8   9
BRANCH   8  13
ATOM     13  C   LIG    1        2.039   0.024  -1.411  0.00  0.00    +0.500 C 
ATOM     14  OXT LIG    1        2.312   0.875  -2.240  0.00  0.00    -0.710 OA
ATOM     15  O   LIG    1        2.907  -0.405  -0.670  0.00  0.00    -0.610 OA
ENDBRANCH   8  13
ENDBRANCH   1   8
BRANCH   1  16
ATOM     16  C   LIG    1       -1.429  -0.534   0.112  0.00  0.00    -0.080 C 
BRANCH  16  17
ATOM     17  C   LIG    1       -2.089   0.051   1.334  0.00  0.00    +0.490 C 
ATOM     18  O   LIG    1       -3.240  -0.245   1.607  0.00  0.00    -0.740 OA
ATOM     19  O   LIG    1       -1.472   0.821   2.051  0.00  0.00    -0.630 OA
ENDBRANCH  16  17
ENDBRANCH   1  16
TORSDOF 7
ENDMDL
MODEL       15
REMARK  Name = ZINC000019366731
REMARK                            x       y       z     vdW  Elec       q    Type
REMARK                         _______ _______ _______ _____ _____    ______ ____
ROOT
ATOM      1  C   LIG    1        0.002  -0.004   0.002  0.00  0.00    +0.070 C 
ENDROOT
BRANCH   1   2
ATOM      2  N   LIG    1       -0.018   1.465   0.010  0.00  0.00    -0.760 NA
ATOM      3  H   LIG    1       -0.556   1.823  -0.764  0.00  0.00    +0.300 HD
ATOM      4  H   LIG    1        0.919   1.839   0.003  0.00  0.00    +0.340 HD
ENDBRANCH   1   2
BRANCH   1   5
ATOM      5  C   LIG    1        0.814  -0.502   1.170  0.00  0.00    +0.540 C 
ATOM      6  O   LIG    1        0.956  -1.700   1.347  0.00  0.00    -0.730 OA
ATOM      7  O   LIG    1        1.328   0.293   1.938  0.00  0.00    -0.640 OA
ENDBRANCH   1   5
BRANCH   1   8
ATOM      8  CA  LIG    1        0.630  -0.498  -1.303  0.00  0.00    +0.030 C 
BRANCH   8   9
ATOM      9  N   LIG    1        0.650  -1.967  -1.311  0.00  0.00    -0.600 N 
ATOM     10  H1  LIG    1       -0.294  -2.317  -1.238  0.00  0.00    +0.400 HD
ATOM     11  H2  LIG    1        1.193  -2.301  -0.529  0.00  0.00    +0.440 HD
ATOM     12  H3  LIG    1        1.064  -2.293  -2.171  0.00  0.00    +0.400 HD
ENDBRANCH   8   9
BRANCH   8  13
ATOM     13  C   LIG    1        2.039   0.024  -1.411  0.00  0.00    +0.500 C 
ATOM     14  OXT LIG    1        2.253   1.095  -1.953  0.00  0.00    -0.670 OA
ATOM     15  O   LIG    1        2.966  -0.625  -0.958  0.00  0.00    -0.660 OA
ENDBRANCH   8  13
ENDBRANCH   1   8
BRANCH   1  16
ATOM     16  C   LIG    1       -1.429  -0.534   0.112  0.00  0.00    -0.080 C 
BRANCH  16  17
ATOM     17  C   LIG    1       -2.089   0.051   1.334  0.00  0.00    +0.490 C 
ATOM     18  O   LIG    1       -3.240  -0.245   1.607  0.00  0.00    -0.740 OA
ATOM     19  O   LIG    1       -1.472   0.821   2.051  0.00  0.00    -0.630 OA
ENDBRANCH  16  17
ENDBRANCH   1  16
TORSDOF 7
ENDMDL
MODEL       16
REMARK  Name = ZINC000019366729
REMARK                            x       y       z     vdW  Elec       q    Type
REMARK                         _______ _______ _______ _____ _____    ______ ____
ROOT
ATOM      1  C   LIG    1        0.002  -0.004   0.002  0.00  0.00    +0.070 C 
ENDROOT
BRANCH   1   2
ATOM      2  N   LIG    1       -0.018   1.465   0.010  0.00  0.00    -0.800 NA
ATOM      3  H   LIG    1       -0.556   1.823  -0.764  0.00  0.00    +0.280 HD
ATOM      4  H   LIG    1        0.919   1.839   0.003  0.00  0.00    +0.370 HD
ENDBRANCH   1   2
BRANCH   1   5
ATOM      5  C   LIG    1        0.814  -0.502   1.170  0.00  0.00    +0.550 C 
ATOM      6  O   LIG    1        0.956  -1.700   1.347  0.00  0.00    -0.720 OA
ATOM      7  O   LIG    1        1.328   0.293   1.938  0.00  0.00    -0.660 OA
ENDBRANCH   1   5
BRANCH   1   8
ATOM      8  CA  LIG    1       -1.429  -0.534   0.112  0.00  0.00    +0.090 C 
BRANCH   8   9
ATOM      9  N   LIG    1       -2.187  -0.149  -1.085  0.00  0.00    -0.610 N 
ATOM     10  H1  LIG    1       -1.746  -0.541  -1.904  0.00  0.00    +0.410 HD
ATOM     11  H2  LIG    1       -2.206   0.857  -1.163  0.00  0.00    +0.420 HD
ATOM     12  H3  LIG    1       -3.131  -0.499  -1.013  0.00  0.00    +0.410 HD
ENDBRANCH   8   9
BRANCH   8  13
ATOM     13  C   LIG    1       -2.089   0.051   1.334  0.00  0.00    +0.520 C 
ATOM     14  OXT LIG    1       -2.010  -0.526   2.405  0.00  0.00    -0.640 OA
ATOM     15  O   LIG    1       -2.701   1.102   1.252  0.00  0.00    -0.690 OA
ENDBRANCH   8  13
ENDBRANCH   1   8
BRANCH   1  16
ATOM     16  C   LIG    1        0.630  -0.498  -1.303  0.00  0.00    -0.120 C 
BRANCH  16  17
ATOM     17  C   LIG    1        2.039   0.024  -1.411  0.00  0.00    +0.490 C 
ATOM     18  O   LIG    1        2.720  -0.256  -2.383  0.00  0.00    -0.730 OA
ATOM     19  O   LIG    1        2.499   0.726  -0.527  0.00  0.00    -0.650 OA
ENDBRANCH  16  17
ENDBRANCH   1  16
TORSDOF 7
ENDMDL
MODEL       17
REMARK  Name = ZINC000019366732
REMARK                            x       y       z     vdW  Elec       q    Type
REMARK                         _______ _______ _______ _____ _____    ______ ____
ROOT
ATOM      1  C   LIG    1        0.002  -0.004   0.002  0.00  0.00    +0.070 C 
ENDROOT
BRANCH   1   2
ATOM      2  N   LIG    1       -0.018   1.465   0.010  0.00  0.00    -0.790 NA
ATOM      3  H   LIG    1       -0.556   1.823  -0.764  0.00  0.00    +0.300 HD
ATOM      4  H   LIG    1        0.919   1.839   0.003  0.00  0.00    +0.370 HD
ENDBRANCH   1   2
BRANCH   1   5
ATOM      5  C   LIG    1        0.814  -0.502   1.170  0.00  0.00    +0.530 C 
ATOM      6  O   LIG    1        0.956  -1.700   1.347  0.00  0.00    -0.740 OA
ATOM      7  O   LIG    1        1.328   0.293   1.938  0.00  0.00    -0.630 OA
ENDBRANCH   1   5
BRANCH   1   8
ATOM      8  CA  LIG    1       -1.429  -0.534   0.112  0.00  0.00    +0.070 C 
BRANCH   8   9
ATOM      9  N   LIG    1       -1.401  -1.999   0.225  0.00  0.00    -0.600 N 
ATOM     10  H1  LIG    1       -2.345  -2.348   0.297  0.00  0.00    +0.400 HD
ATOM     11  H2  LIG    1       -0.880  -2.263   1.047  0.00  0.00    +0.440 HD
ATOM     12  H3  LIG    1       -0.960  -2.390  -0.593  0.00  0.00    +0.400 HD
ENDBRANCH   8   9
BRANCH   8  13
ATOM     13  C   LIG    1       -2.089   0.051   1.334  0.00  0.00    +0.510 C 
ATOM     14  OXT LIG    1       -2.333  -0.659   2.295  0.00  0.00    -0.700 OA
ATOM     15  O   LIG    1       -2.378   1.235   1.363  0.00  0.00    -0.630 OA
ENDBRANCH   8  13
ENDBRANCH   1   8
BRANCH   1  16
ATOM     16  C   LIG    1        0.630  -0.498  -1.303  0.00  0.00    -0.120 C 
BRANCH  16  17
ATOM     17  C   LIG    1        2.039   0.024  -1.411  0.00  0.00    +0.490 C 
ATOM     18  O   LIG    1        2.720  -0.256  -2.383  0.00  0.00    -0.730 OA
ATOM     19  O   LIG    1        2.499   0.726  -0.527  0.00  0.00    -0.650 OA
ENDBRANCH  16  17
ENDBRANCH   1  16
TORSDOF 7
ENDMDL
