MODEL        1
REMARK  Name = ZINC000001580039
REMARK                            x       y       z     vdW  Elec       q    Type
REMARK                         _______ _______ _______ _____ _____    ______ ____
ROOT
ATOM      1  C   THR A  1        0.739  -2.004  -1.265  0.00  0.00    +0.530 C 
ATOM      2  N   GLY A  2       -0.353  -2.691  -1.658  0.00  0.00    -0.710 N 
ATOM      3  H   GLY A  2       -1.151  -2.215  -1.935  0.00  0.00    +0.410 HD
ATOM      4  O   THR A  1        1.737  -2.599  -0.918  0.00  0.00    -0.530 OA
ENDROOT
BRANCH   1   5
ATOM      5  CA  THR A  1        0.718  -0.497  -1.257  0.00  0.00    +0.150 C 
BRANCH   5   6
ATOM      6  N   THR A  1        2.096   0.011  -1.267  0.00  0.00    -0.820 NA
ATOM      7  H1  THR A  1        2.606  -0.310  -0.458  0.00  0.00    +0.350 HD
ATOM      8  H2  THR A  1        2.110   1.018  -1.327  0.00  0.00    +0.350 HD
ENDBRANCH   5   6
BRANCH   5  10
ATOM      9  CG2 THR A  1       -0.019   1.526   0.010  0.00  0.00    +0.010 C 
ATOM     10  CB  THR A  1        0.002  -0.004   0.002  0.00  0.00    +0.180 C 
BRANCH  10  11
ATOM     11  OG1 THR A  1        0.693  -0.477   1.160  0.00  0.00    -0.550 OA
ATOM     12  HG1 THR A  1        1.611  -0.180   1.219  0.00  0.00    +0.370 HD
ENDBRANCH  10  11
ENDBRANCH   5  10
ENDBRANCH   1   5
BRANCH   2  13
ATOM     13  CA  GLY A  2       -0.333  -4.156  -1.666  0.00  0.00    +0.300 C 
BRANCH  13  14
ATOM     14  C   GLY A  2       -1.666  -4.674  -2.142  0.00  0.00    +0.500 C 
ATOM     15  N   GLY A  3       -1.880  -6.001  -2.231  0.00  0.00    -0.690 N 
ATOM     16  H   GLY A  3       -1.176  -6.623  -1.989  0.00  0.00    +0.410 HD
ATOM     17  O   GLY A  2       -2.545  -3.896  -2.444  0.00  0.00    -0.560 OA
BRANCH  15  18
ATOM     18  CA  GLY A  3       -3.175  -6.505  -2.694  0.00  0.00    +0.190 C 
BRANCH  18  19
ATOM     19  C   GLY A  3       -3.155  -8.011  -2.702  0.00  0.00    +0.490 C 
ATOM     20  OXT GLY A  3       -4.142  -8.633  -3.057  0.00  0.00    -0.690 OA
ATOM     21  O   GLY A  3       -2.151  -8.610  -2.354  0.00  0.00    -0.690 OA
ENDBRANCH  18  19
ENDBRANCH  15  18
ENDBRANCH  13  14
ENDBRANCH   2  13
TORSDOF 8
ENDMDL
MODEL        2
REMARK  Name = ZINC000001580037
REMARK                            x       y       z     vdW  Elec       q    Type
REMARK                         _______ _______ _______ _____ _____    ______ ____
ROOT
ATOM      1  C   THR A  1        0.739  -2.004  -1.265  0.00  0.00    +0.490 C 
ATOM      2  N   GLY A  2        1.649  -2.670  -0.527  0.00  0.00    -0.700 N 
ATOM      3  H   GLY A  2        2.291  -2.179   0.009  0.00  0.00    +0.410 HD
ATOM      4  O   THR A  1       -0.064  -2.618  -1.936  0.00  0.00    -0.550 OA
ENDROOT
BRANCH   1   5
ATOM      5  CA  THR A  1        0.718  -0.497  -1.257  0.00  0.00    +0.150 C 
BRANCH   5   6
ATOM      6  N   THR A  1        0.008  -0.011  -2.447  0.00  0.00    -0.810 NA
ATOM      7  H1  THR A  1       -0.943  -0.347  -2.463  0.00  0.00    +0.350 HD
ATOM      8  H2  THR A  1        0.497  -0.269  -3.291  0.00  0.00    +0.350 HD
ENDBRANCH   5   6
BRANCH   5  10
ATOM      9  CG2 THR A  1       -0.019   1.526   0.010  0.00  0.00    +0.030 C 
ATOM     10  CB  THR A  1        0.002  -0.004   0.002  0.00  0.00    +0.210 C 
BRANCH  10  11
ATOM     11  OG1 THR A  1        0.693  -0.477   1.160  0.00  0.00    -0.550 OA
ATOM     12  HG1 THR A  1        1.611  -0.180   1.219  0.00  0.00    +0.380 HD
ENDBRANCH  10  11
ENDBRANCH   5  10
ENDBRANCH   1   5
BRANCH   2  13
ATOM     13  CA  GLY A  2        1.669  -4.135  -0.535  0.00  0.00    +0.300 C 
BRANCH  13  14
ATOM     14  C   GLY A  2        2.773  -4.627   0.365  0.00  0.00    +0.500 C 
ATOM     15  N   GLY A  3        2.981  -5.950   0.514  0.00  0.00    -0.690 N 
ATOM     16  H   GLY A  3        2.420  -6.586   0.042  0.00  0.00    +0.410 HD
ATOM     17  O   GLY A  2        3.474  -3.833   0.955  0.00  0.00    -0.560 OA
BRANCH  15  18
ATOM     18  CA  GLY A  3        4.054  -6.429   1.389  0.00  0.00    +0.190 C 
BRANCH  18  19
ATOM     19  C   GLY A  3        4.074  -7.936   1.381  0.00  0.00    +0.490 C 
ATOM     20  OXT GLY A  3        4.898  -8.538   2.049  0.00  0.00    -0.690 OA
ATOM     21  O   GLY A  3        3.267  -8.553   0.707  0.00  0.00    -0.690 OA
ENDBRANCH  18  19
ENDBRANCH  15  18
ENDBRANCH  13  14
ENDBRANCH   2  13
TORSDOF 8
ENDMDL
MODEL        3
REMARK  Name = ZINC000001752135
REMARK                            x       y       z     vdW  Elec       q    Type
REMARK                         _______ _______ _______ _____ _____    ______ ____
ROOT
ATOM      1  C   LIG    1       -0.019   1.526   0.010  0.00  0.00    +0.090 C 
ATOM      2  C   LIG    1        0.002  -0.004   0.002  0.00  0.00    -0.160 C 
ATOM      3  C   LIG    1        0.568  -0.461  -1.329  0.00  0.00    +0.520 C 
ATOM      4  N   LIG    1        1.671  -1.239  -1.304  0.00  0.00    -0.630 NA
ATOM      5  C   LIG    1        2.255  -1.603  -0.157  0.00  0.00    +0.550 C 
ATOM      6  N   LIG    1        1.830  -1.250   1.061  0.00  0.00    -0.660 N 
ATOM      7  H   LIG    1        2.319  -1.562   1.839  0.00  0.00    +0.420 HD
ATOM      8  S   LIG    1        3.649  -2.592  -0.256  0.00  0.00    -0.700 S 
ATOM      9  O   LIG    1        0.049  -0.139  -2.377  0.00  0.00    -0.500 OA
ATOM     10  C   LIG    1        0.741  -0.473   1.241  0.00  0.00    +0.540 C 
ATOM     11  O   LIG    1        0.367  -0.162   2.352  0.00  0.00    -0.510 OA
ENDROOT
BRANCH   2  12
ATOM     12  C   LIG    1       -1.443  -0.497   0.095  0.00  0.00    +0.080 C 
BRANCH  12  13
ATOM     13  C   LIG    1       -1.462  -2.027   0.089  0.00  0.00    +0.160 C 
BRANCH  13  14
ATOM     14  O   LIG    1       -2.812  -2.487   0.176  0.00  0.00    -0.570 OA
ATOM     15  H   LIG    1       -2.900  -3.450   0.177  0.00  0.00    +0.380 HD
ENDBRANCH  13  14
ENDBRANCH  12  13
ENDBRANCH   2  12
TORSDOF 3
ENDMDL
MODEL        4
REMARK  Name = ZINC000409418944
REMARK                            x       y       z     vdW  Elec       q    Type
REMARK                         _______ _______ _______ _____ _____    ______ ____
ROOT
ATOM      1  C   LIG    1       -1.198  -0.636   0.010  0.00  0.00    +0.170 A 
ATOM      2  C   LIG    1       -2.340   0.106   0.019  0.00  0.00    -0.060 A 
ATOM      3  C   LIG    1       -3.600  -0.537   0.027  0.00  0.00    +0.200 A 
ATOM      4  N   LIG    1       -4.828  -0.050   0.037  0.00  0.00    -0.480 NA
ATOM      5  CA  LIG    1       -5.783  -1.162   0.042  0.00  0.00    +0.110 C 
ATOM      6  C   LIG    1       -4.953  -2.425   0.034  0.00  0.00    +0.250 C 
ATOM      7  C   LIG    1       -3.632  -2.009   0.025  0.00  0.00    -0.290 A 
ATOM      8  C   LIG    1       -2.408  -2.722   0.016  0.00  0.00    +0.030 A 
ATOM      9  C   LIG    1       -1.232  -2.043   0.003  0.00  0.00    +0.040 A 
ENDROOT
BRANCH   6  10
ATOM     10  N   LIG    1       -5.406  -3.699   0.035  0.00  0.00    -0.800 N 
ATOM     11  H   LIG    1       -4.777  -4.437   0.029  0.00  0.00    +0.400 HD
ATOM     12  H   LIG    1       -6.360  -3.874   0.042  0.00  0.00    +0.420 HD
ENDBRANCH   6  10
BRANCH   5  13
ATOM     13  C   LIG    1       -6.654  -1.103  -1.187  0.00  0.00    +0.530 C 
ATOM     14  OXT LIG    1       -7.613  -1.849  -1.290  0.00  0.00    -0.690 OA
ATOM     15  O   LIG    1       -6.399  -0.311  -2.077  0.00  0.00    -0.650 OA
ENDBRANCH   5  13
BRANCH   1  17
ATOM     16  C   LIG    1       -0.017   1.425   0.010  0.00  0.00    +0.240 C 
ATOM     17  O   LIG    1        0.002  -0.004   0.002  0.00  0.00    -0.310 OA
ENDBRANCH   1  17
BRANCH   9  18
ATOM     18  O   LIG    1       -0.062  -2.737  -0.006  0.00  0.00    -0.310 OA
ATOM     19  C   LIG    1       -0.154  -4.163  -0.002  0.00  0.00    +0.220 C 
ENDBRANCH   9  18
TORSDOF 4
ENDMDL
MODEL        5
REMARK  Name = ZINC000004545918
REMARK                            x       y       z     vdW  Elec       q    Type
REMARK                         _______ _______ _______ _____ _____    ______ ____
ROOT
ATOM      1  CA  PRO A  2        2.736  -1.073  -2.455  0.00  0.00    +0.220 C 
ATOM      2  CB  PRO A  2        2.472  -0.101  -3.624  0.00  0.00    +0.060 C 
ATOM      3  CG  PRO A  2        3.735   0.800  -3.620  0.00  0.00    +0.040 C 
ATOM      4  CD  PRO A  2        4.836  -0.210  -3.211  0.00  0.00    +0.250 C 
ATOM      5  N   PRO A  2        4.188  -1.101  -2.226  0.00  0.00    -0.610 N 
ATOM      6  C   GLY A  1        4.824  -1.814  -1.275  0.00  0.00    +0.530 C 
ATOM      7  O   GLY A  1        4.188  -2.515  -0.516  0.00  0.00    -0.500 OA
ENDROOT
BRANCH   1  10
ATOM      8  N   ALA A  3        0.688  -0.476  -1.203  0.00  0.00    -0.700 N 
ATOM      9  H   ALA A  3        0.175  -0.710  -1.993  0.00  0.00    +0.400 HD
ATOM     10  C   PRO A  2        2.031  -0.587  -1.215  0.00  0.00    +0.500 C 
ATOM     11  O   PRO A  2        2.672  -0.295  -0.228  0.00  0.00    -0.530 OA
BRANCH   8  13
ATOM     12  CB  ALA A  3       -0.019   1.526   0.010  0.00  0.00    +0.020 C 
ATOM     13  CA  ALA A  3        0.002  -0.004   0.002  0.00  0.00    +0.150 C 
BRANCH  13  14
ATOM     14  C   ALA A  3       -1.412  -0.526   0.013  0.00  0.00    +0.500 C 
ATOM     15  OXT ALA A  3       -1.974  -0.742   1.073  0.00  0.00    -0.690 OA
ATOM     16  O   ALA A  3       -1.994  -0.731  -1.039  0.00  0.00    -0.690 OA
ENDBRANCH  13  14
ENDBRANCH   8  13
ENDBRANCH   1  10
BRANCH   6  17
ATOM     17  CA  GLY A  1        6.324  -1.742  -1.155  0.00  0.00    +0.210 C 
BRANCH  17  18
ATOM     18  N   GLY A  1        6.769  -2.604  -0.052  0.00  0.00    -0.830 NA
ATOM     19  H1  GLY A  1        7.772  -2.572   0.049  0.00  0.00    +0.350 HD
ATOM     20  H2  GLY A  1        6.448  -3.551  -0.181  0.00  0.00    +0.350 HD
ENDBRANCH  17  18
ENDBRANCH   6  17
TORSDOF 5
ENDMDL
MODEL        6
REMARK  Name = ZINC000004545919
REMARK                            x       y       z     vdW  Elec       q    Type
REMARK                         _______ _______ _______ _____ _____    ______ ____
ROOT
ATOM      1  CA  PRO A  2       -3.442  -1.177   1.191  0.00  0.00    +0.220 C 
ATOM      2  CB  PRO A  2       -3.479  -2.606   0.610  0.00  0.00    +0.060 C 
ATOM      3  CG  PRO A  2       -3.457  -3.498   1.880  0.00  0.00    +0.040 C 
ATOM      4  CD  PRO A  2       -4.299  -2.653   2.868  0.00  0.00    +0.250 C 
ATOM      5  N   PRO A  2       -3.938  -1.251   2.574  0.00  0.00    -0.610 N 
ATOM      6  C   GLY A  1       -4.041  -0.217   3.431  0.00  0.00    +0.530 C 
ATOM      7  O   GLY A  1       -3.713   0.897   3.080  0.00  0.00    -0.510 OA
ENDROOT
BRANCH   1  10
ATOM      8  N   ALA A  3       -1.372  -0.511   0.012  0.00  0.00    -0.700 N 
ATOM      9  H   ALA A  3       -1.810  -0.743  -0.822  0.00  0.00    +0.400 HD
ATOM     10  C   PRO A  2       -2.029  -0.655   1.181  0.00  0.00    +0.500 C 
ATOM     11  O   PRO A  2       -1.481  -0.365   2.224  0.00  0.00    -0.540 OA
BRANCH   8  13
ATOM     12  CB  ALA A  3       -0.019   1.526   0.010  0.00  0.00    +0.020 C 
ATOM     13  CA  ALA A  3        0.002  -0.004   0.002  0.00  0.00    +0.150 C 
BRANCH  13  14
ATOM     14  C   ALA A  3        0.707  -0.490  -1.238  0.00  0.00    +0.500 C 
ATOM     15  OXT ALA A  3        0.074  -1.038  -2.124  0.00  0.00    -0.690 OA
ATOM     16  O   ALA A  3        1.911  -0.336  -1.354  0.00  0.00    -0.690 OA
ENDBRANCH  13  14
ENDBRANCH   8  13
ENDBRANCH   1  10
BRANCH   6  17
ATOM     17  CA  GLY A  1       -4.565  -0.444   4.826  0.00  0.00    +0.200 C 
BRANCH  17  18
ATOM     18  N   GLY A  1       -4.581   0.831   5.556  0.00  0.00    -0.830 NA
ATOM     19  H1  GLY A  1       -4.928   0.705   6.495  0.00  0.00    +0.350 HD
ATOM     20  H2  GLY A  1       -5.120   1.525   5.061  0.00  0.00    +0.350 HD
ENDBRANCH  17  18
ENDBRANCH   6  17
TORSDOF 5
ENDMDL
MODEL        7
REMARK  Name = ZINC000004771367
REMARK                            x       y       z     vdW  Elec       q    Type
REMARK                         _______ _______ _______ _____ _____    ______ ____
ROOT
ATOM      1  N   LIG    1        0.002  -0.004   0.002  0.00  0.00    -0.290 N 
ATOM      2  C   LIG    1        0.009  -0.824  -1.094  0.00  0.00    +0.310 A 
ATOM      3  N   LIG    1        0.028  -2.063  -0.652  0.00  0.00    -0.260 NA
ATOM      4  N   LIG    1        0.033  -2.070   0.633  0.00  0.00    -0.230 NA
ATOM      5  C   LIG    1        0.024  -0.837   1.089  0.00  0.00    +0.250 A 
ENDROOT
BRANCH   5   6
ATOM      6  C   LIG    1        0.026  -0.425   2.510  0.00  0.00    +0.270 A 
ATOM      7  N   LIG    1        0.043  -1.222   3.562  0.00  0.00    -0.260 NA
ATOM      8  N   LIG    1        0.039  -0.482   4.617  0.00  0.00    -0.230 N 
ATOM      9  H   LIG    1        0.049  -0.808   5.531  0.00  0.00    +0.480 HD
ATOM     10  N   LIG    1        0.020   0.757   4.269  0.00  0.00    -0.050 NA
ATOM     11  N   LIG    1        0.017   0.831   2.982  0.00  0.00    -0.230 NA
ENDBRANCH   5   6
BRANCH   2  12
ATOM     12  C   LIG    1       -0.003  -0.398  -2.511  0.00  0.00    +0.100 A 
ATOM     13  N   LIG    1       -0.016   0.853  -2.964  0.00  0.00    -0.370 NA
ATOM     14  N   LIG    1       -0.022   0.799  -4.252  0.00  0.00    -0.170 NA
ATOM     15  N   LIG    1       -0.013  -0.433  -4.623  0.00  0.00    -0.170 NA
ATOM     16  N   LIG    1        0.004  -1.189  -3.579  0.00  0.00    -0.320 NA
ENDBRANCH   2  12
BRANCH   1  17
ATOM     17  N   LIG    1       -0.016   1.362   0.009  0.00  0.00    -0.570 N 
ATOM     18  H   LIG    1       -0.555   1.720  -0.765  0.00  0.00    +0.390 HD
ATOM     19  H   LIG    1        0.920   1.736   0.003  0.00  0.00    +0.360 HD
ENDBRANCH   1  17
TORSDOF 3
ENDMDL
MODEL        8
REMARK  Name = ZINC000005012314
REMARK                            x       y       z     vdW  Elec       q    Type
REMARK                         _______ _______ _______ _____ _____    ______ ____
ROOT
ATOM      1  C   LIG    1        0.659  -2.081  -1.122  0.00  0.00    +0.180 A 
ATOM      2  C   LIG    1        1.272  -2.669  -2.186  0.00  0.00    -0.170 A 
ATOM      3  C   LIG    1        1.337  -4.075  -2.274  0.00  0.00    +0.280 A 
ATOM      4  C   LIG    1        0.763  -4.835  -1.254  0.00  0.00    -0.350 A 
ATOM      5  C   LIG    1        0.787  -6.303  -1.270  0.00  0.00    +0.570 A 
ATOM      6  N   LIG    1        0.202  -6.947  -0.232  0.00  0.00    -0.690 N 
ATOM      7  H   LIG    1        0.198  -7.916  -0.207  0.00  0.00    +0.400 HD
ATOM      8  C   LIG    1       -0.373  -6.252   0.763  0.00  0.00    +0.670 A 
ATOM      9  N   LIG    1       -0.408  -4.925   0.799  0.00  0.00    -0.640 NA
ATOM     10  O   LIG    1       -0.889  -6.870   1.678  0.00  0.00    -0.590 OA
ATOM     11  O   LIG    1        1.313  -6.918  -2.179  0.00  0.00    -0.530 OA
ATOM     12  C   LIG    1        0.133  -4.186  -0.163  0.00  0.00    +0.460 A 
ATOM     13  N   LIG    1        0.100  -2.824  -0.120  0.00  0.00    -0.500 NA
ENDROOT
BRANCH   1  14
ATOM     14  C   LIG    1        0.600  -0.602  -1.046  0.00  0.00    +0.530 C 
ATOM     15  O   LIG    1        1.092   0.071  -1.929  0.00  0.00    -0.510 OA
BRANCH  14  17
ATOM     16  C   LIG    1       -0.018   1.448   0.010  0.00  0.00    +0.250 C 
ATOM     17  O   LIG    1        0.002  -0.004   0.002  0.00  0.00    -0.330 OA
ENDBRANCH  14  17
ENDBRANCH   1  14
BRANCH   3  18
ATOM     18  O   LIG    1        1.942  -4.673  -3.323  0.00  0.00    -0.440 OA
ATOM     19  H   LIG    1        2.306  -4.055  -3.972  0.00  0.00    +0.390 HD
ENDBRANCH   3  18
TORSDOF 3
ENDMDL
MODEL        9
REMARK  Name = ZINC000002568071
REMARK                            x       y       z     vdW  Elec       q    Type
REMARK                         _______ _______ _______ _____ _____    ______ ____
ROOT
ATOM      1  N   VAL A  2        2.125  -0.091  -1.209  0.00  0.00    -0.700 N 
ATOM      2  H   VAL A  2        2.389   0.682  -0.686  0.00  0.00    +0.390 HD
ATOM      3  C   THR A  1        3.052  -0.791  -1.893  0.00  0.00    +0.530 C 
ATOM      4  O   THR A  1        2.722  -1.757  -2.547  0.00  0.00    -0.530 OA
ENDROOT
BRANCH   1   5
ATOM      5  CA  VAL A  2        0.718  -0.497  -1.257  0.00  0.00    +0.160 C 
BRANCH   5   7
ATOM      6  CG1 VAL A  2       -0.019   1.526   0.010  0.00  0.00    +0.020 C 
ATOM      7  CB  VAL A  2        0.002  -0.004   0.002  0.00  0.00    -0.020 C 
ATOM      8  CG2 VAL A  2       -1.433  -0.534   0.013  0.00  0.00    +0.030 C 
ENDBRANCH   5   7
BRANCH   5   9
ATOM      9  C   VAL A  2        0.063   0.101  -2.475  0.00  0.00    +0.500 C 
ATOM     10  OXT VAL A  2       -1.055  -0.257  -2.804  0.00  0.00    -0.700 OA
ATOM     11  O   VAL A  2        0.651   0.944  -3.131  0.00  0.00    -0.690 OA
ENDBRANCH   5   9
ENDBRANCH   1   5
BRANCH   3  12
ATOM     12  CA  THR A  1        4.499  -0.373  -1.844  0.00  0.00    +0.180 C 
BRANCH  12  13
ATOM     13  N   THR A  1        5.349  -1.504  -2.237  0.00  0.00    -0.820 NA
ATOM     14  H1  THR A  1        6.327  -1.270  -2.151  0.00  0.00    +0.340 HD
ATOM     15  H2  THR A  1        5.132  -1.811  -3.174  0.00  0.00    +0.360 HD
ENDBRANCH  12  13
BRANCH  12  16
ATOM     16  CB  THR A  1        4.725   0.794  -2.807  0.00  0.00    +0.130 C 
ATOM     17  CG2 THR A  1        6.216   1.137  -2.851  0.00  0.00    +0.000 C 
BRANCH  16  18
ATOM     18  OG1 THR A  1        4.283   0.425  -4.115  0.00  0.00    -0.550 OA
ATOM     19  HG1 THR A  1        4.396   1.119  -4.779  0.00  0.00    +0.380 HD
ENDBRANCH  16  18
ENDBRANCH  12  16
ENDBRANCH   3  12
TORSDOF 7
ENDMDL
MODEL       10
REMARK  Name = ZINC000005762781
REMARK                            x       y       z     vdW  Elec       q    Type
REMARK                         _______ _______ _______ _____ _____    ______ ____
ROOT
ATOM      1  C   LIG    1        0.847  -0.424  -1.486  0.00  0.00    -0.460 A 
ATOM      2  C   LIG    1        0.273  -0.623  -2.720  0.00  0.00    -0.330 A 
ATOM      3  C   LIG    1        1.320  -0.941  -3.629  0.00  0.00    +0.250 A 
ATOM      4  N   LIG    1        0.988  -1.188  -4.960  0.00  0.00    -0.620 N 
ATOM      5  H   LIG    1        1.686  -1.407  -5.597  0.00  0.00    +0.420 HD
ATOM      6  C   LIG    1       -0.291  -1.127  -5.369  0.00  0.00    +0.720 A 
ATOM      7  N   LIG    1       -1.308  -0.831  -4.546  0.00  0.00    -0.670 N 
ATOM      8  H   LIG    1       -2.211  -0.802  -4.899  0.00  0.00    +0.420 HD
ATOM      9  O   LIG    1       -0.537  -1.350  -6.539  0.00  0.00    -0.580 OA
ATOM     10  N   LIG    1        2.442  -0.928  -2.961  0.00  0.00    -0.360 NA
ATOM     11  C   LIG    1       -1.103  -0.573  -3.237  0.00  0.00    +0.570 A 
ATOM     12  O   LIG    1       -2.034  -0.307  -2.502  0.00  0.00    -0.500 OA
ATOM     13  N   LIG    1        2.171  -0.603  -1.625  0.00  0.00    -0.260 NA
ENDROOT
BRANCH   1  15
ATOM     14  C   LIG    1       -0.022   1.810   0.012  0.00  0.00    -0.270 C 
ATOM     15  S   LIG    1        0.002  -0.004   0.002  0.00  0.00    +2.530 S 
ATOM     16  O   LIG    1       -1.309  -0.519  -0.182  0.00  0.00    -0.910 OA
ATOM     17  O   LIG    1        0.845  -0.497   1.035  0.00  0.00    -0.950 OA
ENDBRANCH   1  15
TORSDOF 1
ENDMDL
MODEL       11
REMARK  Name = ZINC000005762781
REMARK                            x       y       z     vdW  Elec       q    Type
REMARK                         _______ _______ _______ _____ _____    ______ ____
ROOT
ATOM      1  C   LIG    1        0.847  -0.424  -1.486  0.00  0.00    -0.450 A 
ATOM      2  N   LIG    1        0.296  -0.611  -2.654  0.00  0.00    -0.240 NA
ATOM      3  N   LIG    1        1.290  -0.928  -3.588  0.00  0.00    -0.380 NA
ATOM      4  C   LIG    1        2.479  -0.932  -2.961  0.00  0.00    +0.250 A 
ATOM      5  N   LIG    1        3.775  -1.171  -3.363  0.00  0.00    -0.610 N 
ATOM      6  H   LIG    1        3.955  -1.395  -4.290  0.00  0.00    +0.420 HD
ATOM      7  C   LIG    1        4.792  -1.105  -2.487  0.00  0.00    +0.720 A 
ATOM      8  O   LIG    1        5.920  -1.327  -2.882  0.00  0.00    -0.580 OA
ATOM      9  N   LIG    1        4.610  -0.800  -1.192  0.00  0.00    -0.670 N 
ATOM     10  H   LIG    1        5.376  -0.761  -0.597  0.00  0.00    +0.420 HD
ATOM     11  C   LIG    1        3.376  -0.546  -0.705  0.00  0.00    +0.570 A 
ATOM     12  O   LIG    1        3.214  -0.270   0.469  0.00  0.00    -0.500 OA
ATOM     13  C   LIG    1        2.236  -0.611  -1.625  0.00  0.00    -0.340 A 
ENDROOT
BRANCH   1  15
ATOM     14  C   LIG    1       -0.022   1.810   0.012  0.00  0.00    -0.270 C 
ATOM     15  S   LIG    1        0.002  -0.004   0.002  0.00  0.00    +2.530 S 
ATOM     16  O   LIG    1       -1.309  -0.519  -0.182  0.00  0.00    -0.950 OA
ATOM     17  O   LIG    1        0.845  -0.497   1.035  0.00  0.00    -0.910 OA
ENDBRANCH   1  15
TORSDOF 1
ENDMDL
MODEL       12
REMARK  Name = ZINC000005411565
REMARK                            x       y       z     vdW  Elec       q    Type
REMARK                         _______ _______ _______ _____ _____    ______ ____
ROOT
ATOM      1  C   LIG    1       -1.433  -0.534   0.013  0.00  0.00    +0.180 C 
ATOM      2  O   LIG    1       -2.031  -0.238   1.290  0.00  0.00    -0.330 OA
ATOM      3  C   LIG    1       -1.369  -0.918   2.322  0.00  0.00    +0.270 C 
ATOM      4  N   LIG    1       -1.717  -0.764   3.715  0.00  0.00    -0.590 NA
ATOM      5  C   LIG    1       -1.618  -1.995   4.286  0.00  0.00    +0.430 C 
ATOM      6  O   LIG    1       -1.200  -2.941   3.396  0.00  0.00    -0.320 OA
ATOM      7  S   LIG    1       -1.976  -2.319   5.928  0.00  0.00    -0.720 S 
ATOM      8  C   LIG    1       -1.624  -2.439   2.118  0.00  0.00    +0.100 C 
ATOM      9  C   LIG    1       -0.824  -2.813   0.884  0.00  0.00    +0.200 C 
ATOM     10  C   LIG    1       -1.411  -2.031  -0.278  0.00  0.00    +0.130 C 
ENDROOT
BRANCH   9  11
ATOM     11  O   LIG    1       -0.936  -4.215   0.631  0.00  0.00    -0.550 OA
ATOM     12  H   LIG    1       -0.445  -4.514  -0.146  0.00  0.00    +0.380 HD
ENDBRANCH   9  11
BRANCH  10  13
ATOM     13  O   LIG    1       -0.621  -2.266  -1.445  0.00  0.00    -0.560 OA
ATOM     14  H   LIG    1       -0.933  -1.800  -2.232  0.00  0.00    +0.390 HD
ENDBRANCH  10  13
BRANCH   1  15
ATOM     15  C   LIG    1        0.002  -0.004   0.002  0.00  0.00    +0.150 C 
BRANCH  15  16
ATOM     16  O   LIG    1       -0.012   1.413   0.184  0.00  0.00    -0.560 OA
ATOM     17  H   LIG    1        0.867   1.818   0.187  0.00  0.00    +0.380 HD
ENDBRANCH  15  16
ENDBRANCH   1  15
TORSDOF 4
ENDMDL
MODEL       13
REMARK  Name = ZINC000005411555
REMARK                            x       y       z     vdW  Elec       q    Type
REMARK                         _______ _______ _______ _____ _____    ______ ____
ROOT
ATOM      1  C   LIG    1       -1.433  -0.534   0.013  0.00  0.00    +0.180 C 
ATOM      2  O   LIG    1       -2.031  -0.238   1.290  0.00  0.00    -0.330 OA
ATOM      3  C   LIG    1       -1.369  -0.918   2.322  0.00  0.00    +0.260 C 
ATOM      4  N   LIG    1       -1.717  -0.764   3.715  0.00  0.00    -0.590 NA
ATOM      5  C   LIG    1       -1.618  -1.995   4.286  0.00  0.00    +0.430 C 
ATOM      6  O   LIG    1       -1.200  -2.941   3.396  0.00  0.00    -0.330 OA
ATOM      7  S   LIG    1       -1.976  -2.319   5.928  0.00  0.00    -0.720 S 
ATOM      8  C   LIG    1       -1.624  -2.439   2.118  0.00  0.00    +0.110 C 
ATOM      9  C   LIG    1       -0.824  -2.813   0.884  0.00  0.00    +0.210 C 
ATOM     10  C   LIG    1       -1.411  -2.031  -0.278  0.00  0.00    +0.140 C 
ENDROOT
BRANCH   9  11
ATOM     11  O   LIG    1       -0.936  -4.215   0.631  0.00  0.00    -0.540 OA
ATOM     12  H   LIG    1       -0.445  -4.514  -0.146  0.00  0.00    +0.370 HD
ENDBRANCH   9  11
BRANCH  10  13
ATOM     13  O   LIG    1       -2.745  -2.483  -0.517  0.00  0.00    -0.540 OA
ATOM     14  H   LIG    1       -3.189  -2.030  -1.247  0.00  0.00    +0.380 HD
ENDBRANCH  10  13
BRANCH   1  15
ATOM     15  C   LIG    1        0.002  -0.004   0.002  0.00  0.00    +0.160 C 
BRANCH  15  16
ATOM     16  O   LIG    1       -0.012   1.413   0.182  0.00  0.00    -0.550 OA
ATOM     17  H   LIG    1        0.866   1.818   0.185  0.00  0.00    +0.380 HD
ENDBRANCH  15  16
ENDBRANCH   1  15
TORSDOF 4
ENDMDL
MODEL       14
REMARK  Name = ZINC000005411412
REMARK                            x       y       z     vdW  Elec       q    Type
REMARK                         _______ _______ _______ _____ _____    ______ ____
ROOT
ATOM      1  C   LIG    1       -1.433  -0.534   0.013  0.00  0.00    +0.177 C 
ATOM      2  O   LIG    1       -2.093  -0.123  -1.201  0.00  0.00    -0.345 OA
ATOM      3  C   LIG    1       -3.395  -0.639  -1.262  0.00  0.00    +0.271 C 
ATOM      4  N   LIG    1       -4.308  -0.341  -2.340  0.00  0.00    -0.176 NA
ATOM      5  C   LIG    1       -4.986  -1.488  -2.613  0.00  0.00    +0.251 C 
ATOM      6  O   LIG    1       -4.622  -2.508  -1.783  0.00  0.00    -0.463 OA
ATOM      7  S   LIG    1       -6.158  -1.635  -3.852  0.00  0.00    +0.008 S 
ATOM      8  C   LIG    1       -3.279  -2.184  -1.389  0.00  0.00    +0.255 C 
ATOM      9  C   LIG    1       -2.780  -2.657  -0.036  0.00  0.00    +0.190 C 
ATOM     10  C   LIG    1       -1.400  -2.052   0.163  0.00  0.00    +0.178 C 
ENDROOT
BRANCH   9  11
ATOM     11  O   LIG    1       -2.690  -4.083  -0.015  0.00  0.00    -0.385 OA
ATOM     12  H   LIG    1       -2.377  -4.445   0.825  0.00  0.00    +0.210 HD
ENDBRANCH   9  11
BRANCH  10  13
ATOM     13  O   LIG    1       -0.931  -2.378   1.472  0.00  0.00    -0.386 OA
ATOM     14  H   LIG    1       -0.053  -2.026   1.675  0.00  0.00    +0.210 HD
ENDBRANCH  10  13
BRANCH   1  15
ATOM     15  C   LIG    1        0.002  -0.004   0.002  0.00  0.00    +0.190 C 
BRANCH  15  16
ATOM     16  O   LIG    1       -0.017   1.425   0.010  0.00  0.00    -0.392 OA
ATOM     17  H   LIG    1        0.861   1.830   0.004  0.00  0.00    +0.210 HD
ENDBRANCH  15  16
ENDBRANCH   1  15
TORSDOF 4
ENDMDL
MODEL       15
REMARK  Name = ZINC000005411393
REMARK                            x       y       z     vdW  Elec       q    Type
REMARK                         _______ _______ _______ _____ _____    ______ ____
ROOT
ATOM      1  C   LIG    1       -1.433  -0.534   0.013  0.00  0.00    +0.177 C 
ATOM      2  O   LIG    1       -2.093  -0.123  -1.201  0.00  0.00    -0.345 OA
ATOM      3  C   LIG    1       -3.395  -0.639  -1.262  0.00  0.00    +0.271 C 
ATOM      4  N   LIG    1       -4.308  -0.341  -2.340  0.00  0.00    -0.176 NA
ATOM      5  C   LIG    1       -4.986  -1.488  -2.613  0.00  0.00    +0.251 C 
ATOM      6  O   LIG    1       -4.622  -2.508  -1.783  0.00  0.00    -0.463 OA
ATOM      7  S   LIG    1       -6.158  -1.635  -3.852  0.00  0.00    +0.008 S 
ATOM      8  C   LIG    1       -3.279  -2.184  -1.389  0.00  0.00    +0.255 C 
ATOM      9  C   LIG    1       -2.780  -2.657  -0.036  0.00  0.00    +0.190 C 
ATOM     10  C   LIG    1       -1.400  -2.052   0.163  0.00  0.00    +0.178 C 
ENDROOT
BRANCH   9  11
ATOM     11  O   LIG    1       -2.690  -4.083  -0.015  0.00  0.00    -0.385 OA
ATOM     12  H   LIG    1       -2.377  -4.445   0.825  0.00  0.00    +0.210 HD
ENDBRANCH   9  11
BRANCH  10  13
ATOM     13  O   LIG    1       -0.505  -2.602  -0.806  0.00  0.00    -0.386 OA
ATOM     14  H   LIG    1        0.399  -2.264  -0.744  0.00  0.00    +0.210 HD
ENDBRANCH  10  13
BRANCH   1  15
ATOM     15  C   LIG    1        0.002  -0.004   0.002  0.00  0.00    +0.190 C 
BRANCH  15  16
ATOM     16  O   LIG    1       -0.017   1.425   0.010  0.00  0.00    -0.392 OA
ATOM     17  H   LIG    1        0.861   1.830   0.004  0.00  0.00    +0.210 HD
ENDBRANCH  15  16
ENDBRANCH   1  15
TORSDOF 4
ENDMDL
MODEL       16
REMARK  Name = ZINC000085397273
REMARK                            x       y       z     vdW  Elec       q    Type
REMARK                         _______ _______ _______ _____ _____    ______ ____
ROOT
ATOM      1  C   LIG    1       -1.565  -2.850  -0.079  0.00  0.00    -0.850 A 
ATOM      2  C   LIG    1       -1.136  -3.317   1.132  0.00  0.00    +0.560 A 
ATOM      3  N   LIG    1       -0.248  -4.364   1.175  0.00  0.00    -0.550 N 
ATOM      4  C   LIG    1        0.198  -4.926   0.036  0.00  0.00    +0.710 A 
ATOM      5  N   LIG    1       -0.214  -4.479  -1.165  0.00  0.00    -0.560 N 
ATOM      6  C   LIG    1        0.288  -5.111  -2.387  0.00  0.00    +0.330 C 
ATOM      7  O   LIG    1        0.984  -5.852   0.092  0.00  0.00    -0.550 OA
ATOM      8  C   LIG    1        0.217  -4.873   2.467  0.00  0.00    +0.340 C 
ATOM      9  C   LIG    1       -1.089  -3.457  -1.252  0.00  0.00    +0.590 A 
ATOM     10  O   LIG    1       -1.458  -3.057  -2.343  0.00  0.00    -0.490 OA
ENDROOT
BRANCH   1  11
ATOM     11  S   LIG    1       -2.704  -1.508  -0.167  0.00  0.00    +2.610 S 
ATOM     12  O   LIG    1       -3.396  -1.649  -1.400  0.00  0.00    -1.030 OA
ATOM     13  O   LIG    1       -3.361  -1.457   1.092  0.00  0.00    -1.070 OA
BRANCH  11  15
ATOM     14  C   LIG    1       -2.490   1.180  -0.376  0.00  0.00    +0.120 C 
ATOM     15  N   LIG    1       -1.814  -0.117  -0.286  0.00  0.00    -1.180 NA
ENDBRANCH  11  15
ENDBRANCH   1  11
BRANCH   2  16
ATOM     16  N   LIG    1       -1.589  -2.746   2.294  0.00  0.00    -0.820 N 
ATOM     17  H   LIG    1       -1.610  -3.265   3.113  0.00  0.00    +0.400 HD
ATOM     18  H   LIG    1       -1.888  -1.824   2.296  0.00  0.00    +0.440 HD
ENDBRANCH   2  16
TORSDOF 3
ENDMDL
MODEL       17
REMARK  Name = ZINC000039214982
REMARK                            x       y       z     vdW  Elec       q    Type
REMARK                         _______ _______ _______ _____ _____    ______ ____
ROOT
ATOM      1  C   LIG    1       -1.198  -0.636   0.010  0.00  0.00    +0.170 A 
ATOM      2  C   LIG    1       -2.340   0.106   0.019  0.00  0.00    -0.060 A 
ATOM      3  C   LIG    1       -3.600  -0.537   0.027  0.00  0.00    +0.200 A 
ATOM      4  N   LIG    1       -4.828  -0.050   0.037  0.00  0.00    -0.480 NA
ATOM      5  CA  LIG    1       -5.783  -1.162   0.042  0.00  0.00    +0.110 C 
ATOM      6  C   LIG    1       -4.953  -2.425   0.034  0.00  0.00    +0.250 C 
ATOM      7  C   LIG    1       -3.632  -2.009   0.025  0.00  0.00    -0.290 A 
ATOM      8  C   LIG    1       -2.408  -2.722   0.016  0.00  0.00    +0.030 A 
ATOM      9  C   LIG    1       -1.232  -2.043   0.003  0.00  0.00    +0.040 A 
ENDROOT
BRANCH   6  10
ATOM     10  N   LIG    1       -5.406  -3.699   0.035  0.00  0.00    -0.790 N 
ATOM     11  H   LIG    1       -4.777  -4.437   0.029  0.00  0.00    +0.400 HD
ATOM     12  H   LIG    1       -6.360  -3.874   0.042  0.00  0.00    +0.420 HD
ENDBRANCH   6  10
BRANCH   5  13
ATOM     13  C   LIG    1       -6.636  -1.107   1.283  0.00  0.00    +0.530 C 
ATOM     14  OXT LIG    1       -7.477  -1.967   1.483  0.00  0.00    -0.690 OA
ATOM     15  O   LIG    1       -6.486  -0.203   2.087  0.00  0.00    -0.650 OA
ENDBRANCH   5  13
BRANCH   1  17
ATOM     16  C   LIG    1       -0.017   1.425   0.010  0.00  0.00    +0.240 C 
ATOM     17  O   LIG    1        0.002  -0.004   0.002  0.00  0.00    -0.310 OA
ENDBRANCH   1  17
BRANCH   9  18
ATOM     18  O   LIG    1       -0.062  -2.737  -0.006  0.00  0.00    -0.310 OA
ATOM     19  C   LIG    1       -0.154  -4.163  -0.002  0.00  0.00    +0.220 C 
ENDBRANCH   9  18
TORSDOF 4
ENDMDL
MODEL       18
REMARK  Name = ZINC000066339601
REMARK                            x       y       z     vdW  Elec       q    Type
REMARK                         _______ _______ _______ _____ _____    ______ ____
ROOT
ATOM      1  N   LIG    1       -1.115  -0.613   0.130  0.00  0.00    -0.530 N 
ENDROOT
BRANCH   1   5
ATOM      2  N   LIG    1       -0.031   1.458   0.152  0.00  0.00    -0.800 N 
ATOM      3  H   LIG    1       -0.891   1.903   0.100  0.00  0.00    +0.450 HD
ATOM      4  H   LIG    1        0.783   1.983   0.217  0.00  0.00    +0.420 HD
ATOM      5  C   LIG    1        0.034   0.128   0.129  0.00  0.00    +0.730 C 
BRANCH   5   6
ATOM      6  N   LIG    1        1.219  -0.480   0.105  0.00  0.00    -0.800 N 
ATOM      7  H   LIG    1        1.266  -1.449   0.088  0.00  0.00    +0.440 HD
ATOM      8  H   LIG    1        2.034   0.045   0.105  0.00  0.00    +0.420 HD
ENDBRANCH   5   6
ENDBRANCH   1   5
BRANCH   1   9
ATOM      9  C   LIG    1       -2.292  -0.139   0.862  0.00  0.00    -0.290 C 
BRANCH   9  10
ATOM     10  P   LIG    1       -3.420   0.716  -0.288  0.00  0.00    +2.230 P 
ATOM     11  O   LIG    1       -2.740   1.998  -0.819  0.00  0.00    -1.080 OA
ATOM     12  O   LIG    1       -3.752  -0.219  -1.473  0.00  0.00    -1.070 OA
BRANCH  10  13
ATOM     13  O   LIG    1       -4.777   1.108   0.483  0.00  0.00    -0.900 OA
ATOM     14  H   LIG    1       -5.425   1.567  -0.069  0.00  0.00    +0.420 HD
ENDBRANCH  10  13
ENDBRANCH   9  10
ENDBRANCH   1   9
BRANCH   1  15
ATOM     15  C   LIG    1       -1.170  -1.881  -0.602  0.00  0.00    +0.240 C 
BRANCH  15  16
ATOM     16  C   LIG    1       -0.744  -3.004   0.308  0.00  0.00    +0.470 C 
ATOM     17  O   LIG    1       -0.719  -4.150  -0.109  0.00  0.00    -0.680 OA
ATOM     18  O   LIG    1       -0.425  -2.768   1.460  0.00  0.00    -0.690 OA
ENDBRANCH  15  16
ENDBRANCH   1  15
TORSDOF 7
ENDMDL
MODEL       19
REMARK  Name = ZINC000039599905
REMARK                            x       y       z     vdW  Elec       q    Type
REMARK                         _______ _______ _______ _____ _____    ______ ____
ROOT
ATOM      1  O   LIG    1        0.002  -0.004   0.002  0.00  0.00    -0.540 OA
ATOM      2  C   LIG    1       -0.014   1.210   0.009  0.00  0.00    +0.460 A 
ATOM      3  N   LIG    1       -1.192   1.866   0.029  0.00  0.00    -0.660 NA
ATOM      4  C   LIG    1       -1.201   3.264   0.041  0.00  0.00    +0.130 A 
ATOM      5  C   LIG    1       -2.370   3.920  -0.103  0.00  0.00    -0.040 C 
ATOM      6  C   LIG    1       -2.364   5.404  -0.198  0.00  0.00    +0.170 C 
ATOM      7  N   LIG    1       -3.493   6.120   0.371  0.00  0.00    -0.510 NA
ATOM      8  C   LIG    1       -2.976   7.047   1.135  0.00  0.00    +0.440 C 
ATOM      9  N   LIG    1       -1.641   6.989   1.200  0.00  0.00    -0.550 NA
ATOM     10  C   LIG    1       -1.185   5.959   0.592  0.00  0.00    +0.240 C 
ATOM     11  C   LIG    1        0.053   5.329   0.517  0.00  0.00    -0.100 C 
ATOM     12  C   LIG    1        0.067   3.989   0.225  0.00  0.00    +0.240 A 
ATOM     13  N   LIG    1        1.266   3.324   0.086  0.00  0.00    -0.650 N 
ATOM     14  H   LIG    1        2.097   3.823   0.053  0.00  0.00    +0.400 HD
ATOM     15  C   LIG    1        1.268   1.971   0.001  0.00  0.00    +0.460 A 
ATOM     16  O   LIG    1        2.319   1.375  -0.118  0.00  0.00    -0.500 OA
ENDROOT
TORSDOF 0
ENDMDL
MODEL       20
REMARK  Name = ZINC000039599908
REMARK                            x       y       z     vdW  Elec       q    Type
REMARK                         _______ _______ _______ _____ _____    ______ ____
ROOT
ATOM      1  O   LIG    1        0.002  -0.004   0.002  0.00  0.00    -0.540 OA
ATOM      2  C   LIG    1       -0.014   1.210   0.009  0.00  0.00    +0.460 A 
ATOM      3  N   LIG    1       -1.192   1.866   0.029  0.00  0.00    -0.660 NA
ATOM      4  C   LIG    1       -1.201   3.264   0.033  0.00  0.00    +0.130 A 
ATOM      5  C   LIG    1       -2.365   3.918   0.217  0.00  0.00    -0.040 C 
ATOM      6  C   LIG    1       -2.357   5.402   0.328  0.00  0.00    +0.170 C 
ATOM      7  N   LIG    1       -3.501   6.123  -0.201  0.00  0.00    -0.510 NA
ATOM      8  C   LIG    1       -3.006   7.059  -0.969  0.00  0.00    +0.440 C 
ATOM      9  N   LIG    1       -1.673   7.002  -1.072  0.00  0.00    -0.550 NA
ATOM     10  C   LIG    1       -1.201   5.965  -0.489  0.00  0.00    +0.240 C 
ATOM     11  C   LIG    1        0.040   5.334  -0.457  0.00  0.00    -0.100 C 
ATOM     12  C   LIG    1        0.061   3.991  -0.179  0.00  0.00    +0.240 A 
ATOM     13  N   LIG    1        1.263   3.325  -0.083  0.00  0.00    -0.650 N 
ATOM     14  H   LIG    1        2.095   3.823  -0.068  0.00  0.00    +0.400 HD
ATOM     15  C   LIG    1        1.268   1.971   0.001  0.00  0.00    +0.460 A 
ATOM     16  O   LIG    1        2.322   1.375   0.083  0.00  0.00    -0.500 OA
ENDROOT
TORSDOF 0
ENDMDL
MODEL       21
REMARK  Name = ZINC000001737816
REMARK                            x       y       z     vdW  Elec       q    Type
REMARK                         _______ _______ _______ _____ _____    ______ ____
ROOT
ATOM      1  N   ALA A  3       -1.244  -0.643  -0.048  0.00  0.00    -0.670 N 
ATOM      2  H   ALA A  3       -1.293  -1.612  -0.043  0.00  0.00    +0.400 HD
ATOM      3  C   GLY A  2       -2.375   0.088  -0.111  0.00  0.00    +0.510 C 
ATOM      4  O   GLY A  2       -2.312   1.294  -0.216  0.00  0.00    -0.510 OA
ENDROOT
BRANCH   1   6
ATOM      5  CB  ALA A  3        0.918  -0.239  -0.935  0.00  0.00    +0.020 C 
ATOM      6  CA  ALA A  3        0.002  -0.004   0.010  0.00  0.00    +0.050 C 
BRANCH   6   7
ATOM      7  C   ALA A  3        0.301   0.926   1.110  0.00  0.00    +0.520 C 
ATOM      8  OXT ALA A  3       -0.538   1.141   1.975  0.00  0.00    -0.680 OA
ATOM      9  O   ALA A  3        1.389   1.484   1.161  0.00  0.00    -0.690 OA
ENDBRANCH   6   7
ENDBRANCH   1   6
BRANCH   3  10
ATOM     10  CA  GLY A  2       -3.718  -0.594  -0.052  0.00  0.00    +0.300 C 
BRANCH  10  11
ATOM     11  N   GLY A  2       -4.780   0.411  -0.138  0.00  0.00    -0.710 N 
ATOM     12  H   GLY A  2       -4.553   1.351  -0.220  0.00  0.00    +0.410 HD
ATOM     13  C   GLY A  1       -6.072   0.030  -0.105  0.00  0.00    +0.510 C 
ATOM     14  O   GLY A  1       -6.356  -1.144  -0.003  0.00  0.00    -0.540 OA
BRANCH  13  15
ATOM     15  CA  GLY A  1       -7.165   1.064  -0.194  0.00  0.00    +0.220 C 
BRANCH  15  16
ATOM     16  N   GLY A  1       -8.474   0.400  -0.136  0.00  0.00    -0.830 NA
ATOM     17  H1  GLY A  1       -8.557  -0.298  -0.860  0.00  0.00    +0.350 HD
ATOM     18  H2  GLY A  1       -9.224   1.072  -0.194  0.00  0.00    +0.350 HD
ENDBRANCH  15  16
ENDBRANCH  13  15
ENDBRANCH  10  11
ENDBRANCH   3  10
TORSDOF 6
ENDMDL
MODEL       22
REMARK  Name = ZINC000197248777
REMARK                            x       y       z     vdW  Elec       q    Type
REMARK                         _______ _______ _______ _____ _____    ______ ____
ROOT
ATOM      1  C   LIG    1        1.479  -2.361  -2.569  0.00  0.00    +0.210 C 
ENDROOT
BRANCH   1   2
ATOM      2  N   LIG    1        1.063  -3.755  -2.770  0.00  0.00    -0.610 N 
ATOM      3  H   LIG    1        1.313  -4.301  -1.959  0.00  0.00    +0.440 HD
ATOM      4  H   LIG    1        1.527  -4.130  -3.584  0.00  0.00    +0.460 HD
ATOM      5  H   LIG    1        0.064  -3.792  -2.905  0.00  0.00    +0.430 HD
ENDBRANCH   1   2
BRANCH   1   6
ATOM      6  C   LIG    1        0.786  -1.801  -1.353  0.00  0.00    +0.470 C 
ATOM      7  O   LIG    1        0.325  -2.548  -0.523  0.00  0.00    -0.500 OA
BRANCH   6   8
ATOM      8  O   LIG    1        0.682  -0.472  -1.193  0.00  0.00    -0.330 OA
BRANCH   8  10
ATOM      9  C   LIG    1       -0.019   1.526   0.010  0.00  0.00    +0.080 C 
ATOM     10  C   LIG    1        0.002  -0.004   0.002  0.00  0.00    +0.220 C 
ENDBRANCH   8  10
ENDBRANCH   6   8
ENDBRANCH   1   6
BRANCH   1  11
ATOM     11  C   LIG    1        2.994  -2.305  -2.364  0.00  0.00    +0.280 C 
BRANCH  11  12
ATOM     12  O   LIG    1        3.652  -2.727  -3.560  0.00  0.00    -0.750 OA
BRANCH  12  13
ATOM     13  P   LIG    1        5.255  -2.792  -3.702  0.00  0.00    +2.090 P 
ATOM     14  O   LIG    1        5.633  -3.171  -5.175  0.00  0.00    -1.140 OA
ATOM     15  O   LIG    1        5.822  -3.875  -2.722  0.00  0.00    -1.170 OA
ATOM     16  O   LIG    1        5.868  -1.395  -3.348  0.00  0.00    -1.170 OA
ENDBRANCH  12  13
ENDBRANCH  11  12
ENDBRANCH   1  11
TORSDOF 7
ENDMDL
MODEL       23
REMARK  Name = ZINC000033902612
REMARK                            x       y       z     vdW  Elec       q    Type
REMARK                         _______ _______ _______ _____ _____    ______ ____
ROOT
ATOM      1  C   LIG    1       -6.279   1.084   0.038  0.00  0.00    +0.180 C 
ENDROOT
BRANCH   1   2
ATOM      2  C   LIG    1       -4.839   0.639   0.029  0.00  0.00    +0.330 C 
ATOM      3  O   LIG    1       -4.571  -0.538   0.021  0.00  0.00    -0.420 OA
BRANCH   2   4
ATOM      4  C   LIG    1       -3.734   1.664   0.029  0.00  0.00    +0.160 C 
BRANCH   4   5
ATOM      5  N   LIG    1       -2.433   0.981   0.019  0.00  0.00    -0.650 NA
ATOM      6  H   LIG    1       -2.361   0.351  -0.766  0.00  0.00    +0.350 HD
BRANCH   5   7
ATOM      7  C   LIG    1       -1.330   1.951   0.019  0.00  0.00    +0.090 C 
BRANCH   7   9
ATOM      8  O   LIG    1        0.002  -0.004   0.002  0.00  0.00    -0.680 OA
ATOM      9  C   LIG    1       -0.015   1.215   0.009  0.00  0.00    +0.490 C 
ATOM     10  O   LIG    1        1.033   1.839   0.002  0.00  0.00    -0.710 OA
ENDBRANCH   7   9
ENDBRANCH   5   7
ENDBRANCH   4   5
ENDBRANCH   2   4
ENDBRANCH   1   2
BRANCH   1  11
ATOM     11  O   LIG    1       -7.120  -0.017  -0.313  0.00  0.00    -0.540 OA
ATOM     12  H   LIG    1       -7.050  -0.772   0.287  0.00  0.00    +0.380 HD
ENDBRANCH   1  11
BRANCH   1  13
ATOM     13  C   LIG    1       -6.649   1.583   1.436  0.00  0.00    +0.170 C 
BRANCH  13  14
ATOM     14  O   LIG    1       -6.361   0.566   2.397  0.00  0.00    -0.540 OA
ATOM     15  H   LIG    1       -6.843  -0.260   2.252  0.00  0.00    +0.380 HD
ENDBRANCH  13  14
BRANCH  13  16
ATOM     16  C   LIG    1       -8.142   1.918   1.479  0.00  0.00    +0.200 C 
BRANCH  16  17
ATOM     17  O   LIG    1       -8.430   2.935   0.517  0.00  0.00    -0.540 OA
ATOM     18  H   LIG    1       -7.948   3.761   0.662  0.00  0.00    +0.370 HD
ENDBRANCH  16  17
BRANCH  16  19
ATOM     19  C   LIG    1       -8.512   2.417   2.877  0.00  0.00    +0.150 C 
BRANCH  19  20
ATOM     20  O   LIG    1       -9.925   2.619   2.952  0.00  0.00    -0.570 OA
ATOM     21  H   LIG    1      -10.232   2.936   3.812  0.00  0.00    +0.380 HD
ENDBRANCH  19  20
ENDBRANCH  16  19
ENDBRANCH  13  16
ENDBRANCH   1  13
TORSDOF 12
ENDMDL
MODEL       24
REMARK  Name = ZINC000002563304
REMARK                            x       y       z     vdW  Elec       q    Type
REMARK                         _______ _______ _______ _____ _____    ______ ____
ROOT
ATOM      1  N   LEU A  3       -1.330  -0.821   2.503  0.00  0.00    -0.690 N 
ATOM      2  H   LEU A  3       -1.432  -1.655   2.019  0.00  0.00    +0.390 HD
ATOM      3  C   GLY A  2       -2.373  -0.303   3.181  0.00  0.00    +0.510 C 
ATOM      4  O   GLY A  2       -2.245   0.740   3.787  0.00  0.00    -0.550 OA
ENDROOT
BRANCH   1   5
ATOM      5  CA  LEU A  3       -0.042  -0.124   2.497  0.00  0.00    +0.160 C 
BRANCH   5   6
ATOM      6  C   LEU A  3        0.746  -0.514   3.721  0.00  0.00    +0.490 C 
ATOM      7  OXT LEU A  3        0.362  -1.431   4.427  0.00  0.00    -0.690 OA
ATOM      8  O   LEU A  3        1.768   0.088   4.006  0.00  0.00    -0.700 OA
ENDBRANCH   5   6
BRANCH   5   9
ATOM      9  CB  LEU A  3        0.742  -0.511   1.242  0.00  0.00    +0.030 C 
BRANCH   9  11
ATOM     10  CD1 LEU A  3       -0.019   1.526   0.010  0.00  0.00    +0.010 C 
ATOM     11  CG  LEU A  3        0.002  -0.004   0.002  0.00  0.00    -0.030 C 
ATOM     12  CD2 LEU A  3        0.718  -0.497  -1.257  0.00  0.00    +0.010 C 
ENDBRANCH   9  11
ENDBRANCH   5   9
ENDBRANCH   1   5
BRANCH   3  13
ATOM     13  CA  GLY A  2       -3.699  -1.020   3.187  0.00  0.00    +0.290 C 
BRANCH  13  14
ATOM     14  N   GLY A  2       -4.662  -0.260   3.988  0.00  0.00    -0.710 N 
ATOM     15  H   GLY A  2       -4.392   0.570   4.412  0.00  0.00    +0.410 HD
ATOM     16  C   GLY A  1       -5.922  -0.713   4.136  0.00  0.00    +0.510 C 
ATOM     17  O   GLY A  1       -6.259  -1.751   3.606  0.00  0.00    -0.530 OA
BRANCH  16  18
ATOM     18  CA  GLY A  1       -6.912   0.068   4.960  0.00  0.00    +0.200 C 
BRANCH  18  19
ATOM     19  N   GLY A  1       -8.204  -0.631   4.966  0.00  0.00    -0.830 NA
ATOM     20  H1  GLY A  1       -8.886  -0.126   5.513  0.00  0.00    +0.350 HD
ATOM     21  H2  GLY A  1       -8.102  -1.577   5.300  0.00  0.00    +0.350 HD
ENDBRANCH  18  19
ENDBRANCH  16  18
ENDBRANCH  13  14
ENDBRANCH   3  13
TORSDOF 8
ENDMDL
MODEL       25
REMARK  Name = ZINC000001719088
REMARK                            x       y       z     vdW  Elec       q    Type
REMARK                         _______ _______ _______ _____ _____    ______ ____
ROOT
ATOM      1  C   LIG    1        1.848  -2.308   2.435  0.00  0.00    +0.160 C 
ATOM      2  C   LIG    1        1.299  -2.077   3.858  0.00  0.00    +0.050 C 
ATOM      3  C   LIG    1        0.542  -3.387   4.190  0.00  0.00    +0.020 C 
ATOM      4  C   LIG    1        1.442  -4.474   3.553  0.00  0.00    +0.020 C 
ATOM      5  C   LIG    1        1.939  -3.832   2.241  0.00  0.00    +0.040 C 
ENDROOT
BRANCH   1   7
ATOM      6  C   LIG    1        0.768  -0.394   1.383  0.00  0.00    +0.510 C 
ATOM      7  N   LIG    1        0.936  -1.730   1.445  0.00  0.00    -0.730 N 
ATOM      8  H   LIG    1        0.452  -2.309   0.835  0.00  0.00    +0.400 HD
ATOM      9  O   LIG    1        1.302   0.323   2.203  0.00  0.00    -0.510 OA
BRANCH   6  10
ATOM     10  C   LIG    1       -0.082   0.208   0.294  0.00  0.00    +0.200 C 
BRANCH  10  11
ATOM     11  N   LIG    1       -0.105   1.669   0.444  0.00  0.00    -0.830 NA
ATOM     12  H   LIG    1       -0.669   2.098  -0.275  0.00  0.00    +0.350 HD
ATOM     13  H   LIG    1        0.830   2.048   0.443  0.00  0.00    +0.350 HD
ENDBRANCH  10  11
ENDBRANCH   6  10
ENDBRANCH   1   7
BRANCH   1  14
ATOM     14  C   LIG    1        3.215  -1.689   2.301  0.00  0.00    +0.510 C 
ATOM     15  N   LIG    1        3.684  -1.349   1.084  0.00  0.00    -0.690 N 
ATOM     16  H   LIG    1        3.175  -1.569   0.289  0.00  0.00    +0.400 HD
ATOM     17  O   LIG    1        3.893  -1.496   3.288  0.00  0.00    -0.550 OA
BRANCH  15  18
ATOM     18  C   LIG    1        4.964  -0.646   0.963  0.00  0.00    +0.170 C 
BRANCH  18  19
ATOM     19  C   LIG    1        5.258  -0.385  -0.492  0.00  0.00    +0.490 C 
ATOM     20  O   LIG    1        6.282   0.193  -0.813  0.00  0.00    -0.690 OA
ATOM     21  O   LIG    1        4.471  -0.751  -1.348  0.00  0.00    -0.690 OA
ENDBRANCH  18  19
ENDBRANCH  15  18
ENDBRANCH   1  14
TORSDOF 6
ENDMDL
MODEL       26
REMARK  Name = ZINC000004899608
REMARK                            x       y       z     vdW  Elec       q    Type
REMARK                         _______ _______ _______ _____ _____    ______ ____
ROOT
ATOM      1  C   GLY A  1       -1.412  -0.526   0.013  0.00  0.00    +0.530 C 
ATOM      2  N   PRO A  2       -1.640  -1.854   0.008  0.00  0.00    -0.610 N 
ATOM      3  CD  PRO A  2       -0.605  -2.904  -0.001  0.00  0.00    +0.250 C 
ATOM      4  CG  PRO A  2       -1.297  -4.148   0.609  0.00  0.00    +0.040 C 
ATOM      5  CB  PRO A  2       -2.731  -4.022   0.031  0.00  0.00    +0.050 C 
ATOM      6  CA  PRO A  2       -2.962  -2.496   0.017  0.00  0.00    +0.220 C 
ATOM      7  O   GLY A  1       -2.344   0.250   0.026  0.00  0.00    -0.510 OA
ENDROOT
BRANCH   6   8
ATOM      8  C   PRO A  2       -3.735  -2.083   1.243  0.00  0.00    +0.500 C 
ATOM      9  N   GLY A  3       -4.975  -2.568   1.453  0.00  0.00    -0.700 N 
ATOM     10  H   GLY A  3       -5.370  -3.183   0.815  0.00  0.00    +0.410 HD
ATOM     11  O   PRO A  2       -3.241  -1.315   2.041  0.00  0.00    -0.540 OA
BRANCH   9  12
ATOM     12  CA  GLY A  3       -5.726  -2.167   2.645  0.00  0.00    +0.170 C 
BRANCH  12  13
ATOM     13  C   GLY A  3       -7.073  -2.844   2.642  0.00  0.00    +0.490 C 
ATOM     14  OXT GLY A  3       -7.858  -2.643   3.553  0.00  0.00    -0.690 OA
ATOM     15  O   GLY A  3       -7.376  -3.593   1.729  0.00  0.00    -0.690 OA
ENDBRANCH  12  13
ENDBRANCH   9  12
ENDBRANCH   6   8
BRANCH   1  16
ATOM     16  CA  GLY A  1        0.002  -0.004   0.002  0.00  0.00    +0.210 C 
BRANCH  16  17
ATOM     17  N   GLY A  1       -0.018   1.465   0.010  0.00  0.00    -0.830 NA
ATOM     18  H1  GLY A  1       -0.556   1.823  -0.764  0.00  0.00    +0.350 HD
ATOM     19  H2  GLY A  1        0.919   1.839   0.003  0.00  0.00    +0.350 HD
ENDBRANCH  16  17
ENDBRANCH   1  16
TORSDOF 5
ENDMDL
MODEL       27
REMARK  Name = ZINC000001724334
REMARK                            x       y       z     vdW  Elec       q    Type
REMARK                         _______ _______ _______ _____ _____    ______ ____
ROOT
ATOM      1  C   LIG    1       -2.994  -3.868   0.010  0.00  0.00    +0.510 C 
ATOM      2  N   LIG    1       -4.152  -4.558   0.017  0.00  0.00    -0.700 N 
ATOM      3  H   LIG    1       -4.998  -4.084   0.028  0.00  0.00    +0.390 HD
ATOM      4  O   LIG    1       -1.936  -4.460  -0.003  0.00  0.00    -0.520 OA
ENDROOT
BRANCH   2   5
ATOM      5  C   LIG    1       -4.132  -6.022   0.009  0.00  0.00    +0.100 C 
ATOM      6  C   LIG    1       -3.451  -6.549   1.289  0.00  0.00    +0.030 C 
ATOM      7  C   LIG    1       -4.628  -6.840   2.254  0.00  0.00    +0.000 C 
ATOM      8  C   LIG    1       -5.713  -7.409   1.306  0.00  0.00    +0.010 C 
ATOM      9  C   LIG    1       -5.570  -6.569   0.020  0.00  0.00    +0.020 C 
BRANCH   5  10
ATOM     10  C   LIG    1       -3.399  -6.522  -1.209  0.00  0.00    +0.500 C 
ATOM     11  O   LIG    1       -3.263  -7.720  -1.391  0.00  0.00    -0.700 OA
ATOM     12  O   LIG    1       -2.942  -5.728  -2.014  0.00  0.00    -0.680 OA
ENDBRANCH   5  10
ENDBRANCH   2   5
BRANCH   1  13
ATOM     13  C   LIG    1       -3.014  -2.361   0.018  0.00  0.00    +0.280 C 
BRANCH  13  15
ATOM     14  C   LIG    1       -1.412  -0.526   0.013  0.00  0.00    +0.510 C 
ATOM     15  N   LIG    1       -1.640  -1.854   0.008  0.00  0.00    -0.710 N 
ATOM     16  H   LIG    1       -0.894  -2.474  -0.003  0.00  0.00    +0.410 HD
ATOM     17  O   LIG    1       -2.344   0.250   0.026  0.00  0.00    -0.540 OA
BRANCH  14  18
ATOM     18  C   LIG    1        0.002  -0.004   0.002  0.00  0.00    +0.200 C 
BRANCH  18  19
ATOM     19  N   LIG    1       -0.018   1.465   0.010  0.00  0.00    -0.830 NA
ATOM     20  H   LIG    1       -0.556   1.823  -0.764  0.00  0.00    +0.350 HD
ATOM     21  H   LIG    1        0.919   1.839   0.003  0.00  0.00    +0.350 HD
ENDBRANCH  18  19
ENDBRANCH  14  18
ENDBRANCH  13  15
ENDBRANCH   1  13
TORSDOF 6
ENDMDL
MODEL       28
REMARK  Name = ZINC000002390904
REMARK                            x       y       z     vdW  Elec       q    Type
REMARK                         _______ _______ _______ _____ _____    ______ ____
ROOT
ATOM      1  C   LIG    1       -3.014  -2.361   0.018  0.00  0.00    +0.300 C 
ENDROOT
BRANCH   1   3
ATOM      2  C   LIG    1       -1.412  -0.526   0.013  0.00  0.00    +0.510 C 
ATOM      3  N   LIG    1       -1.640  -1.854   0.008  0.00  0.00    -0.720 N 
ATOM      4  H   LIG    1       -0.894  -2.474  -0.003  0.00  0.00    +0.410 HD
ATOM      5  O   LIG    1       -2.344   0.250   0.026  0.00  0.00    -0.530 OA
BRANCH   2   6
ATOM      6  C   LIG    1        0.002  -0.004   0.002  0.00  0.00    +0.210 C 
BRANCH   6   7
ATOM      7  N   LIG    1       -0.018   1.465   0.010  0.00  0.00    -0.830 NA
ATOM      8  H   LIG    1       -0.556   1.823  -0.764  0.00  0.00    +0.350 HD
ATOM      9  H   LIG    1        0.919   1.839   0.003  0.00  0.00    +0.350 HD
ENDBRANCH   6   7
ENDBRANCH   2   6
ENDBRANCH   1   3
BRANCH   1  10
ATOM     10  C   LIG    1       -2.994  -3.868   0.010  0.00  0.00    +0.500 C 
ATOM     11  N   LIG    1       -4.152  -4.558   0.017  0.00  0.00    -0.720 N 
ATOM     12  H   LIG    1       -4.998  -4.084   0.028  0.00  0.00    +0.400 HD
ATOM     13  O   LIG    1       -1.936  -4.460  -0.003  0.00  0.00    -0.540 OA
BRANCH  11  14
ATOM     14  C   LIG    1       -4.132  -6.022   0.009  0.00  0.00    +0.280 C 
BRANCH  14  15
ATOM     15  C   LIG    1       -5.567  -6.552   0.020  0.00  0.00    -0.080 C 
BRANCH  15  16
ATOM     16  C   LIG    1       -5.547  -8.059   0.012  0.00  0.00    +0.500 C 
ATOM     17  O   LIG    1       -6.594  -8.683   0.018  0.00  0.00    -0.700 OA
ATOM     18  O   LIG    1       -4.483  -8.654  -0.002  0.00  0.00    -0.690 OA
ENDBRANCH  15  16
ENDBRANCH  14  15
ENDBRANCH  11  14
ENDBRANCH   1  10
TORSDOF 7
ENDMDL
MODEL       29
REMARK  Name = ZINC000038327482
REMARK                            x       y       z     vdW  Elec       q    Type
REMARK                         _______ _______ _______ _____ _____    ______ ____
ROOT
ATOM      1  CA  LIG    1       -1.330   1.951   0.019  0.00  0.00    +0.100 C 
ATOM      2  C   LIG    1       -1.540   2.638  -1.332  0.00  0.00    +0.200 C 
ATOM      3  N   LIG    1       -2.832   3.338  -1.326  0.00  0.00    -0.490 NA
ATOM      4  C   LIG    1       -3.933   2.401  -1.061  0.00  0.00    +0.200 C 
ATOM      5  C   LIG    1       -3.703   1.716   0.287  0.00  0.00    +0.270 C 
ATOM      6  N   LIG    1       -2.422   0.998   0.260  0.00  0.00    -0.480 N 
ATOM      7  H1  LIG    1       -2.276   0.536   1.145  0.00  0.00    +0.420 HD
ATOM      8  H2  LIG    1       -2.437   0.311  -0.479  0.00  0.00    +0.420 HD
ENDROOT
BRANCH   1  10
ATOM      9  O   LIG    1        0.002  -0.004   0.002  0.00  0.00    -0.680 OA
ATOM     10  C   LIG    1       -0.015   1.215   0.009  0.00  0.00    +0.500 C 
ATOM     11  OXT LIG    1        1.033   1.839   0.002  0.00  0.00    -0.640 OA
ENDBRANCH   1  10
BRANCH   3  12
ATOM     12  C   LIG    1       -3.046   4.059  -2.588  0.00  0.00    -0.400 C 
BRANCH  12  13
ATOM     13  P   LIG    1       -4.194   5.447  -2.308  0.00  0.00    +2.270 P 
ATOM     14  O   LIG    1       -3.539   6.474  -1.357  0.00  0.00    -1.080 OA
ATOM     15  O   LIG    1       -5.499   4.917  -1.673  0.00  0.00    -1.090 OA
BRANCH  13  16
ATOM     16  O   LIG    1       -4.531   6.157  -3.713  0.00  0.00    -0.910 OA
ATOM     17  H   LIG    1       -5.138   6.906  -3.640  0.00  0.00    +0.420 HD
ENDBRANCH  13  16
ENDBRANCH  12  13
ENDBRANCH   3  12
TORSDOF 4
ENDMDL
MODEL       30
REMARK  Name = ZINC000038327484
REMARK                            x       y       z     vdW  Elec       q    Type
REMARK                         _______ _______ _______ _____ _____    ______ ____
ROOT
ATOM      1  CA  LIG    1       -1.330   1.951   0.019  0.00  0.00    +0.100 C 
ATOM      2  C   LIG    1       -1.417   2.822   1.274  0.00  0.00    +0.200 C 
ATOM      3  N   LIG    1       -2.708   3.524   1.291  0.00  0.00    -0.500 NA
ATOM      4  C   LIG    1       -3.823   2.566   1.266  0.00  0.00    +0.220 C 
ATOM      5  C   LIG    1       -3.716   1.696   0.011  0.00  0.00    +0.260 C 
ATOM      6  N   LIG    1       -2.433   0.981   0.019  0.00  0.00    -0.480 N 
ATOM      7  H1  LIG    1       -2.374   0.405   0.845  0.00  0.00    +0.420 HD
ATOM      8  H2  LIG    1       -2.368   0.398  -0.802  0.00  0.00    +0.420 HD
ENDROOT
BRANCH   1  10
ATOM      9  O   LIG    1        0.002  -0.004   0.002  0.00  0.00    -0.680 OA
ATOM     10  C   LIG    1       -0.015   1.215   0.009  0.00  0.00    +0.500 C 
ATOM     11  OXT LIG    1        1.033   1.839   0.002  0.00  0.00    -0.640 OA
ENDBRANCH   1  10
BRANCH   3  12
ATOM     12  C   LIG    1       -2.807   4.417   2.453  0.00  0.00    -0.410 C 
BRANCH  12  13
ATOM     13  P   LIG    1       -4.562   4.678   2.871  0.00  0.00    +2.250 P 
ATOM     14  O   LIG    1       -5.188   3.342   3.327  0.00  0.00    -1.090 OA
ATOM     15  O   LIG    1       -5.315   5.201   1.627  0.00  0.00    -1.080 OA
BRANCH  13  16
ATOM     16  O   LIG    1       -4.676   5.758   4.060  0.00  0.00    -0.900 OA
ATOM     17  H   LIG    1       -5.584   5.947   4.334  0.00  0.00    +0.420 HD
ENDBRANCH  13  16
ENDBRANCH  12  13
ENDBRANCH   3  12
TORSDOF 4
ENDMDL
MODEL       31
REMARK  Name = ZINC000005785543
REMARK                            x       y       z     vdW  Elec       q    Type
REMARK                         _______ _______ _______ _____ _____    ______ ____
ROOT
ATOM      1  N   UNK A  3        1.551  -2.512   0.092  0.00  0.00    -0.690 N 
ATOM      2  H   UNK A  3        2.238  -1.944  -0.291  0.00  0.00    +0.400 HD
ATOM      3  C   GLY A  2        1.321  -3.735  -0.427  0.00  0.00    +0.500 C 
ATOM      4  O   GLY A  2        0.461  -4.444   0.051  0.00  0.00    -0.550 OA
ENDROOT
BRANCH   1   5
ATOM      5  C   UNK A  3        0.763  -2.041   1.233  0.00  0.00    +0.160 C 
BRANCH   5   6
ATOM      6  C   UNK A  3        1.382  -2.542   2.512  0.00  0.00    +0.490 C 
ATOM      7  O   UNK A  3        2.586  -2.729   2.575  0.00  0.00    -0.690 OA
ATOM      8  O   UNK A  3        0.680  -2.760   3.485  0.00  0.00    -0.690 OA
ENDBRANCH   5   6
BRANCH   5   9
ATOM      9  C   UNK A  3        0.742  -0.511   1.242  0.00  0.00    +0.040 C 
BRANCH   9  11
ATOM     10  C   UNK A  3       -0.019   1.526   0.010  0.00  0.00    +0.000 C 
ATOM     11  C   UNK A  3        0.002  -0.004   0.002  0.00  0.00    +0.000 C 
ENDBRANCH   9  11
ENDBRANCH   5   9
ENDBRANCH   1   5
BRANCH   3  12
ATOM     12  CA  GLY A  2        2.131  -4.220  -1.602  0.00  0.00    +0.290 C 
BRANCH  12  13
ATOM     13  N   GLY A  2        1.692  -5.566  -1.975  0.00  0.00    -0.710 N 
ATOM     14  H   GLY A  2        0.979  -5.999  -1.480  0.00  0.00    +0.410 HD
ATOM     15  C   GLY A  1        2.280  -6.205  -3.006  0.00  0.00    +0.510 C 
ATOM     16  O   GLY A  1        3.172  -5.665  -3.625  0.00  0.00    -0.530 OA
BRANCH  15  17
ATOM     17  CA  GLY A  1        1.829  -7.591  -3.390  0.00  0.00    +0.210 C 
BRANCH  17  18
ATOM     18  N   GLY A  1        2.619  -8.063  -4.535  0.00  0.00    -0.830 NA
ATOM     19  H1  GLY A  1        2.555  -7.420  -5.309  0.00  0.00    +0.350 HD
ATOM     20  H2  GLY A  1        2.335  -8.991  -4.811  0.00  0.00    +0.350 HD
ENDBRANCH  17  18
ENDBRANCH  15  17
ENDBRANCH  12  13
ENDBRANCH   3  12
TORSDOF 8
ENDMDL
MODEL       32
REMARK  Name = ZINC000004544867
REMARK                            x       y       z     vdW  Elec       q    Type
REMARK                         _______ _______ _______ _____ _____    ______ ____
ROOT
ATOM      1  N   ALA A  3        0.711  -0.489   1.189  0.00  0.00    -0.690 N 
ATOM      2  H   ALA A  3        0.213  -0.731   1.986  0.00  0.00    +0.410 HD
ATOM      3  C   GLY A  2        2.054  -0.600   1.174  0.00  0.00    +0.500 C 
ATOM      4  O   GLY A  2        2.676  -0.297   0.177  0.00  0.00    -0.560 OA
ENDROOT
BRANCH   1   6
ATOM      5  CB  ALA A  3       -0.019   1.526   0.010  0.00  0.00    +0.020 C 
ATOM      6  CA  ALA A  3        0.002  -0.004   0.002  0.00  0.00    +0.150 C 
BRANCH   6   7
ATOM      7  C   ALA A  3       -1.412  -0.526   0.013  0.00  0.00    +0.500 C 
ATOM      8  OXT ALA A  3       -1.974  -0.742   1.073  0.00  0.00    -0.690 OA
ATOM      9  O   ALA A  3       -1.994  -0.731  -1.039  0.00  0.00    -0.690 OA
ENDBRANCH   6   7
ENDBRANCH   1   6
BRANCH   3  10
ATOM     10  CA  GLY A  2        2.783  -1.099   2.395  0.00  0.00    +0.300 C 
BRANCH  10  11
ATOM     11  N   GLY A  2        4.223  -1.127   2.126  0.00  0.00    -0.720 N 
ATOM     12  H   GLY A  2        4.560  -0.847   1.261  0.00  0.00    +0.410 HD
ATOM     13  C   GLY A  1        5.078  -1.542   3.081  0.00  0.00    +0.510 C 
ATOM     14  O   GLY A  1        4.656  -1.893   4.163  0.00  0.00    -0.530 OA
BRANCH  13  15
ATOM     15  CA  GLY A  1        6.559  -1.571   2.805  0.00  0.00    +0.210 C 
BRANCH  15  16
ATOM     16  N   GLY A  1        7.270  -2.058   3.995  0.00  0.00    -0.830 NA
ATOM     17  H1  GLY A  1        8.266  -2.087   3.835  0.00  0.00    +0.350 HD
ATOM     18  H2  GLY A  1        6.923  -2.962   4.279  0.00  0.00    +0.350 HD
ENDBRANCH  15  16
ENDBRANCH  13  15
ENDBRANCH  10  11
ENDBRANCH   3  10
TORSDOF 6
ENDMDL
MODEL       33
REMARK  Name = ZINC000001580040
REMARK                            x       y       z     vdW  Elec       q    Type
REMARK                         _______ _______ _______ _____ _____    ______ ____
ROOT
ATOM      1  C   THR A  1       -1.413  -2.041   0.005  0.00  0.00    +0.530 C 
ATOM      2  N   GLY A  2       -1.190  -2.718   1.148  0.00  0.00    -0.700 N 
ATOM      3  H   GLY A  2       -1.043  -2.235   1.977  0.00  0.00    +0.410 HD
ATOM      4  O   THR A  1       -1.597  -2.644  -1.031  0.00  0.00    -0.540 OA
ENDROOT
BRANCH   1   5
ATOM      5  CA  THR A  1       -1.433  -0.534   0.013  0.00  0.00    +0.160 C 
BRANCH   5   6
ATOM      6  N   THR A  1       -2.144  -0.047  -1.177  0.00  0.00    -0.820 NA
ATOM      7  H1  THR A  1       -1.690  -0.360  -2.022  0.00  0.00    +0.350 HD
ATOM      8  H2  THR A  1       -2.227   0.958  -1.163  0.00  0.00    +0.350 HD
ENDBRANCH   5   6
BRANCH   5  10
ATOM      9  CG2 THR A  1       -0.019   1.526   0.010  0.00  0.00    +0.010 C 
ATOM     10  CB  THR A  1        0.002  -0.004   0.002  0.00  0.00    +0.170 C 
BRANCH  10  11
ATOM     11  OG1 THR A  1        0.693  -0.477   1.160  0.00  0.00    -0.550 OA
ATOM     12  HG1 THR A  1        0.294  -0.202   1.996  0.00  0.00    +0.380 HD
ENDBRANCH  10  11
ENDBRANCH   5  10
ENDBRANCH   1   5
BRANCH   2  13
ATOM     13  CA  GLY A  2       -1.170  -4.183   1.140  0.00  0.00    +0.300 C 
BRANCH  13  14
ATOM     14  C   GLY A  2       -0.903  -4.689   2.534  0.00  0.00    +0.500 C 
ATOM     15  N   GLY A  3       -0.840  -6.015   2.769  0.00  0.00    -0.690 N 
ATOM     16  H   GLY A  3       -0.967  -6.643   2.041  0.00  0.00    +0.410 HD
ATOM     17  O   GLY A  2       -0.745  -3.904   3.445  0.00  0.00    -0.560 OA
BRANCH  15  18
ATOM     18  CA  GLY A  3       -0.581  -6.507   4.124  0.00  0.00    +0.190 C 
BRANCH  18  19
ATOM     19  C   GLY A  3       -0.560  -8.014   4.116  0.00  0.00    +0.490 C 
ATOM     20  OXT GLY A  3       -0.359  -8.626   5.151  0.00  0.00    -0.690 OA
ATOM     21  O   GLY A  3       -0.746  -8.620   3.075  0.00  0.00    -0.690 OA
ENDBRANCH  18  19
ENDBRANCH  15  18
ENDBRANCH  13  14
ENDBRANCH   2  13
TORSDOF 8
ENDMDL
MODEL       34
REMARK  Name = ZINC000008076550
REMARK                            x       y       z     vdW  Elec       q    Type
REMARK                         _______ _______ _______ _____ _____    ______ ____
ROOT
ATOM      1  C   THR A  1       -1.414  -2.036   0.129  0.00  0.00    +0.500 C 
ATOM      2  N   PRO A  2       -1.178  -2.793  -0.962  0.00  0.00    -0.580 N 
ATOM      3  CD  PRO A  2       -0.920  -2.284  -2.321  0.00  0.00    +0.240 C 
ATOM      4  CG  PRO A  2       -1.328  -3.444  -3.263  0.00  0.00    +0.020 C 
ATOM      5  CB  PRO A  2       -0.863  -4.683  -2.452  0.00  0.00    +0.030 C 
ATOM      6  CA  PRO A  2       -1.131  -4.262  -0.991  0.00  0.00    +0.120 C 
ATOM      7  O   THR A  1       -1.609  -2.564   1.202  0.00  0.00    -0.540 OA
ENDROOT
BRANCH   6   8
ATOM      8  C   PRO A  2       -0.025  -4.767  -0.101  0.00  0.00    +0.500 C 
ATOM      9  OXT PRO A  2       -0.127  -5.855   0.440  0.00  0.00    -0.700 OA
ATOM     10  O   PRO A  2        0.971  -4.088   0.079  0.00  0.00    -0.680 OA
ENDBRANCH   6   8
BRANCH   1  11
ATOM     11  CA  THR A  1       -1.433  -0.534   0.013  0.00  0.00    +0.140 C 
BRANCH  11  12
ATOM     12  N   THR A  1       -2.157   0.036   1.157  0.00  0.00    -0.820 NA
ATOM     13  H1  THR A  1       -1.712  -0.216   2.028  0.00  0.00    +0.350 HD
ATOM     14  H2  THR A  1       -3.125  -0.247   1.151  0.00  0.00    +0.350 HD
ENDBRANCH  11  12
BRANCH  11  16
ATOM     15  CG2 THR A  1       -0.019   1.526   0.010  0.00  0.00    +0.020 C 
ATOM     16  CB  THR A  1        0.002  -0.004   0.002  0.00  0.00    +0.220 C 
BRANCH  16  17
ATOM     17  OG1 THR A  1        0.693  -0.477   1.160  0.00  0.00    -0.540 OA
ATOM     18  HG1 THR A  1        0.294  -0.202   1.996  0.00  0.00    +0.370 HD
ENDBRANCH  16  17
ENDBRANCH  11  16
ENDBRANCH   1  11
TORSDOF 5
ENDMDL
MODEL       35
REMARK  Name = ZINC000001593013
REMARK                            x       y       z     vdW  Elec       q    Type
REMARK                         _______ _______ _______ _____ _____    ______ ____
ROOT
ATOM      1  C   LIG    1       -0.018   1.461   0.010  0.00  0.00    +0.280 C 
ATOM      2  N   LIG    1        0.002  -0.004   0.002  0.00  0.00    -0.520 N 
ATOM      3  C   LIG    1        0.008  -0.782  -1.097  0.00  0.00    +0.570 A 
ATOM      4  N   LIG    1        0.028  -2.076  -0.718  0.00  0.00    -0.580 NA
ATOM      5  C   LIG    1        0.034  -2.106   0.681  0.00  0.00    -0.060 A 
ATOM      6  C   LIG    1        0.052  -3.148   1.630  0.00  0.00    +0.580 A 
ATOM      7  O   LIG    1        0.061  -4.311   1.267  0.00  0.00    -0.520 OA
ATOM      8  N   LIG    1        0.051  -2.844   2.944  0.00  0.00    -0.560 N 
ATOM      9  C   LIG    1        0.065  -3.920   3.938  0.00  0.00    +0.340 C 
ATOM     10  C   LIG    1        0.041  -1.561   3.350  0.00  0.00    +0.700 A 
ATOM     11  O   LIG    1        0.044  -1.313   4.541  0.00  0.00    -0.570 OA
ATOM     12  N   LIG    1        0.027  -0.548   2.464  0.00  0.00    -0.510 N 
ATOM     13  C   LIG    1        0.015   0.837   2.940  0.00  0.00    +0.310 C 
ATOM     14  O   LIG    1       -0.002  -0.382  -2.247  0.00  0.00    -0.630 OA
ATOM     15  C   LIG    1        0.024  -0.808   1.113  0.00  0.00    +0.180 A 
ENDROOT
TORSDOF 0
ENDMDL
MODEL       36
REMARK  Name = ZINC000001611164
REMARK                            x       y       z     vdW  Elec       q    Type
REMARK                         _______ _______ _______ _____ _____    ______ ____
ROOT
ATOM      1  C   LIG    1       -1.407  -0.526   0.111  0.00  0.00    +0.510 C 
ATOM      2  N   LIG    1       -1.628  -1.790   0.523  0.00  0.00    -0.720 N 
ATOM      3  H   LIG    1       -0.879  -2.364   0.750  0.00  0.00    +0.400 HD
ATOM      4  O   LIG    1       -2.343   0.191  -0.173  0.00  0.00    -0.520 OA
ENDROOT
BRANCH   1   5
ATOM      5  CA  LIG    1        0.002  -0.004   0.002  0.00  0.00    +0.190 C 
BRANCH   5   6
ATOM      6  N   LIG    1       -0.018   1.465   0.010  0.00  0.00    -0.820 NA
ATOM      7  H1  LIG    1       -0.556   1.823  -0.764  0.00  0.00    +0.350 HD
ATOM      8  H2  LIG    1        0.919   1.839   0.003  0.00  0.00    +0.350 HD
ENDBRANCH   5   6
BRANCH   5   9
ATOM      9  C   LIG    1        0.630  -0.498  -1.303  0.00  0.00    +0.160 C 
BRANCH   9  10
ATOM     10  O   LIG    1        2.002  -0.102  -1.351  0.00  0.00    -0.570 OA
ATOM     11  H   LIG    1        2.464  -0.382  -2.153  0.00  0.00    +0.380 HD
ENDBRANCH   9  10
ENDBRANCH   5   9
ENDBRANCH   1   5
BRANCH   2  12
ATOM     12  C   LIG    1       -2.998  -2.298   0.628  0.00  0.00    +0.300 C 
BRANCH  12  13
ATOM     13  C   LIG    1       -2.969  -3.748   1.115  0.00  0.00    -0.470 C 
BRANCH  13  14
ATOM     14  S   LIG    1       -4.665  -4.377   1.245  0.00  0.00    +2.640 S 
ATOM     15  O   LIG    1       -5.293  -4.309  -0.065  0.00  0.00    -1.060 OA
ATOM     16  O   LIG    1       -5.399  -3.554   2.195  0.00  0.00    -1.060 OA
ATOM     17  O   LIG    1       -4.620  -5.755   1.708  0.00  0.00    -1.060 OA
ENDBRANCH  13  14
ENDBRANCH  12  13
ENDBRANCH   2  12
TORSDOF 7
ENDMDL
MODEL       37
REMARK  Name = ZINC000409076721
REMARK                            x       y       z     vdW  Elec       q    Type
REMARK                         _______ _______ _______ _____ _____    ______ ____
ROOT
ATOM      1  C   LIG    1        3.963   0.676   1.389  0.00  0.00    +0.110 A 
ATOM      2  N   LIG    1        4.223   1.726   2.129  0.00  0.00    -0.260 NA
ATOM      3  N   LIG    1        4.644   1.309   3.274  0.00  0.00    -0.110 N 
ATOM      4  N   LIG    1        4.657   0.021   3.275  0.00  0.00    -0.040 NA
ATOM      5  N   LIG    1        4.237  -0.398   2.129  0.00  0.00    -0.270 NA
ENDROOT
BRANCH   1   6
ATOM      6  C   LIG    1        3.447   0.683  -0.027  0.00  0.00    +0.530 C 
BRANCH   6   9
ATOM      7  C   LIG    1       -0.016   1.329   0.009  0.00  0.00    +0.380 A 
ATOM      8  N   LIG    1        1.232   1.727  -0.000  0.00  0.00    -0.300 NA
ATOM      9  N   LIG    1        1.983   0.679  -0.013  0.00  0.00    -0.140 N 
ATOM     10  N   LIG    1        1.238  -0.372  -0.012  0.00  0.00    -0.050 NA
ATOM     11  N   LIG    1        0.002  -0.004   0.002  0.00  0.00    -0.290 NA
ENDBRANCH   6   9
ENDBRANCH   1   6
BRANCH   3  12
ATOM     12  C   LIG    1        5.044   2.163   4.395  0.00  0.00    +0.500 C 
BRANCH  12  13
ATOM     13  C   LIG    1        3.846   2.443   5.266  0.00  0.00    +0.010 A 
ATOM     14  N   LIG    1        2.998   3.448   5.137  0.00  0.00    -0.360 NA
ATOM     15  N   LIG    1        2.116   3.337   6.071  0.00  0.00    -0.180 NA
ATOM     16  N   LIG    1        2.386   2.294   6.777  0.00  0.00    -0.180 NA
ATOM     17  N   LIG    1        3.440   1.727   6.299  0.00  0.00    -0.360 NA
ENDBRANCH  12  13
ENDBRANCH   3  12
TORSDOF 4
ENDMDL
MODEL       38
REMARK  Name = ZINC000002014753
REMARK                            x       y       z     vdW  Elec       q    Type
REMARK                         _______ _______ _______ _____ _____    ______ ____
ROOT
ATOM      1  C   LIG    1        0.621  -0.491  -1.283  0.00  0.00    +0.470 C 
ATOM      2  N   LIG    1        1.114  -1.743  -1.362  0.00  0.00    -0.720 N 
ATOM      3  H   LIG    1        1.071  -2.330  -0.591  0.00  0.00    +0.400 HD
ATOM      4  O   LIG    1        0.674   0.243  -2.247  0.00  0.00    -0.540 OA
ENDROOT
BRANCH   1   5
ATOM      5  CA  LIG    1        0.002  -0.004   0.002  0.00  0.00    +0.190 C 
BRANCH   5   6
ATOM      6  N   LIG    1       -0.018   1.465   0.010  0.00  0.00    -0.810 NA
ATOM      7  H1  LIG    1       -0.556   1.823  -0.764  0.00  0.00    +0.350 HD
ATOM      8  H2  LIG    1        0.919   1.839   0.003  0.00  0.00    +0.350 HD
ENDBRANCH   5   6
BRANCH   5   9
ATOM      9  C   LIG    1       -1.429  -0.534   0.112  0.00  0.00    +0.200 C 
BRANCH   9  10
ATOM     10  O   LIG    1       -1.975  -0.170   1.382  0.00  0.00    -0.560 OA
ATOM     11  H   LIG    1       -2.882  -0.474   1.521  0.00  0.00    +0.380 HD
ENDBRANCH   9  10
ENDBRANCH   5   9
ENDBRANCH   1   5
BRANCH   2  12
ATOM     12  C   LIG    1        1.715  -2.216  -2.611  0.00  0.00    +0.300 C 
BRANCH  12  13
ATOM     13  C   LIG    1        2.192  -3.659  -2.433  0.00  0.00    -0.470 C 
BRANCH  13  14
ATOM     14  S   LIG    1        2.937  -4.245  -3.979  0.00  0.00    +2.640 S 
ATOM     15  O   LIG    1        4.066  -3.389  -4.310  0.00  0.00    -1.060 OA
ATOM     16  O   LIG    1        1.937  -4.184  -5.034  0.00  0.00    -1.060 OA
ATOM     17  O   LIG    1        3.385  -5.616  -3.794  0.00  0.00    -1.060 OA
ENDBRANCH  13  14
ENDBRANCH  12  13
ENDBRANCH   2  12
TORSDOF 7
ENDMDL
MODEL       39
REMARK  Name = ZINC000197248785
REMARK                            x       y       z     vdW  Elec       q    Type
REMARK                         _______ _______ _______ _____ _____    ______ ____
ROOT
ATOM      1  C   LIG    1        1.479  -2.361  -2.569  0.00  0.00    +0.210 C 
ENDROOT
BRANCH   1   2
ATOM      2  N   LIG    1        1.888  -3.747  -2.304  0.00  0.00    -0.610 N 
ATOM      3  H   LIG    1        1.073  -4.304  -2.095  0.00  0.00    +0.440 HD
ATOM      4  H   LIG    1        2.520  -3.767  -1.518  0.00  0.00    +0.430 HD
ATOM      5  H   LIG    1        2.352  -4.122  -3.118  0.00  0.00    +0.460 HD
ENDBRANCH   1   2
BRANCH   1   6
ATOM      6  C   LIG    1        0.786  -1.801  -1.353  0.00  0.00    +0.470 C 
ATOM      7  O   LIG    1        0.325  -2.548  -0.523  0.00  0.00    -0.500 OA
BRANCH   6   8
ATOM      8  O   LIG    1        0.682  -0.472  -1.193  0.00  0.00    -0.330 OA
BRANCH   8  10
ATOM      9  C   LIG    1       -0.019   1.526   0.010  0.00  0.00    +0.080 C 
ATOM     10  C   LIG    1        0.002  -0.004   0.002  0.00  0.00    +0.220 C 
ENDBRANCH   8  10
ENDBRANCH   6   8
ENDBRANCH   1   6
BRANCH   1  11
ATOM     11  C   LIG    1        0.520  -2.331  -3.761  0.00  0.00    +0.280 C 
BRANCH  11  12
ATOM     12  O   LIG    1        1.211  -2.752  -4.939  0.00  0.00    -0.750 OA
BRANCH  12  13
ATOM     13  P   LIG    1        0.507  -2.842  -6.384  0.00  0.00    +2.090 P 
ATOM     14  O   LIG    1        1.511  -3.457  -7.417  0.00  0.00    -1.140 OA
ATOM     15  O   LIG    1        0.091  -1.406  -6.852  0.00  0.00    -1.160 OA
ATOM     16  O   LIG    1       -0.766  -3.750  -6.289  0.00  0.00    -1.170 OA
ENDBRANCH  12  13
ENDBRANCH  11  12
ENDBRANCH   1  11
TORSDOF 7
ENDMDL
MODEL       40
REMARK  Name = ZINC000001595134
REMARK                            x       y       z     vdW  Elec       q    Type
REMARK                         _______ _______ _______ _____ _____    ______ ____
ROOT
ATOM      1  C   LIG    1        0.002  -0.004   0.002  0.00  0.00    +0.680 A 
ATOM      2  N   LIG    1       -1.145  -0.649   0.004  0.00  0.00    -0.620 NA
ATOM      3  C   LIG    1       -1.202  -1.981  -0.003  0.00  0.00    +0.410 A 
ATOM      4  C   LIG    1       -0.005  -2.725  -0.014  0.00  0.00    -0.150 A 
ATOM      5  C   LIG    1        1.264  -1.990  -0.016  0.00  0.00    +0.580 A 
ATOM      6  O   LIG    1        2.332  -2.576  -0.025  0.00  0.00    -0.460 OA
ATOM      7  N   LIG    1       -0.036  -4.059  -0.020  0.00  0.00    -0.250 NA
ATOM      8  C   LIG    1       -1.177  -4.699  -0.017  0.00  0.00    +0.050 A 
ATOM      9  C   LIG    1       -2.403  -3.992  -0.007  0.00  0.00    +0.500 A 
ATOM     10  O   LIG    1       -3.458  -4.601  -0.003  0.00  0.00    -0.520 OA
ATOM     11  N   LIG    1       -2.401  -2.641  -0.001  0.00  0.00    -0.590 N 
ATOM     12  H   LIG    1       -3.236  -2.147   0.006  0.00  0.00    +0.410 HD
ATOM     13  N   LIG    1        1.206  -0.639  -0.013  0.00  0.00    -0.660 N 
ATOM     14  H   LIG    1        2.025  -0.120  -0.015  0.00  0.00    +0.420 HD
ENDROOT
BRANCH   1  15
ATOM     15  N   LIG    1       -0.017   1.363   0.009  0.00  0.00    -0.820 N 
ATOM     16  H   LIG    1       -0.863   1.837   0.016  0.00  0.00    +0.430 HD
ATOM     17  H   LIG    1        0.817   1.860   0.004  0.00  0.00    +0.420 HD
ENDBRANCH   1  15
BRANCH   8  18
ATOM     18  C   LIG    1       -1.186  -6.206  -0.025  0.00  0.00    +0.040 C 
BRANCH  18  19
ATOM     19  C   LIG    1        0.231  -6.717  -0.035  0.00  0.00    +0.490 C 
ATOM     20  O   LIG    1        0.447  -7.917  -0.043  0.00  0.00    -0.710 OA
ATOM     21  O   LIG    1        1.163  -5.931  -0.036  0.00  0.00    -0.640 OA
ENDBRANCH  18  19
ENDBRANCH   8  18
TORSDOF 3
ENDMDL
MODEL       41
REMARK  Name = ZINC000002522600
REMARK                            x       y       z     vdW  Elec       q    Type
REMARK                         _______ _______ _______ _____ _____    ______ ____
ROOT
ATOM      1  C   THR A  1       -1.414  -2.036   0.129  0.00  0.00    +0.530 C 
ATOM      2  N   SER A  2       -1.178  -2.793  -0.962  0.00  0.00    -0.690 N 
ATOM      3  H   SER A  2       -1.022  -2.370  -1.821  0.00  0.00    +0.390 HD
ATOM      4  O   THR A  1       -1.609  -2.564   1.202  0.00  0.00    -0.540 OA
ENDROOT
BRANCH   1   5
ATOM      5  CA  THR A  1       -1.433  -0.534   0.013  0.00  0.00    +0.140 C 
BRANCH   5   6
ATOM      6  N   THR A  1       -2.157   0.036   1.157  0.00  0.00    -0.820 NA
ATOM      7  H1  THR A  1       -2.240   1.038   1.070  0.00  0.00    +0.340 HD
ATOM      8  H2  THR A  1       -1.712  -0.216   2.028  0.00  0.00    +0.350 HD
ENDBRANCH   5   6
BRANCH   5  10
ATOM      9  CG2 THR A  1       -0.019   1.526   0.010  0.00  0.00    +0.010 C 
ATOM     10  CB  THR A  1        0.002  -0.004   0.002  0.00  0.00    +0.180 C 
BRANCH  10  11
ATOM     11  OG1 THR A  1        0.693  -0.477   1.160  0.00  0.00    -0.530 OA
ATOM     12  HG1 THR A  1        0.294  -0.202   1.996  0.00  0.00    +0.360 HD
ENDBRANCH  10  11
ENDBRANCH   5  10
ENDBRANCH   1   5
BRANCH   2  13
ATOM     13  CA  SER A  2       -1.159  -4.253  -0.849  0.00  0.00    +0.160 C 
BRANCH  13  14
ATOM     14  C   SER A  2        0.212  -4.706  -0.417  0.00  0.00    +0.500 C 
ATOM     15  OXT SER A  2        0.442  -5.894  -0.264  0.00  0.00    -0.710 OA
ATOM     16  O   SER A  2        1.091  -3.885  -0.222  0.00  0.00    -0.670 OA
ENDBRANCH  13  14
BRANCH  13  17
ATOM     17  CB  SER A  2       -1.497  -4.874  -2.207  0.00  0.00    +0.190 C 
BRANCH  17  18
ATOM     18  OG  SER A  2       -0.469  -4.553  -3.146  0.00  0.00    -0.560 OA
ATOM     19  H   SER A  2       -0.617  -4.915  -4.030  0.00  0.00    +0.370 HD
ENDBRANCH  17  18
ENDBRANCH  13  17
ENDBRANCH   2  13
TORSDOF 8
ENDMDL
MODEL       42
REMARK  Name = ZINC000002522621
REMARK                            x       y       z     vdW  Elec       q    Type
REMARK                         _______ _______ _______ _____ _____    ______ ____
ROOT
ATOM      1  C   THR A  1        0.870  -2.011   1.172  0.00  0.00    +0.490 C 
ATOM      2  N   GLN A  2       -0.172  -2.793   1.516  0.00  0.00    -0.700 N 
ATOM      3  H   GLN A  2       -1.005  -2.390   1.808  0.00  0.00    +0.390 HD
ATOM      4  O   THR A  1        1.911  -2.514   0.806  0.00  0.00    -0.540 OA
ENDROOT
BRANCH   1   5
ATOM      5  CA  THR A  1        0.742  -0.511   1.242  0.00  0.00    +0.180 C 
BRANCH   5   6
ATOM      6  N   THR A  1        2.080   0.093   1.294  0.00  0.00    -0.820 NA
ATOM      7  H1  THR A  1        2.618  -0.148   0.475  0.00  0.00    +0.360 HD
ATOM      8  H2  THR A  1        2.565  -0.176   2.137  0.00  0.00    +0.340 HD
ENDBRANCH   5   6
BRANCH   5  10
ATOM      9  CG2 THR A  1       -0.019   1.526   0.010  0.00  0.00    +0.020 C 
ATOM     10  CB  THR A  1        0.002  -0.004   0.002  0.00  0.00    +0.180 C 
BRANCH  10  11
ATOM     11  OG1 THR A  1        0.671  -0.465  -1.174  0.00  0.00    -0.550 OA
ATOM     12  HG1 THR A  1        0.256  -0.181  -1.999  0.00  0.00    +0.380 HD
ENDBRANCH  10  11
ENDBRANCH   5  10
ENDBRANCH   1   5
BRANCH   2  13
ATOM     13  CA  GLN A  2       -0.048  -4.251   1.448  0.00  0.00    +0.150 C 
BRANCH  13  14
ATOM     14  C   GLN A  2       -0.348  -4.716   0.046  0.00  0.00    +0.490 C 
ATOM     15  OXT GLN A  2       -0.300  -5.904  -0.225  0.00  0.00    -0.700 OA
ATOM     16  O   GLN A  2       -0.638  -3.905  -0.816  0.00  0.00    -0.680 OA
ENDBRANCH  13  14
BRANCH  13  17
ATOM     17  CB  GLN A  2       -1.039  -4.893   2.421  0.00  0.00    +0.070 C 
BRANCH  17  18
ATOM     18  CG  GLN A  2       -0.659  -4.521   3.856  0.00  0.00    +0.040 C 
BRANCH  18  19
ATOM     19  CD  GLN A  2       -1.635  -5.153   4.814  0.00  0.00    +0.510 C 
ATOM     20  OE1 GLN A  2       -2.544  -5.835   4.392  0.00  0.00    -0.540 OA
ATOM     21  NE2 GLN A  2       -1.496  -4.961   6.141  0.00  0.00    -0.860 N 
ATOM     22 HE21 GLN A  2       -2.124  -5.368   6.758  0.00  0.00    +0.400 HD
ATOM     23 HE22 GLN A  2       -0.768  -4.416   6.479  0.00  0.00    +0.400 HD
ENDBRANCH  18  19
ENDBRANCH  17  18
ENDBRANCH  13  17
ENDBRANCH   2  13
TORSDOF 9
ENDMDL
MODEL       43
REMARK  Name = ZINC000002575114
REMARK                            x       y       z     vdW  Elec       q    Type
REMARK                         _______ _______ _______ _____ _____    ______ ____
ROOT
ATOM      1  CB  ALA A  2       -0.019   1.526   0.010  0.00  0.00    +0.050 C 
ATOM      2  CA  ALA A  2        0.002  -0.004   0.002  0.00  0.00    +0.240 C 
ENDROOT
BRANCH   2   3
ATOM      3  C   ALA A  2       -1.412  -0.526   0.013  0.00  0.00    +0.500 C 
ATOM      4  N   GLY A  3       -2.236  -0.217   1.033  0.00  0.00    -0.690 N 
ATOM      5  H   GLY A  3       -1.920   0.341   1.761  0.00  0.00    +0.410 HD
ATOM      6  O   ALA A  2       -1.808  -1.223  -0.897  0.00  0.00    -0.560 OA
BRANCH   4   7
ATOM      7  CA  GLY A  3       -3.611  -0.724   1.044  0.00  0.00    +0.190 C 
BRANCH   7   8
ATOM      8  C   GLY A  3       -4.316  -0.238   2.283  0.00  0.00    +0.490 C 
ATOM      9  OXT GLY A  3       -5.477  -0.549   2.486  0.00  0.00    -0.690 OA
ATOM     10  O   GLY A  3       -3.725   0.467   3.084  0.00  0.00    -0.690 OA
ENDBRANCH   7   8
ENDBRANCH   4   7
ENDBRANCH   2   3
BRANCH   2  11
ATOM     11  N   ALA A  2        0.688  -0.476  -1.203  0.00  0.00    -0.710 N 
ATOM     12  H   ALA A  2        0.175  -0.710  -1.993  0.00  0.00    +0.410 HD
ATOM     13  C   GLY A  1        2.031  -0.587  -1.215  0.00  0.00    +0.510 C 
ATOM     14  O   GLY A  1        2.672  -0.295  -0.228  0.00  0.00    -0.530 OA
BRANCH  13  15
ATOM     15  CA  GLY A  1        2.736  -1.073  -2.455  0.00  0.00    +0.210 C 
BRANCH  15  16
ATOM     16  N   GLY A  1        4.185  -1.104  -2.214  0.00  0.00    -0.830 NA
ATOM     17  H1  GLY A  1        4.522  -0.200  -1.920  0.00  0.00    +0.350 HD
ATOM     18  H2  GLY A  1        4.681  -1.427  -3.031  0.00  0.00    +0.350 HD
ENDBRANCH  15  16
ENDBRANCH  13  15
ENDBRANCH   2  11
TORSDOF 6
ENDMDL
MODEL       44
REMARK  Name = ZINC000001576026
REMARK                            x       y       z     vdW  Elec       q    Type
REMARK                         _______ _______ _______ _____ _____    ______ ____
ROOT
ATOM      1  CA  SER A  2        2.783  -1.099   2.395  0.00  0.00    +0.250 C 
ENDROOT
BRANCH   1   4
ATOM      2  N   ALA A  3        0.711  -0.489   1.189  0.00  0.00    -0.690 N 
ATOM      3  H   ALA A  3        0.213  -0.731   1.986  0.00  0.00    +0.400 HD
ATOM      4  C   SER A  2        2.054  -0.600   1.174  0.00  0.00    +0.510 C 
ATOM      5  O   SER A  2        2.676  -0.297   0.177  0.00  0.00    -0.550 OA
BRANCH   2   7
ATOM      6  CB  ALA A  3       -0.019   1.526   0.010  0.00  0.00    +0.020 C 
ATOM      7  CA  ALA A  3        0.002  -0.004   0.002  0.00  0.00    +0.150 C 
BRANCH   7   8
ATOM      8  C   ALA A  3       -1.412  -0.526   0.013  0.00  0.00    +0.500 C 
ATOM      9  OXT ALA A  3       -1.974  -0.742   1.073  0.00  0.00    -0.690 OA
ATOM     10  O   ALA A  3       -1.994  -0.731  -1.039  0.00  0.00    -0.690 OA
ENDBRANCH   7   8
ENDBRANCH   2   7
ENDBRANCH   1   4
BRANCH   1  11
ATOM     11  N   SER A  2        4.223  -1.127   2.126  0.00  0.00    -0.700 N 
ATOM     12  H   SER A  2        4.602  -0.541   1.453  0.00  0.00    +0.410 HD
ATOM     13  C   GLY A  1        5.020  -1.968   2.815  0.00  0.00    +0.510 C 
ATOM     14  O   GLY A  1        4.546  -2.701   3.657  0.00  0.00    -0.530 OA
BRANCH  13  15
ATOM     15  CA  GLY A  1        6.501  -1.997   2.539  0.00  0.00    +0.210 C 
BRANCH  15  16
ATOM     16  N   GLY A  1        7.143  -2.988   3.413  0.00  0.00    -0.830 NA
ATOM     17  H1  GLY A  1        8.137  -3.027   3.246  0.00  0.00    +0.350 HD
ATOM     18  H2  GLY A  1        6.722  -3.898   3.298  0.00  0.00    +0.350 HD
ENDBRANCH  15  16
ENDBRANCH  13  15
ENDBRANCH   1  11
BRANCH   1  19
ATOM     19  CB  SER A  2        2.502  -0.165   3.574  0.00  0.00    +0.190 C 
BRANCH  19  20
ATOM     20  OG  SER A  2        2.845   1.174   3.213  0.00  0.00    -0.560 OA
ATOM     21  H   SER A  2        2.693   1.822   3.914  0.00  0.00    +0.380 HD
ENDBRANCH  19  20
ENDBRANCH   1  19
TORSDOF 8
ENDMDL
MODEL       45
REMARK  Name = ZINC000001576023
REMARK                            x       y       z     vdW  Elec       q    Type
REMARK                         _______ _______ _______ _____ _____    ______ ____
ROOT
ATOM      1  CA  SER A  2       -3.465  -1.164  -1.134  0.00  0.00    +0.260 C 
ENDROOT
BRANCH   1   4
ATOM      2  N   ALA A  3       -1.372  -0.511   0.012  0.00  0.00    -0.690 N 
ATOM      3  H   ALA A  3       -1.794  -0.752   0.852  0.00  0.00    +0.410 HD
ATOM      4  C   SER A  2       -2.051  -0.643  -1.145  0.00  0.00    +0.510 C 
ATOM      5  O   SER A  2       -1.524  -0.341  -2.194  0.00  0.00    -0.550 OA
BRANCH   2   7
ATOM      6  CB  ALA A  3       -0.019   1.526   0.010  0.00  0.00    +0.020 C 
ATOM      7  CA  ALA A  3        0.002  -0.004   0.002  0.00  0.00    +0.150 C 
BRANCH   7   8
ATOM      8  C   ALA A  3        0.731  -0.503   1.223  0.00  0.00    +0.500 C 
ATOM      9  OXT ALA A  3        1.937  -0.350   1.318  0.00  0.00    -0.690 OA
ATOM     10  O   ALA A  3        0.115  -1.060   2.115  0.00  0.00    -0.690 OA
ENDBRANCH   7   8
ENDBRANCH   2   7
ENDBRANCH   1   4
BRANCH   1  11
ATOM     11  N   SER A  2       -3.978  -1.213  -2.505  0.00  0.00    -0.700 N 
ATOM     12  H   SER A  2       -3.606  -0.627  -3.183  0.00  0.00    +0.410 HD
ATOM     13  C   GLY A  1       -4.965  -2.072  -2.825  0.00  0.00    +0.510 C 
ATOM     14  O   GLY A  1       -5.430  -2.805  -1.978  0.00  0.00    -0.530 OA
BRANCH  13  15
ATOM     15  CA  GLY A  1       -5.493  -2.122  -4.236  0.00  0.00    +0.210 C 
BRANCH  15  16
ATOM     16  N   GLY A  1       -6.557  -3.131  -4.325  0.00  0.00    -0.830 NA
ATOM     17  H1  GLY A  1       -6.928  -3.184  -5.262  0.00  0.00    +0.350 HD
ATOM     18  H2  GLY A  1       -7.289  -2.945  -3.657  0.00  0.00    +0.350 HD
ENDBRANCH  15  16
ENDBRANCH  13  15
ENDBRANCH   1  11
BRANCH   1  19
ATOM     19  CB  SER A  2       -4.344  -0.237  -0.293  0.00  0.00    +0.190 C 
BRANCH  19  20
ATOM     20  OG  SER A  2       -4.234   1.100  -0.786  0.00  0.00    -0.560 OA
ATOM     21  H   SER A  2       -4.766   1.744  -0.299  0.00  0.00    +0.380 HD
ENDBRANCH  19  20
ENDBRANCH   1  19
TORSDOF 8
ENDMDL
MODEL       46
REMARK  Name = ZINC000001576024
REMARK                            x       y       z     vdW  Elec       q    Type
REMARK                         _______ _______ _______ _____ _____    ______ ____
ROOT
ATOM      1  CA  SER A  2        2.783  -1.099   2.395  0.00  0.00    +0.250 C 
ENDROOT
BRANCH   1   4
ATOM      2  N   ALA A  3        0.711  -0.489   1.189  0.00  0.00    -0.690 N 
ATOM      3  H   ALA A  3        0.213  -0.731   1.986  0.00  0.00    +0.400 HD
ATOM      4  C   SER A  2        2.054  -0.600   1.174  0.00  0.00    +0.510 C 
ATOM      5  O   SER A  2        2.676  -0.297   0.177  0.00  0.00    -0.550 OA
BRANCH   2   7
ATOM      6  CB  ALA A  3       -0.019   1.526   0.010  0.00  0.00    +0.020 C 
ATOM      7  CA  ALA A  3        0.002  -0.004   0.002  0.00  0.00    +0.150 C 
BRANCH   7   8
ATOM      8  C   ALA A  3       -1.412  -0.526   0.013  0.00  0.00    +0.500 C 
ATOM      9  OXT ALA A  3       -1.974  -0.742   1.073  0.00  0.00    -0.690 OA
ATOM     10  O   ALA A  3       -1.994  -0.731  -1.039  0.00  0.00    -0.690 OA
ENDBRANCH   7   8
ENDBRANCH   2   7
ENDBRANCH   1   4
BRANCH   1  11
ATOM     11  N   SER A  2        4.223  -1.127   2.126  0.00  0.00    -0.700 N 
ATOM     12  H   SER A  2        4.545  -1.208   1.215  0.00  0.00    +0.410 HD
ATOM     13  C   GLY A  1        5.100  -1.042   3.146  0.00  0.00    +0.510 C 
ATOM     14  O   GLY A  1        4.697  -0.941   4.285  0.00  0.00    -0.530 OA
BRANCH  13  15
ATOM     15  CA  GLY A  1        6.581  -1.071   2.869  0.00  0.00    +0.210 C 
BRANCH  15  16
ATOM     16  N   GLY A  1        7.317  -0.963   4.136  0.00  0.00    -0.830 NA
ATOM     17  H1  GLY A  1        8.314  -0.981   3.978  0.00  0.00    +0.350 HD
ATOM     18  H2  GLY A  1        7.041  -1.691   4.778  0.00  0.00    +0.350 HD
ENDBRANCH  15  16
ENDBRANCH  13  15
ENDBRANCH   1  11
BRANCH   1  19
ATOM     19  CB  SER A  2        2.300  -2.510   2.736  0.00  0.00    +0.200 C 
BRANCH  19  20
ATOM     20  OG  SER A  2        2.455  -3.356   1.594  0.00  0.00    -0.560 OA
ATOM     21  H   SER A  2        2.168  -4.268   1.738  0.00  0.00    +0.380 HD
ENDBRANCH  19  20
ENDBRANCH   1  19
TORSDOF 8
ENDMDL
MODEL       47
REMARK  Name = ZINC000008581213
REMARK                            x       y       z     vdW  Elec       q    Type
REMARK                         _______ _______ _______ _____ _____    ______ ____
ROOT
ATOM      1  C   LIG    1       -0.018   1.461   0.010  0.00  0.00    +0.340 C 
ATOM      2  N   LIG    1        0.002  -0.004   0.002  0.00  0.00    -0.510 N 
ATOM      3  C   LIG    1       -1.182  -0.696   0.004  0.00  0.00    +0.240 A 
ATOM      4  C   LIG    1       -1.152  -2.096  -0.004  0.00  0.00    -0.100 A 
ATOM      5  C   LIG    1        0.159  -2.761  -0.014  0.00  0.00    +0.600 A 
ATOM      6  N   LIG    1        1.268  -1.991  -0.015  0.00  0.00    -0.560 N 
ATOM      7  C   LIG    1        2.588  -2.627  -0.025  0.00  0.00    +0.350 C 
ATOM      8  O   LIG    1        0.242  -3.974  -0.021  0.00  0.00    -0.490 OA
ATOM      9  N   LIG    1       -2.414  -2.530   0.000  0.00  0.00    -0.380 NA
ATOM     10  C   LIG    1       -3.226  -1.498   0.010  0.00  0.00    +0.190 A 
ATOM     11  N   LIG    1       -2.482  -0.339   0.013  0.00  0.00    -0.520 N 
ATOM     12  H   LIG    1       -2.828   0.567   0.020  0.00  0.00    +0.430 HD
ATOM     13  C   LIG    1        1.180  -0.651  -0.013  0.00  0.00    +0.720 A 
ATOM     14  O   LIG    1        2.206   0.003  -0.014  0.00  0.00    -0.550 OA
ENDROOT
BRANCH  10  15
ATOM     15  C   LIG    1       -4.694  -1.568   0.018  0.00  0.00    +0.570 C 
ATOM     16  O   LIG    1       -5.356  -0.538   0.027  0.00  0.00    -0.680 OA
ATOM     17  O   LIG    1       -5.255  -2.655   0.015  0.00  0.00    -0.630 OA
ENDBRANCH  10  15
TORSDOF 1
ENDMDL
MODEL       48
REMARK  Name = ZINC000136658374
REMARK                            x       y       z     vdW  Elec       q    Type
REMARK                         _______ _______ _______ _____ _____    ______ ____
ROOT
ATOM      1  C   LIG    1        0.849  -2.021  -1.205  0.00  0.00    +0.230 C 
ATOM      2  C   LIG    1        1.750  -2.411  -0.061  0.00  0.00    +0.120 C 
ATOM      3  N   LIG    1        3.016  -2.578  -0.231  0.00  0.00    -0.370 NA
ATOM      4  C   LIG    1        3.598  -2.422  -1.454  0.00  0.00    -0.280 A 
ATOM      5  C   LIG    1        2.805  -2.395  -2.610  0.00  0.00    +0.470 A 
ATOM      6  N   LIG    1        3.374  -2.256  -3.804  0.00  0.00    -0.690 NA
ATOM      7  C   LIG    1        4.682  -2.133  -3.921  0.00  0.00    +0.620 A 
ATOM      8  N   LIG    1        5.503  -2.144  -2.837  0.00  0.00    -0.710 NA
ATOM      9  C   LIG    1        4.994  -2.287  -1.593  0.00  0.00    +0.550 A 
ATOM     10  O   LIG    1        5.724  -2.298  -0.616  0.00  0.00    -0.590 OA
ATOM     11  N   LIG    1        1.433  -2.508  -2.465  0.00  0.00    -0.720 N 
ATOM     12  H   LIG    1        0.882  -2.893  -3.164  0.00  0.00    +0.400 HD
ENDROOT
BRANCH   7  13
ATOM     13  N   LIG    1        5.228  -1.991  -5.169  0.00  0.00    -0.830 N 
ATOM     14  H   LIG    1        6.189  -1.900  -5.270  0.00  0.00    +0.400 HD
ATOM     15  H   LIG    1        4.655  -1.981  -5.951  0.00  0.00    +0.400 HD
ENDBRANCH   7  13
BRANCH   1  16
ATOM     16  C   LIG    1        0.718  -0.497  -1.257  0.00  0.00    +0.160 C 
BRANCH  16  18
ATOM     17  C   LIG    1       -0.019   1.526   0.010  0.00  0.00    +0.000 C 
ATOM     18  C   LIG    1        0.002  -0.004   0.002  0.00  0.00    +0.180 C 
BRANCH  18  19
ATOM     19  O   LIG    1        0.693  -0.477   1.160  0.00  0.00    -0.550 OA
ATOM     20  H   LIG    1        1.611  -0.180   1.219  0.00  0.00    +0.380 HD
ENDBRANCH  18  19
ENDBRANCH  16  18
BRANCH  16  21
ATOM     21  O   LIG    1        2.019   0.090  -1.326  0.00  0.00    -0.550 OA
ATOM     22  H   LIG    1        2.587  -0.122  -0.573  0.00  0.00    +0.370 HD
ENDBRANCH  16  21
ENDBRANCH   1  16
TORSDOF 5
ENDMDL
MODEL       49
REMARK  Name = ZINC000136658286
REMARK                            x       y       z     vdW  Elec       q    Type
REMARK                         _______ _______ _______ _____ _____    ______ ____
ROOT
ATOM      1  C   LIG    1        0.739  -2.027  -1.265  0.00  0.00    +0.240 C 
ATOM      2  C   LIG    1        1.440  -2.515  -2.507  0.00  0.00    +0.120 C 
ATOM      3  N   LIG    1        0.786  -2.787  -3.584  0.00  0.00    -0.360 NA
ATOM      4  C   LIG    1       -0.570  -2.659  -3.646  0.00  0.00    -0.260 A 
ATOM      5  C   LIG    1       -1.318  -2.541  -2.467  0.00  0.00    +0.440 A 
ATOM      6  N   LIG    1       -2.642  -2.428  -2.527  0.00  0.00    -0.690 NA
ATOM      7  C   LIG    1       -3.269  -2.416  -3.687  0.00  0.00    +0.610 A 
ATOM      8  N   LIG    1       -2.597  -2.518  -4.866  0.00  0.00    -0.710 NA
ATOM      9  C   LIG    1       -1.251  -2.641  -4.879  0.00  0.00    +0.550 A 
ATOM     10  O   LIG    1       -0.642  -2.733  -5.932  0.00  0.00    -0.590 OA
ATOM     11  N   LIG    1       -0.641  -2.539  -1.259  0.00  0.00    -0.720 N 
ATOM     12  H   LIG    1       -1.059  -2.861  -0.445  0.00  0.00    +0.400 HD
ENDROOT
BRANCH   7  13
ATOM     13  N   LIG    1       -4.633  -2.297  -3.707  0.00  0.00    -0.830 N 
ATOM     14  H   LIG    1       -5.107  -2.287  -4.553  0.00  0.00    +0.400 HD
ATOM     15  H   LIG    1       -5.125  -2.223  -2.874  0.00  0.00    +0.400 HD
ENDBRANCH   7  13
BRANCH   1  16
ATOM     16  C   LIG    1        0.718  -0.497  -1.257  0.00  0.00    +0.170 C 
BRANCH  16  18
ATOM     17  C   LIG    1       -0.019   1.526   0.010  0.00  0.00    +0.010 C 
ATOM     18  C   LIG    1        0.002  -0.004   0.002  0.00  0.00    +0.170 C 
BRANCH  18  19
ATOM     19  O   LIG    1        0.693  -0.477   1.160  0.00  0.00    -0.560 OA
ATOM     20  H   LIG    1        1.611  -0.180   1.219  0.00  0.00    +0.370 HD
ENDBRANCH  18  19
ENDBRANCH  16  18
BRANCH  16  21
ATOM     21  O   LIG    1        0.027  -0.024  -2.414  0.00  0.00    -0.540 OA
ATOM     22  H   LIG    1       -0.891  -0.322  -2.473  0.00  0.00    +0.370 HD
ENDBRANCH  16  21
ENDBRANCH   1  16
TORSDOF 5
ENDMDL
MODEL       50
REMARK  Name = ZINC000214657175
REMARK                            x       y       z     vdW  Elec       q    Type
REMARK                         _______ _______ _______ _____ _____    ______ ____
ROOT
ATOM      1  C   LIG    1        0.002  -0.004   0.002  0.00  0.00    +0.480 A 
ATOM      2  C   LIG    1       -1.253  -0.751   0.004  0.00  0.00    -0.070 A 
ATOM      3  N   LIG    1       -2.540  -0.393   0.012  0.00  0.00    -0.470 NA
ATOM      4  C   LIG    1       -3.279  -1.487   0.009  0.00  0.00    +0.310 C 
ATOM      5  N   LIG    1       -2.508  -2.559  -0.001  0.00  0.00    -0.470 NA
ATOM      6  C   LIG    1       -1.232  -2.162  -0.004  0.00  0.00    -0.070 A 
ATOM      7  C   LIG    1        0.045  -2.872  -0.014  0.00  0.00    +0.480 A 
ATOM      8  C   LIG    1        1.312  -2.113  -0.016  0.00  0.00    +0.050 A 
ATOM      9  N   LIG    1        2.486  -2.790  -0.026  0.00  0.00    -0.640 NA
ATOM     10  C   LIG    1        3.647  -2.127  -0.028  0.00  0.00    +0.420 C 
ATOM     11  C   LIG    1        3.625  -0.642  -0.019  0.00  0.00    +0.420 C 
ATOM     12  N   LIG    1        2.445  -0.013  -0.010  0.00  0.00    -0.640 NA
ATOM     13  O   LIG    1        4.665  -0.008  -0.021  0.00  0.00    -0.570 OA
ATOM     14  O   LIG    1        4.705  -2.731  -0.037  0.00  0.00    -0.570 OA
ATOM     15  C   LIG    1        1.292  -0.725  -0.014  0.00  0.00    +0.050 A 
ENDROOT
BRANCH   1  16
ATOM     16  N   LIG    1       -0.016   1.341   0.009  0.00  0.00    -0.710 N 
ATOM     17  H   LIG    1       -0.863   1.815   0.016  0.00  0.00    +0.420 HD
ATOM     18  H   LIG    1        0.817   1.838   0.004  0.00  0.00    +0.430 HD
ENDBRANCH   1  16
BRANCH   7  19
ATOM     19  N   LIG    1        0.066  -4.217  -0.022  0.00  0.00    -0.710 N 
ATOM     20  H   LIG    1        0.914  -4.689  -0.028  0.00  0.00    +0.430 HD
ATOM     21  H   LIG    1       -0.766  -4.716  -0.021  0.00  0.00    +0.420 HD
ENDBRANCH   7  19
TORSDOF 2
ENDMDL
MODEL       51
REMARK  Name = ZINC000001576025
REMARK                            x       y       z     vdW  Elec       q    Type
REMARK                         _______ _______ _______ _____ _____    ______ ____
ROOT
ATOM      1  CA  SER A  2       -3.465  -1.164  -1.134  0.00  0.00    +0.250 C 
ENDROOT
BRANCH   1   4
ATOM      2  N   ALA A  3       -1.372  -0.511   0.012  0.00  0.00    -0.690 N 
ATOM      3  H   ALA A  3       -1.794  -0.752   0.852  0.00  0.00    +0.410 HD
ATOM      4  C   SER A  2       -2.051  -0.643  -1.145  0.00  0.00    +0.510 C 
ATOM      5  O   SER A  2       -1.524  -0.341  -2.194  0.00  0.00    -0.550 OA
BRANCH   2   7
ATOM      6  CB  ALA A  3       -0.019   1.526   0.010  0.00  0.00    +0.030 C 
ATOM      7  CA  ALA A  3        0.002  -0.004   0.002  0.00  0.00    +0.150 C 
BRANCH   7   8
ATOM      8  C   ALA A  3        0.731  -0.503   1.223  0.00  0.00    +0.500 C 
ATOM      9  OXT ALA A  3        1.937  -0.350   1.318  0.00  0.00    -0.690 OA
ATOM     10  O   ALA A  3        0.115  -1.060   2.115  0.00  0.00    -0.690 OA
ENDBRANCH   7   8
ENDBRANCH   2   7
ENDBRANCH   1   4
BRANCH   1  11
ATOM     11  N   SER A  2       -3.978  -1.213  -2.505  0.00  0.00    -0.700 N 
ATOM     12  H   SER A  2       -3.362  -1.290  -3.251  0.00  0.00    +0.410 HD
ATOM     13  C   GLY A  1       -5.305  -1.151  -2.731  0.00  0.00    +0.510 C 
ATOM     14  O   GLY A  1       -6.075  -1.054  -1.799  0.00  0.00    -0.530 OA
BRANCH  13  15
ATOM     15  CA  GLY A  1       -5.832  -1.201  -4.142  0.00  0.00    +0.210 C 
BRANCH  15  16
ATOM     16  N   GLY A  1       -7.299  -1.116  -4.119  0.00  0.00    -0.830 NA
ATOM     17  H1  GLY A  1       -7.677  -1.148  -5.054  0.00  0.00    +0.350 HD
ATOM     18  H2  GLY A  1       -7.606  -0.287  -3.633  0.00  0.00    +0.350 HD
ENDBRANCH  15  16
ENDBRANCH  13  15
ENDBRANCH   1  11
BRANCH   1  19
ATOM     19  CB  SER A  2       -3.485  -2.571  -0.532  0.00  0.00    +0.200 C 
BRANCH  19  20
ATOM     20  OG  SER A  2       -2.574  -3.408  -1.246  0.00  0.00    -0.560 OA
ATOM     21  H   SER A  2       -2.535  -4.317  -0.918  0.00  0.00    +0.380 HD
ENDBRANCH  19  20
ENDBRANCH   1  19
TORSDOF 8
ENDMDL
MODEL       52
REMARK  Name = ZINC000001591036
REMARK                            x       y       z     vdW  Elec       q    Type
REMARK                         _______ _______ _______ _____ _____    ______ ____
ROOT
ATOM      1  N   UNK A  3       -0.605  -2.548   1.364  0.00  0.00    -0.690 N 
ATOM      2  H   UNK A  3       -1.286  -2.004   1.789  0.00  0.00    +0.390 HD
ATOM      3  C   GLY A  2       -0.918  -3.772   0.893  0.00  0.00    +0.510 C 
ATOM      4  O   GLY A  2       -0.066  -4.453   0.362  0.00  0.00    -0.550 OA
ENDROOT
BRANCH   1   5
ATOM      5  C   UNK A  3        0.763  -2.041   1.233  0.00  0.00    +0.150 C 
BRANCH   5   6
ATOM      6  C   UNK A  3        1.596  -2.538   2.386  0.00  0.00    +0.490 C 
ATOM      7  O   UNK A  3        2.805  -2.384   2.376  0.00  0.00    -0.700 OA
ATOM      8  O   UNK A  3        1.060  -3.094   3.330  0.00  0.00    -0.690 OA
ENDBRANCH   5   6
BRANCH   5   9
ATOM      9  C   UNK A  3        0.742  -0.511   1.242  0.00  0.00    +0.030 C 
BRANCH   9  11
ATOM     10  C   UNK A  3       -0.019   1.526   0.010  0.00  0.00    +0.000 C 
ATOM     11  C   UNK A  3        0.002  -0.004   0.002  0.00  0.00    +0.000 C 
ENDBRANCH   9  11
ENDBRANCH   5   9
ENDBRANCH   1   5
BRANCH   3  12
ATOM     12  CA  GLY A  2       -2.325  -4.294   1.028  0.00  0.00    +0.290 C 
BRANCH  12  13
ATOM     13  N   GLY A  2       -2.406  -5.635   0.444  0.00  0.00    -0.710 N 
ATOM     14  H   GLY A  2       -1.617  -6.043   0.052  0.00  0.00    +0.410 HD
ATOM     15  C   GLY A  1       -3.576  -6.303   0.450  0.00  0.00    +0.510 C 
ATOM     16  O   GLY A  1       -4.563  -5.795   0.939  0.00  0.00    -0.530 OA
BRANCH  15  17
ATOM     17  CA  GLY A  1       -3.660  -7.683  -0.151  0.00  0.00    +0.210 C 
BRANCH  17  18
ATOM     18  N   GLY A  1       -5.032  -8.192  -0.020  0.00  0.00    -0.830 NA
ATOM     19  H1  GLY A  1       -5.330  -8.184   0.944  0.00  0.00    +0.350 HD
ATOM     20  H2  GLY A  1       -5.114  -9.117  -0.416  0.00  0.00    +0.350 HD
ENDBRANCH  17  18
ENDBRANCH  15  17
ENDBRANCH  12  13
ENDBRANCH   3  12
TORSDOF 8
ENDMDL
MODEL       53
REMARK  Name = ZINC000001637993
REMARK                            x       y       z     vdW  Elec       q    Type
REMARK                         _______ _______ _______ _____ _____    ______ ____
ROOT
ATOM      1  CA  PRO A  2       -3.442  -1.177   1.191  0.00  0.00    +0.220 C 
ATOM      2  CB  PRO A  2       -4.362  -0.216   0.409  0.00  0.00    +0.050 C 
ATOM      3  CG  PRO A  2       -5.667  -0.224   1.248  0.00  0.00    +0.040 C 
ATOM      4  CD  PRO A  2       -5.110  -0.338   2.689  0.00  0.00    +0.250 C 
ATOM      5  N   PRO A  2       -3.943  -1.237   2.573  0.00  0.00    -0.610 N 
ATOM      6  C   GLY A  1       -3.424  -1.984   3.567  0.00  0.00    +0.530 C 
ATOM      7  O   GLY A  1       -2.460  -2.689   3.357  0.00  0.00    -0.510 OA
ENDROOT
BRANCH   1  10
ATOM      8  N   ALA A  3       -1.372  -0.511   0.012  0.00  0.00    -0.690 N 
ATOM      9  H   ALA A  3       -1.810  -0.743  -0.822  0.00  0.00    +0.400 HD
ATOM     10  C   PRO A  2       -2.029  -0.655   1.181  0.00  0.00    +0.500 C 
ATOM     11  O   PRO A  2       -1.481  -0.365   2.224  0.00  0.00    -0.540 OA
BRANCH   8  13
ATOM     12  CB  ALA A  3       -0.019   1.526   0.010  0.00  0.00    +0.010 C 
ATOM     13  CA  ALA A  3        0.002  -0.004   0.002  0.00  0.00    +0.150 C 
BRANCH  13  14
ATOM     14  C   ALA A  3        0.707  -0.490  -1.238  0.00  0.00    +0.500 C 
ATOM     15  OXT ALA A  3        0.074  -1.038  -2.124  0.00  0.00    -0.690 OA
ATOM     16  O   ALA A  3        1.911  -0.336  -1.354  0.00  0.00    -0.690 OA
ENDBRANCH  13  14
ENDBRANCH   8  13
ENDBRANCH   1  10
BRANCH   6  17
ATOM     17  CA  GLY A  1       -4.043  -1.944   4.941  0.00  0.00    +0.200 C 
BRANCH  17  18
ATOM     18  N   GLY A  1       -3.301  -2.839   5.839  0.00  0.00    -0.830 NA
ATOM     19  H1  GLY A  1       -3.696  -2.829   6.767  0.00  0.00    +0.350 HD
ATOM     20  H2  GLY A  1       -2.321  -2.598   5.861  0.00  0.00    +0.350 HD
ENDBRANCH  17  18
ENDBRANCH   6  17
TORSDOF 5
ENDMDL
MODEL       54
REMARK  Name = ZINC000017013083
REMARK                            x       y       z     vdW  Elec       q    Type
REMARK                         _______ _______ _______ _____ _____    ______ ____
ROOT
ATOM      1  C   LIG    1        0.002  -0.004   0.002  0.00  0.00    +0.600 A 
ATOM      2  N   LIG    1       -1.137  -0.664   0.004  0.00  0.00    -0.710 NA
ATOM      3  C   LIG    1       -1.162  -2.002  -0.003  0.00  0.00    +0.480 A 
ATOM      4  C   LIG    1        0.030  -2.712  -0.013  0.00  0.00    -0.480 A 
ATOM      5  C   LIG    1        1.235  -2.003  -0.015  0.00  0.00    +0.520 A 
ATOM      6  O   LIG    1        2.304  -2.594  -0.023  0.00  0.00    -0.550 OA
ATOM      7  N   LIG    1        1.198  -0.654  -0.013  0.00  0.00    -0.720 NA
ENDROOT
BRANCH   1   8
ATOM      8  N   LIG    1       -0.017   1.365   0.009  0.00  0.00    -0.840 N 
ATOM      9  H   LIG    1       -0.863   1.839   0.016  0.00  0.00    +0.390 HD
ATOM     10  H   LIG    1        0.817   1.861   0.004  0.00  0.00    +0.400 HD
ENDBRANCH   1   8
BRANCH   3  11
ATOM     11  N   LIG    1       -2.368  -2.673  -0.002  0.00  0.00    -0.860 N 
ATOM     12  H   LIG    1       -2.384  -3.643  -0.007  0.00  0.00    +0.390 HD
ATOM     13  H   LIG    1       -3.200  -2.174   0.005  0.00  0.00    +0.390 HD
ENDBRANCH   3  11
BRANCH   4  14
ATOM     14  C   LIG    1        0.026  -4.219  -0.021  0.00  0.00    +0.380 C 
BRANCH  14  15
ATOM     15  N   LIG    1        0.139  -4.700  -1.401  0.00  0.00    -0.550 N 
ATOM     16  C   LIG    1       -0.990  -4.970  -2.304  0.00  0.00    +0.240 C 
ATOM     17  C   LIG    1       -0.316  -5.445  -3.606  0.00  0.00    +0.240 C 
ATOM     18  N   LIG    1        1.121  -5.392  -3.298  0.00  0.00    -0.700 N 
ATOM     19  H   LIG    1        1.836  -5.630  -3.909  0.00  0.00    +0.430 HD
ATOM     20  C   LIG    1        1.286  -4.958  -2.042  0.00  0.00    +0.540 C 
ATOM     21  S   LIG    1        2.825  -4.762  -1.316  0.00  0.00    -0.580 S 
ENDBRANCH  14  15
ENDBRANCH   4  14
TORSDOF 4
ENDMDL
MODEL       55
REMARK  Name = ZINC000002522559
REMARK                            x       y       z     vdW  Elec       q    Type
REMARK                         _______ _______ _______ _____ _____    ______ ____
ROOT
ATOM      1  CA  ALA A  2       -3.465  -1.164  -1.134  0.00  0.00    +0.240 C 
ATOM      2  CB  ALA A  2       -3.485  -2.571  -0.532  0.00  0.00    +0.050 C 
ENDROOT
BRANCH   1   5
ATOM      3  N   ALA A  3       -1.372  -0.511   0.012  0.00  0.00    -0.690 N 
ATOM      4  H   ALA A  3       -1.794  -0.752   0.852  0.00  0.00    +0.410 HD
ATOM      5  C   ALA A  2       -2.051  -0.643  -1.145  0.00  0.00    +0.500 C 
ATOM      6  O   ALA A  2       -1.524  -0.341  -2.194  0.00  0.00    -0.560 OA
BRANCH   3   8
ATOM      7  CB  ALA A  3       -0.019   1.526   0.010  0.00  0.00    +0.020 C 
ATOM      8  CA  ALA A  3        0.002  -0.004   0.002  0.00  0.00    +0.150 C 
BRANCH   8   9
ATOM      9  C   ALA A  3        0.731  -0.503   1.223  0.00  0.00    +0.500 C 
ATOM     10  OXT ALA A  3        1.935  -0.690   1.180  0.00  0.00    -0.690 OA
ATOM     11  O   ALA A  3        0.117  -0.721   2.253  0.00  0.00    -0.690 OA
ENDBRANCH   8   9
ENDBRANCH   3   8
ENDBRANCH   1   5
BRANCH   1  12
ATOM     12  N   ALA A  2       -3.978  -1.213  -2.505  0.00  0.00    -0.710 N 
ATOM     13  H   ALA A  2       -3.362  -1.290  -3.251  0.00  0.00    +0.410 HD
ATOM     14  C   GLY A  1       -5.305  -1.151  -2.731  0.00  0.00    +0.510 C 
ATOM     15  O   GLY A  1       -6.075  -1.054  -1.799  0.00  0.00    -0.530 OA
BRANCH  14  16
ATOM     16  CA  GLY A  1       -5.832  -1.201  -4.142  0.00  0.00    +0.210 C 
BRANCH  16  17
ATOM     17  N   GLY A  1       -7.299  -1.116  -4.119  0.00  0.00    -0.830 NA
ATOM     18  H1  GLY A  1       -7.694  -1.845  -3.544  0.00  0.00    +0.350 HD
ATOM     19  H2  GLY A  1       -7.677  -1.148  -5.054  0.00  0.00    +0.350 HD
ENDBRANCH  16  17
ENDBRANCH  14  16
ENDBRANCH   1  12
TORSDOF 6
ENDMDL
