REMARK  Name = ZINCpe00000z3TmH.0
REMARK                            x       y       z     vdW  Elec       q    Type
REMARK                         _______ _______ _______ _____ _____    ______ ____
ROOT
ATOM      1  C   LIG    1       -0.402   3.748   2.069  0.00  0.00    +0.520 C 
ATOM      2  N   LIG    1       -0.556   3.003   0.956  0.00  0.00    -0.610 N 
ATOM      3  C   LIG    1       -0.184   1.581   0.954  0.00  0.00    +0.270 C 
ATOM      4  C   LIG    1        0.809   1.336  -0.190  0.00  0.00    +0.270 C 
ATOM      5  N   LIG    1        0.270   1.933  -1.420  0.00  0.00    -0.630 N 
ATOM      6  C   LIG    1       -0.099   3.356  -1.415  0.00  0.00    +0.290 C 
ATOM      7  C   LIG    1       -1.095   3.600  -0.274  0.00  0.00    +0.270 C 
ATOM      8  O   LIG    1        0.114   3.265   3.055  0.00  0.00    -0.530 OA
ENDROOT
BRANCH   1  17
ATOM      9  C   LIG    1        1.022   8.505   4.729  0.00  0.00    +0.150 C 
ATOM     10  C   LIG    1       -0.308   8.409   4.028  0.00  0.00    +0.090 A 
ATOM     11  N   LIG    1       -1.198   9.366   3.931  0.00  0.00    -0.290 NA
ATOM     12  N   LIG    1       -2.294   8.876   3.205  0.00  0.00    -0.470 N 
ATOM     13  H   LIG    1       -3.099   9.370   2.981  0.00  0.00    +0.440 HD
ATOM     14  C   LIG    1       -2.031   7.600   2.875  0.00  0.00    +0.080 A 
ATOM     15  C   LIG    1       -2.901   6.643   2.100  0.00  0.00    +0.120 C 
ATOM     16  C   LIG    1       -2.381   5.219   2.333  0.00  0.00    +0.060 C 
ATOM     17  C   LIG    1       -0.870   5.180   2.088  0.00  0.00    -0.010 C 
ATOM     18  C   LIG    1       -0.150   5.938   3.210  0.00  0.00    +0.150 C 
ATOM     19  C   LIG    1       -0.807   7.286   3.371  0.00  0.00    -0.230 A 
ENDBRANCH   1  17
BRANCH   5  20
ATOM     20  C   LIG    1        0.113   1.173  -2.556  0.00  0.00    +0.440 A 
ATOM     21  C   LIG    1        0.266   1.756  -3.796  0.00  0.00    -0.160 A 
ATOM     22  C   LIG    1        0.111   0.983  -4.945  0.00  0.00    +0.160 A 
ATOM     23  C   LIG    1       -0.204  -0.354  -4.821  0.00  0.00    -0.150 A 
ATOM     24  C   LIG    1       -0.356  -0.911  -3.546  0.00  0.00    +0.530 A 
ATOM     25  O   LIG    1       -0.635  -2.094  -3.430  0.00  0.00    -0.560 OA
ATOM     26  N   LIG    1       -0.198  -0.149  -2.448  0.00  0.00    -0.620 N 
ATOM     27  H   LIG    1       -0.306  -0.546  -1.570  0.00  0.00    +0.410 HD
ENDBRANCH   5  20
TORSDOF 2
