REMARK  Name = ZINCpe00000z3TmH.1
REMARK                            x       y       z     vdW  Elec       q    Type
REMARK                         _______ _______ _______ _____ _____    ______ ____
ROOT
ATOM      1  C   LIG    1       -1.262   0.837   2.161  0.00  0.00    +0.520 C 
ATOM      2  N   LIG    1       -1.136   1.602   1.058  0.00  0.00    -0.610 N 
ATOM      3  C   LIG    1       -0.623   1.030  -0.194  0.00  0.00    +0.280 C 
ATOM      4  C   LIG    1       -1.642   1.290  -1.310  0.00  0.00    +0.290 C 
ATOM      5  N   LIG    1       -2.017   2.711  -1.282  0.00  0.00    -0.630 N 
ATOM      6  C   LIG    1       -2.535   3.282  -0.031  0.00  0.00    +0.270 C 
ATOM      7  C   LIG    1       -1.515   3.022   1.085  0.00  0.00    +0.270 C 
ATOM      8  O   LIG    1       -1.757   1.300   3.167  0.00  0.00    -0.530 OA
ENDROOT
BRANCH   1  13
ATOM      9  C   LIG    1       -2.590  -3.960   4.731  0.00  0.00    +0.140 C 
ATOM     10  C   LIG    1       -1.282  -3.832   3.992  0.00  0.00    +0.100 A 
ATOM     11  C   LIG    1       -0.823  -2.728   3.375  0.00  0.00    -0.240 A 
ATOM     12  C   LIG    1       -1.481  -1.374   3.267  0.00  0.00    +0.130 C 
ATOM     13  C   LIG    1       -0.787  -0.593   2.144  0.00  0.00    +0.000 C 
ATOM     14  C   LIG    1        0.729  -0.629   2.350  0.00  0.00    +0.050 C 
ATOM     15  C   LIG    1        1.260  -2.035   2.044  0.00  0.00    +0.140 C 
ATOM     16  C   LIG    1        0.428  -3.032   2.814  0.00  0.00    +0.080 A 
ATOM     17  N   LIG    1        0.705  -4.274   3.084  0.00  0.00    -0.290 NA
ATOM     18  N   LIG    1       -0.359  -4.806   3.829  0.00  0.00    -0.480 N 
ATOM     19  H   LIG    1       -0.421  -5.713   4.167  0.00  0.00    +0.440 HD
ENDBRANCH   1  13
BRANCH   5  20
ATOM     20  C   LIG    1       -1.886   3.492  -2.407  0.00  0.00    +0.440 A 
ATOM     21  C   LIG    1       -2.061   2.931  -3.654  0.00  0.00    -0.160 A 
ATOM     22  C   LIG    1       -1.931   3.726  -4.792  0.00  0.00    +0.160 A 
ATOM     23  C   LIG    1       -1.619   5.061  -4.649  0.00  0.00    -0.150 A 
ATOM     24  C   LIG    1       -1.443   5.596  -3.368  0.00  0.00    +0.530 A 
ATOM     25  O   LIG    1       -1.167   6.778  -3.235  0.00  0.00    -0.560 OA
ATOM     26  N   LIG    1       -1.578   4.813  -2.281  0.00  0.00    -0.620 N 
ATOM     27  H   LIG    1       -1.453   5.194  -1.398  0.00  0.00    +0.410 HD
ENDBRANCH   5  20
TORSDOF 2
