REMARK  Name = ZINCrD00000F5LuO.0
REMARK                            x       y       z     vdW  Elec       q    Type
REMARK                         _______ _______ _______ _____ _____    ______ ____
ROOT
ATOM      1  C   LIG    1       -3.922  11.523   5.704  0.00  0.00    -0.710 A 
ATOM      2  C   LIG    1       -3.774  10.155   5.692  0.00  0.00    +0.210 A 
ATOM      3  C   LIG    1       -3.138   9.532   4.611  0.00  0.00    -0.140 A 
ATOM      4  C   LIG    1       -2.652  10.305   3.550  0.00  0.00    +0.140 A 
ATOM      5  C   LIG    1       -2.810  11.673   3.570  0.00  0.00    -0.080 A 
ATOM      6  C   LIG    1       -3.442  12.286   4.646  0.00  0.00    +0.240 A 
ENDROOT
BRANCH   1   7
ATOM      7  S   LIG    1       -4.722  12.308   7.063  0.00  0.00    +2.700 S 
ATOM      8  O   LIG    1       -5.061  11.277   7.980  0.00  0.00    -0.960 OA
ATOM      9  O   LIG    1       -5.680  13.198   6.506  0.00  0.00    -0.940 OA
BRANCH   7  10
ATOM     10  N   LIG    1       -3.591  13.253   7.819  0.00  0.00    -1.110 NA
ATOM     11  H   LIG    1       -3.315  13.047   8.726  0.00  0.00    +0.420 HD
BRANCH  10  13
ATOM     12  C   LIG    1       -2.297  15.306   8.125  0.00  0.00    +0.030 C 
ATOM     13  C   LIG    1       -3.007  14.399   7.117  0.00  0.00    +0.270 C 
ENDBRANCH  10  13
ENDBRANCH   7  10
ENDBRANCH   1   7
BRANCH   3  14
ATOM     14  C   LIG    1       -2.977   8.071   4.593  0.00  0.00    +0.170 C 
ATOM     15  C   LIG    1       -2.363   7.472   3.549  0.00  0.00    -0.080 C 
BRANCH  15  16
ATOM     16  C   LIG    1       -2.207   6.063   3.531  0.00  0.00    +0.500 C 
ATOM     17  O   LIG    1       -2.626   5.393   4.456  0.00  0.00    -0.510 OA
BRANCH  16  18
ATOM     18  O   LIG    1       -1.594   5.465   2.488  0.00  0.00    -0.350 OA
BRANCH  18  19
ATOM     19  C   LIG    1       -1.472   4.042   2.537  0.00  0.00    +0.210 C 
BRANCH  19  20
ATOM     20  C   LIG    1       -0.756   3.549   1.278  0.00  0.00    -0.010 C 
ATOM     21  C   LIG    1        0.680   4.079   1.267  0.00  0.00    +0.020 C 
ATOM     22  C   LIG    1        1.396   3.585   0.008  0.00  0.00    +0.000 C 
ATOM     23  C   LIG    1        1.417   2.055  -0.000  0.00  0.00    +0.000 C 
ATOM     24  C   LIG    1       -0.019   1.526   0.010  0.00  0.00    -0.020 C 
ATOM     25  C   LIG    1        0.002  -0.004   0.002  0.00  0.00    +0.020 C 
ATOM     26  C   LIG    1       -0.735   2.019   1.269  0.00  0.00    +0.030 C 
ENDBRANCH  19  20
ENDBRANCH  18  19
ENDBRANCH  16  18
ENDBRANCH  15  16
ENDBRANCH   3  14
BRANCH   6  27
ATOM     27  O   LIG    1       -3.590  13.635   4.663  0.00  0.00    -0.310 OA
ATOM     28  C   LIG    1       -3.074  14.359   3.544  0.00  0.00    +0.270 C 
ENDBRANCH   6  27
TORSDOF 9
