REMARK  Name = ZINCvU00000005Ni.0
REMARK                            x       y       z     vdW  Elec       q    Type
REMARK                         _______ _______ _______ _____ _____    ______ ____
ROOT
ATOM      1  C   LIG    1        1.714   3.671   0.372  0.00  0.00    -1.070 C 
ATOM      2  P   LIG    1        0.237   4.229   0.038  0.00  0.00    +3.110 P 
ENDROOT
BRANCH   1   3
ATOM      3  C   LIG    1        1.935   2.920   1.540  0.00  0.00    +0.390 A 
ATOM      4  N   LIG    1        1.036   2.693   2.485  0.00  0.00    -0.510 NA
ATOM      5  C   LIG    1        1.576   1.943   3.454  0.00  0.00    +0.070 A 
ATOM      6  C   LIG    1        1.077   1.424   4.660  0.00  0.00    +0.060 A 
ATOM      7  C   LIG    1        1.885   0.674   5.463  0.00  0.00    +0.010 A 
ATOM      8  C   LIG    1        3.203   0.416   5.103  0.00  0.00    +0.020 A 
ATOM      9  C   LIG    1        3.719   0.914   3.924  0.00  0.00    +0.010 A 
ATOM     10  C   LIG    1        2.917   1.679   3.090  0.00  0.00    +0.030 A 
ATOM     11  N   LIG    1        3.120   2.306   1.879  0.00  0.00    -0.600 N 
ATOM     12  H   LIG    1        3.942   2.312   1.363  0.00  0.00    +0.420 HD
ENDBRANCH   1   3
BRANCH   2  13
ATOM     13  C   LIG    1       -0.940   3.595   1.265  0.00  0.00    -0.760 A 
ATOM     14  C   LIG    1       -1.575   4.467   2.129  0.00  0.00    +0.080 A 
ATOM     15  C   LIG    1       -2.475   3.985   3.060  0.00  0.00    -0.010 A 
ATOM     16  C   LIG    1       -2.733   2.628   3.134  0.00  0.00    +0.050 A 
ATOM     17  C   LIG    1       -2.094   1.756   2.274  0.00  0.00    -0.010 A 
ATOM     18  C   LIG    1       -1.197   2.239   1.339  0.00  0.00    +0.120 A 
ENDBRANCH   2  13
BRANCH   2  19
ATOM     19  C   LIG    1       -0.259   3.677  -1.617  0.00  0.00    -0.780 A 
ATOM     20  C   LIG    1       -1.388   4.206  -2.213  0.00  0.00    +0.070 A 
ATOM     21  C   LIG    1       -1.763   3.789  -3.476  0.00  0.00    +0.000 A 
ATOM     22  C   LIG    1       -1.015   2.835  -4.139  0.00  0.00    +0.060 A 
ATOM     23  C   LIG    1        0.111   2.301  -3.541  0.00  0.00    +0.000 A 
ATOM     24  C   LIG    1        0.489   2.722  -2.280  0.00  0.00    +0.120 A 
ENDBRANCH   2  19
BRANCH   2  25
ATOM     25  C   LIG    1        0.249   6.042   0.093  0.00  0.00    -0.770 A 
ATOM     26  C   LIG    1       -0.248   6.769  -0.973  0.00  0.00    +0.100 A 
ATOM     27  C   LIG    1       -0.243   8.150  -0.930  0.00  0.00    +0.000 A 
ATOM     28  C   LIG    1        0.267   8.805   0.175  0.00  0.00    +0.060 A 
ATOM     29  C   LIG    1        0.769   8.079   1.239  0.00  0.00    +0.000 A 
ATOM     30  C   LIG    1        0.759   6.697   1.198  0.00  0.00    +0.090 A 
ENDBRANCH   2  25
BRANCH   1  32
ATOM     31  S   LIG    1        2.538   4.981  -1.831  0.00  0.00    -0.620 S 
ATOM     32  C   LIG    1        2.768   3.933  -0.497  0.00  0.00    +0.290 C 
ENDBRANCH   1  32
TORSDOF 5
