REMARK  Name = ZINCqH0000038VoZ.0
REMARK                            x       y       z     vdW  Elec       q    Type
REMARK                         _______ _______ _______ _____ _____    ______ ____
ROOT
ATOM      1  N   LIG    1        3.615  -0.710  -0.038  0.00  0.00    -0.670 N 
ATOM      2  H   LIG    1        4.453  -0.227  -0.108  0.00  0.00    +0.410 HD
ATOM      3  C   LIG    1        3.618  -2.054   0.056  0.00  0.00    +0.520 C 
ATOM      4  O   LIG    1        2.569  -2.664   0.063  0.00  0.00    -0.510 OA
ENDROOT
BRANCH   1  10
ATOM      5  C   LIG    1        0.293   4.168   1.455  0.00  0.00    +0.310 C 
ATOM      6  N   LIG    1        1.310   3.138   1.230  0.00  0.00    -0.490 N 
ATOM      7  C   LIG    1        2.614   3.216   1.641  0.00  0.00    +0.220 A 
ATOM      8  C   LIG    1        3.276   2.107   1.275  0.00  0.00    -0.060 A 
ATOM      9  C   LIG    1        2.319   1.250   0.573  0.00  0.00    -0.130 A 
ATOM     10  C   LIG    1        2.404  -0.011  -0.033  0.00  0.00    +0.190 A 
ATOM     11  C   LIG    1        1.282  -0.559  -0.627  0.00  0.00    -0.010 A 
ATOM     12  C   LIG    1        0.080   0.133  -0.624  0.00  0.00    +0.050 A 
ATOM     13  C   LIG    1       -0.017   1.373  -0.031  0.00  0.00    -0.020 A 
ATOM     14  C   LIG    1        1.098   1.946   0.573  0.00  0.00    +0.110 A 
ENDBRANCH   1  10
BRANCH   3  15
ATOM     15  C   LIG    1        4.924  -2.800   0.152  0.00  0.00    +0.000 C 
ATOM     16  C   LIG    1        5.768  -2.513  -1.092  0.00  0.00    +0.030 C 
ATOM     17  C   LIG    1        7.108  -3.245  -0.975  0.00  0.00    +0.290 C 
ATOM     18  N   LIG    1        6.849  -4.672  -0.738  0.00  0.00    -0.600 N 
ATOM     19  C   LIG    1        5.975  -5.055   0.380  0.00  0.00    +0.300 C 
ATOM     20  C   LIG    1        7.402  -5.611  -1.530  0.00  0.00    +0.650 C 
ATOM     21  O   LIG    1        7.180  -6.788  -1.323  0.00  0.00    -0.570 OA
ATOM     22  C   LIG    1        4.647  -4.303   0.247  0.00  0.00    +0.050 C 
BRANCH  20  23
ATOM     23  O   LIG    1        8.201  -5.246  -2.550  0.00  0.00    -0.360 OA
BRANCH  23  24
ATOM     24  C   LIG    1        8.763  -6.311  -3.362  0.00  0.00    +0.140 C 
ATOM     25  C   LIG    1        9.614  -7.229  -2.481  0.00  0.00    +0.040 C 
ATOM     26  C   LIG    1        9.636  -5.707  -4.463  0.00  0.00    +0.080 C 
ATOM     27  C   LIG    1        7.630  -7.120  -3.996  0.00  0.00    +0.040 C 
ENDBRANCH  23  24
ENDBRANCH  20  23
ENDBRANCH   3  15
TORSDOF 4
