REMARK  Name = ZINCrg000000tcKa.0
REMARK                            x       y       z     vdW  Elec       q    Type
REMARK                         _______ _______ _______ _____ _____    ______ ____
ROOT
ATOM      1  N   LIG    1       -1.037   6.034   1.353  0.00  0.00    -0.520 NA
ATOM      2  C   LIG    1        0.401   6.322   1.269  0.00  0.00    +0.170 C 
ATOM      3  C   LIG    1        0.993   5.599   0.055  0.00  0.00    +0.300 C 
ATOM      4  N   LIG    1        0.649   4.172   0.147  0.00  0.00    -0.600 N 
ATOM      5  C   LIG    1       -0.759   3.808   0.364  0.00  0.00    +0.290 C 
ATOM      6  C   LIG    1        1.599   3.223   0.031  0.00  0.00    +0.600 C 
ATOM      7  O   LIG    1        2.772   3.540  -0.027  0.00  0.00    -0.540 OA
ATOM      8  C   LIG    1       -1.282   4.602   1.572  0.00  0.00    +0.180 C 
ENDROOT
BRANCH   6   9
ATOM      9  C   LIG    1        1.218   1.807  -0.026  0.00  0.00    -0.080 A 
ATOM     10  C   LIG    1        0.007   1.298  -0.407  0.00  0.00    +0.230 A 
ATOM     11  N   LIG    1        0.076  -0.030  -0.317  0.00  0.00    -0.490 NA
ATOM     12  C   LIG    1        1.265  -0.384   0.101  0.00  0.00    +0.440 A 
ATOM     13  N   LIG    1        2.011   0.721   0.295  0.00  0.00    -0.380 N 
BRANCH  13  14
ATOM     14  C   LIG    1        3.338   0.762   0.745  0.00  0.00    +0.080 A 
ATOM     15  C   LIG    1        4.312   1.391  -0.019  0.00  0.00    +0.110 A 
ATOM     16  C   LIG    1        5.618   1.434   0.427  0.00  0.00    +0.010 A 
ATOM     17  C   LIG    1        5.959   0.841   1.631  0.00  0.00    +0.120 A 
ATOM     18  C   LIG    1        4.991   0.208   2.392  0.00  0.00    +0.000 A 
ATOM     19  F   LIG    1        7.239   0.880   2.063  0.00  0.00    -0.130 F 
ATOM     20  C   LIG    1        3.683   0.167   1.951  0.00  0.00    +0.060 A 
ENDBRANCH  13  14
ENDBRANCH   6   9
BRANCH   1  21
ATOM     21  C   LIG    1       -1.676   6.843   2.399  0.00  0.00    +0.220 C 
BRANCH  21  23
ATOM     22  O   LIG    1       -3.660   6.006   1.434  0.00  0.00    -0.520 OA
ATOM     23  C   LIG    1       -3.173   6.708   2.295  0.00  0.00    +0.520 C 
ATOM     24  N   LIG    1       -3.971   7.366   3.159  0.00  0.00    -0.710 N 
ATOM     25  H   LIG    1       -3.582   7.927   3.848  0.00  0.00    +0.400 HD
BRANCH  24  26
ATOM     26  C   LIG    1       -5.427   7.234   3.058  0.00  0.00    +0.220 C 
ATOM     27  C   LIG    1       -6.262   8.509   3.191  0.00  0.00    +0.010 C 
ATOM     28  C   LIG    1       -6.248   7.482   4.325  0.00  0.00    +0.010 C 
ENDBRANCH  24  26
ENDBRANCH  21  23
ENDBRANCH   1  21
TORSDOF 5
