REMARK  Name = ZINCrD000000AijG.0
REMARK                            x       y       z     vdW  Elec       q    Type
REMARK                         _______ _______ _______ _____ _____    ______ ____
ROOT
ATOM      1  O   LIG    1        1.119   6.214   0.416  0.00  0.00    -0.530 OA
ATOM      2  C   LIG    1        1.137   5.602   1.463  0.00  0.00    +0.520 C 
ATOM      3  N   LIG    1        1.139   6.270   2.633  0.00  0.00    -0.620 N 
ATOM      4  C   LIG    1        1.154   5.543   3.910  0.00  0.00    +0.280 C 
ATOM      5  C   LIG    1        2.328   6.063   4.754  0.00  0.00    +0.000 C 
ATOM      6  C   LIG    1        2.213   7.582   4.897  0.00  0.00    +0.250 C 
ATOM      7  C   LIG    1        2.288   8.234   3.515  0.00  0.00    +0.030 C 
ATOM      8  C   LIG    1        1.119   7.739   2.657  0.00  0.00    +0.280 C 
ENDROOT
BRANCH   6   9
ATOM      9  N   LIG    1        3.310   8.079   5.732  0.00  0.00    -1.110 NA
ATOM     10  H   LIG    1        4.171   8.276   5.332  0.00  0.00    +0.420 HD
BRANCH   9  11
ATOM     11  S   LIG    1        3.079   8.302   7.356  0.00  0.00    +2.690 S 
ATOM     12  O   LIG    1        1.869   9.034   7.492  0.00  0.00    -0.950 OA
ATOM     13  O   LIG    1        4.322   8.751   7.880  0.00  0.00    -0.960 OA
BRANCH  11  14
ATOM     14  C   LIG    1        2.784   6.716   8.065  0.00  0.00    -0.680 A 
ATOM     15  C   LIG    1        1.493   6.232   8.162  0.00  0.00    +0.120 A 
ATOM     16  C   LIG    1        1.262   4.986   8.713  0.00  0.00    -0.010 A 
ATOM     17  C   LIG    1        2.321   4.228   9.177  0.00  0.00    +0.070 A 
ATOM     18  C   LIG    1        3.611   4.714   9.084  0.00  0.00    -0.010 A 
ATOM     19  C   LIG    1        3.843   5.958   8.528  0.00  0.00    +0.120 A 
ENDBRANCH  11  14
ENDBRANCH   9  11
ENDBRANCH   6   9
BRANCH   2  20
ATOM     20  C   LIG    1        1.157   4.096   1.455  0.00  0.00    +0.060 C 
BRANCH  20  21
ATOM     21  C   LIG    1        1.151   3.593   0.010  0.00  0.00    +0.090 C 
BRANCH  21  22
ATOM     22  C   LIG    1        1.171   2.086   0.002  0.00  0.00    -0.080 A 
ATOM     23  C   LIG    1        2.377   1.411  -0.013  0.00  0.00    +0.030 A 
ATOM     24  C   LIG    1        2.397   0.029  -0.021  0.00  0.00    +0.020 A 
ATOM     25  C   LIG    1        1.210  -0.679  -0.013  0.00  0.00    +0.040 A 
ATOM     26  C   LIG    1        0.002  -0.004   0.002  0.00  0.00    -0.090 A 
ATOM     27 BR   LIG    1       -1.622  -0.972   0.013  0.00  0.00    -0.050 Br
ATOM     28  C   LIG    1       -0.017   1.379   0.010  0.00  0.00    +0.040 A 
ENDBRANCH  21  22
ENDBRANCH  20  21
ENDBRANCH   2  20
TORSDOF 6
