REMARK  Name = ZINCrH000004tdGb.0
REMARK                            x       y       z     vdW  Elec       q    Type
REMARK                         _______ _______ _______ _____ _____    ______ ____
ROOT
ATOM      1  C   LIG    1        2.421   3.933  -0.000  0.00  0.00    +0.240 A 
ATOM      2  N   LIG    1        2.553   5.247   0.000  0.00  0.00    -0.460 NA
ATOM      3  C   LIG    1        3.883   5.476  -0.006  0.00  0.00    +0.220 A 
ATOM      4  N   LIG    1        4.479   4.311  -0.019  0.00  0.00    -0.360 NA
ATOM      5  O   LIG    1        3.660   3.417  -0.016  0.00  0.00    +0.100 OA
ENDROOT
BRANCH   1   9
ATOM      6  F   LIG    1       -2.431   3.802   0.045  0.00  0.00    -0.120 F 
ATOM      7  C   LIG    1       -1.250   3.147   0.031  0.00  0.00    +0.130 A 
ATOM      8  C   LIG    1       -0.068   3.856   0.023  0.00  0.00    +0.070 A 
ATOM      9  C   LIG    1        1.153   3.176   0.008  0.00  0.00    -0.010 A 
ATOM     10  C   LIG    1        1.172   1.780   0.000  0.00  0.00    +0.080 A 
ATOM     11  C   LIG    1       -0.013   1.076   0.008  0.00  0.00    +0.020 A 
ATOM     12  C   LIG    1       -1.226   1.754   0.017  0.00  0.00    +0.080 A 
BRANCH  12  13
ATOM     13  N   LIG    1       -2.423   1.038   0.019  0.00  0.00    -0.500 N 
ATOM     14  C   LIG    1       -2.556   0.238   1.245  0.00  0.00    +0.160 C 
ATOM     15  C   LIG    1       -3.907  -0.483   1.233  0.00  0.00    +0.220 C 
ATOM     16  O   LIG    1       -4.004  -1.283   0.051  0.00  0.00    -0.380 OA
ATOM     17  C   LIG    1       -3.879  -0.535  -1.161  0.00  0.00    +0.220 C 
ATOM     18  C   LIG    1       -2.528   0.185  -1.174  0.00  0.00    +0.160 C 
ENDBRANCH  12  13
ENDBRANCH   1   9
BRANCH   3  19
ATOM     19  C   LIG    1        4.547   6.803  -0.005  0.00  0.00    -0.060 A 
ATOM     20  C   LIG    1        5.940   6.900  -0.013  0.00  0.00    +0.110 A 
ATOM     21  C   LIG    1        6.511   8.162  -0.016  0.00  0.00    +0.020 A 
ATOM     22  C   LIG    1        5.691   9.275  -0.002  0.00  0.00    +0.070 A 
ATOM     23  N   LIG    1        4.378   9.152   0.009  0.00  0.00    -0.450 NA
ATOM     24  C   LIG    1        3.790   7.973   0.008  0.00  0.00    +0.330 A 
BRANCH  22  25
ATOM     25  C   LIG    1        6.307  10.650  -0.001  0.00  0.00    +0.460 C 
ATOM     26  F   LIG    1        7.089  10.812  -1.149  0.00  0.00    -0.190 F 
ATOM     27  F   LIG    1        7.110  10.800   1.135  0.00  0.00    -0.190 F 
ENDBRANCH  22  25
ENDBRANCH   3  19
TORSDOF 4
