REMARK  Name = ZINCpe00000MJJzQ.0
REMARK                            x       y       z     vdW  Elec       q    Type
REMARK                         _______ _______ _______ _____ _____    ______ ____
ROOT
ATOM      1  C   LIG    1       -2.230   4.396   0.039  0.00  0.00    -0.140 A 
ATOM      2  C   LIG    1       -3.496   3.807   0.042  0.00  0.00    +0.070 A 
ATOM      3  C   LIG    1       -3.620   2.432   0.034  0.00  0.00    +0.010 A 
ATOM      4  C   LIG    1       -2.494   1.631   0.023  0.00  0.00    +0.090 A 
ATOM      5  C   LIG    1       -1.224   2.208   0.020  0.00  0.00    -0.030 A 
ATOM      6  C   LIG    1       -1.091   3.592   0.033  0.00  0.00    +0.130 A 
ENDROOT
BRANCH   5   7
ATOM      7  C   LIG    1       -0.016   1.345   0.009  0.00  0.00    +0.220 A 
ATOM      8  N   LIG    1        1.227   1.753  -0.000  0.00  0.00    -0.360 NA
ATOM      9  O   LIG    1        1.982   0.803  -0.013  0.00  0.00    +0.100 OA
ATOM     10  C   LIG    1        1.278  -0.340  -0.012  0.00  0.00    +0.250 A 
ATOM     11  N   LIG    1        0.002  -0.004   0.002  0.00  0.00    -0.430 NA
BRANCH  10  12
ATOM     12  C   LIG    1        1.828  -1.712  -0.024  0.00  0.00    +0.120 A 
ATOM     13  N   LIG    1        1.014  -2.744  -0.015  0.00  0.00    -0.150 NA
ATOM     14  N   LIG    1        1.442  -3.954  -0.031  0.00  0.00    -0.330 N 
ATOM     15  C   LIG    1        2.757  -4.242  -0.045  0.00  0.00    +0.480 A 
ATOM     16  C   LIG    1        3.700  -3.190  -0.049  0.00  0.00    +0.010 A 
ATOM     17  O   LIG    1        3.131  -5.403  -0.054  0.00  0.00    -0.510 OA
ATOM     18  C   LIG    1        0.472  -5.052  -0.027  0.00  0.00    +0.370 C 
ATOM     19  C   LIG    1        3.230  -1.911  -0.038  0.00  0.00    +0.120 A 
ENDBRANCH  10  12
ENDBRANCH   5   7
BRANCH   1  22
ATOM     20  N   LIG    1       -3.200   6.644   0.059  0.00  0.00    -0.720 N 
ATOM     21  H   LIG    1       -4.080   6.236   0.061  0.00  0.00    +0.400 HD
ATOM     22  C   LIG    1       -2.098   5.868   0.048  0.00  0.00    +0.560 C 
ATOM     23  O   LIG    1       -0.995   6.380   0.046  0.00  0.00    -0.530 OA
BRANCH  20  24
ATOM     24  C   LIG    1       -3.069   8.103   0.069  0.00  0.00    +0.430 C 
BRANCH  24  26
ATOM     25  C   LIG    1       -5.474   9.205   0.089  0.00  0.00    +0.060 C 
ATOM     26  C   LIG    1       -4.407   8.716   0.080  0.00  0.00    -0.220 C 
ENDBRANCH  24  26
ENDBRANCH  20  24
ENDBRANCH   1  22
TORSDOF 5
