REMARK  Name = ZINCrg00000bwxGy.0
REMARK                            x       y       z     vdW  Elec       q    Type
REMARK                         _______ _______ _______ _____ _____    ______ ____
ROOT
ATOM      1  C   LIG    1       -0.664   3.654  -1.476  0.00  0.00    +0.020 C 
ATOM      2  C   LIG    1       -2.009   3.047  -1.072  0.00  0.00    +0.000 C 
ATOM      3  C   LIG    1       -1.927   1.522  -1.160  0.00  0.00    +0.020 C 
ATOM      4  C   LIG    1       -0.810   1.021  -0.239  0.00  0.00    +0.290 C 
ATOM      5  N   LIG    1       -1.045   1.535   1.117  0.00  0.00    -0.590 N 
ATOM      6  C   LIG    1       -1.232   2.981   1.301  0.00  0.00    +0.290 C 
ATOM      7  C   LIG    1       -1.091   0.697   2.171  0.00  0.00    +0.580 C 
ATOM      8  O   LIG    1       -1.276   1.136   3.289  0.00  0.00    -0.520 OA
ATOM      9  C   LIG    1       -2.344   3.460   0.363  0.00  0.00    -0.020 C 
ENDROOT
BRANCH   7  10
ATOM     10  C   LIG    1       -0.916  -0.760   1.967  0.00  0.00    +0.020 A 
ATOM     11  C   LIG    1       -1.408  -1.665   2.910  0.00  0.00    +0.090 A 
ATOM     12  C   LIG    1       -1.218  -3.020   2.671  0.00  0.00    +0.040 A 
ATOM     13  C   LIG    1       -0.554  -3.391   1.514  0.00  0.00    +0.240 A 
ATOM     14  N   LIG    1       -0.121  -2.467   0.673  0.00  0.00    -0.240 NA
ATOM     15  N   LIG    1       -0.296  -1.213   0.883  0.00  0.00    -0.210 NA
ENDBRANCH   7  10
BRANCH   9  16
ATOM     16  C   LIG    1       -2.459   4.984   0.442  0.00  0.00    +0.280 C 
BRANCH  16  17
ATOM     17  N   LIG    1       -2.896   5.371   1.786  0.00  0.00    -0.700 N 
ATOM     18  H   LIG    1       -3.063   4.691   2.456  0.00  0.00    +0.420 HD
ATOM     19  C   LIG    1       -3.067   6.673   2.090  0.00  0.00    +0.610 C 
ATOM     20  O   LIG    1       -2.857   7.526   1.249  0.00  0.00    -0.530 OA
BRANCH  19  21
ATOM     21  C   LIG    1       -3.508   7.064   3.445  0.00  0.00    +0.170 A 
ATOM     22  N   LIG    1       -3.771   6.248   4.450  0.00  0.00    -0.460 NA
ATOM     23  C   LIG    1       -4.134   7.000   5.485  0.00  0.00    +0.230 A 
ATOM     24  N   LIG    1       -4.095   8.256   5.119  0.00  0.00    -0.290 NA
ATOM     25  N   LIG    1       -3.713   8.324   3.890  0.00  0.00    -0.360 N 
ATOM     26  H   LIG    1       -3.597   9.137   3.374  0.00  0.00    +0.460 HD
BRANCH  23  27
ATOM     27  C   LIG    1       -4.525   6.491   6.849  0.00  0.00    +0.060 C 
ATOM     28  C   LIG    1       -5.107   7.502   7.840  0.00  0.00    +0.050 C 
ATOM     29  C   LIG    1       -3.690   6.959   8.043  0.00  0.00    +0.050 C 
ENDBRANCH  23  27
ENDBRANCH  19  21
ENDBRANCH  16  17
ENDBRANCH   9  16
TORSDOF 5
