REMARK  Name = ZINCrg00000bwxGy.1
REMARK                            x       y       z     vdW  Elec       q    Type
REMARK                         _______ _______ _______ _____ _____    ______ ____
ROOT
ATOM      1  C   LIG    1       -0.427   0.770  -0.450  0.00  0.00    +0.020 C 
ATOM      2  C   LIG    1        0.111   0.658   0.978  0.00  0.00    +0.000 C 
ATOM      3  C   LIG    1        1.557   1.155   1.019  0.00  0.00    +0.020 C 
ATOM      4  C   LIG    1        1.607   2.608   0.536  0.00  0.00    +0.290 C 
ATOM      5  N   LIG    1        0.671   3.406   1.340  0.00  0.00    -0.590 N 
ATOM      6  C   LIG    1       -0.727   2.965   1.442  0.00  0.00    +0.290 C 
ATOM      7  C   LIG    1        1.087   4.522   1.972  0.00  0.00    +0.580 C 
ATOM      8  O   LIG    1        0.301   5.177   2.628  0.00  0.00    -0.520 OA
ATOM      9  C   LIG    1       -0.750   1.508   1.915  0.00  0.00    -0.020 C 
ENDROOT
BRANCH   7  10
ATOM     10  C   LIG    1        2.502   4.949   1.867  0.00  0.00    +0.030 A 
ATOM     11  C   LIG    1        3.051   5.800   2.829  0.00  0.00    +0.090 A 
ATOM     12  C   LIG    1        4.383   6.167   2.687  0.00  0.00    +0.040 A 
ATOM     13  C   LIG    1        5.082   5.675   1.596  0.00  0.00    +0.240 A 
ATOM     14  N   LIG    1        4.482   4.877   0.730  0.00  0.00    -0.240 NA
ATOM     15  N   LIG    1        3.253   4.529   0.856  0.00  0.00    -0.210 NA
ENDBRANCH   7  10
BRANCH   9  16
ATOM     16  C   LIG    1       -2.189   0.989   1.898  0.00  0.00    +0.290 C 
BRANCH  16  17
ATOM     17  N   LIG    1       -2.986   1.726   2.883  0.00  0.00    -0.700 N 
ATOM     18  H   LIG    1       -2.573   2.421   3.418  0.00  0.00    +0.420 HD
ATOM     19  C   LIG    1       -4.292   1.437   3.045  0.00  0.00    +0.610 C 
ATOM     20  O   LIG    1       -4.810   0.565   2.373  0.00  0.00    -0.530 OA
BRANCH  19  21
ATOM     21  C   LIG    1       -5.094   2.178   4.036  0.00  0.00    +0.120 A 
ATOM     22  N   LIG    1       -4.668   3.140   4.826  0.00  0.00    -0.230 NA
ATOM     23  N   LIG    1       -5.640   3.555   5.558  0.00  0.00    -0.280 NA
ATOM     24  C   LIG    1       -6.730   2.884   5.276  0.00  0.00    +0.240 A 
ATOM     25  N   LIG    1       -6.426   2.000   4.306  0.00  0.00    -0.540 N 
ATOM     26  H   LIG    1       -7.027   1.365   3.886  0.00  0.00    +0.440 HD
BRANCH  24  27
ATOM     27  C   LIG    1       -8.081   3.073   5.917  0.00  0.00    +0.060 C 
ATOM     28  C   LIG    1       -9.293   2.473   5.200  0.00  0.00    +0.040 C 
ATOM     29  C   LIG    1       -9.079   3.989   5.205  0.00  0.00    +0.060 C 
ENDBRANCH  24  27
ENDBRANCH  19  21
ENDBRANCH  16  17
ENDBRANCH   9  16
TORSDOF 5
