REMARK  Name = ZINCrD0000045FHd.0
REMARK                            x       y       z     vdW  Elec       q    Type
REMARK                         _______ _______ _______ _____ _____    ______ ____
ROOT
ATOM      1  C   LIG    1       -2.219   1.807  -0.595  0.00  0.00    +0.330 C 
ATOM      2  C   LIG    1       -0.811   1.623  -1.203  0.00  0.00    +0.130 C 
ATOM      3  C   LIG    1       -0.013   1.086   0.008  0.00  0.00    +0.080 C 
ATOM      4  C   LIG    1       -0.771   1.598   1.213  0.00  0.00    +0.530 C 
ATOM      5  O   LIG    1       -0.333   1.640   2.343  0.00  0.00    -0.520 OA
ATOM      6  N   LIG    1       -2.003   2.000   0.844  0.00  0.00    -0.590 N 
ENDROOT
BRANCH   1  10
ATOM      7  C   LIG    1       -5.555  -1.396  -2.529  0.00  0.00    +0.360 C 
ATOM      8  N   LIG    1       -4.510  -0.814  -1.683  0.00  0.00    -0.370 N 
ATOM      9  C   LIG    1       -3.990   0.426  -1.803  0.00  0.00    +0.250 A 
ATOM     10  C   LIG    1       -3.055   0.576  -0.836  0.00  0.00    -0.260 A 
ATOM     11  C   LIG    1       -2.999  -0.614  -0.103  0.00  0.00    +0.250 A 
ATOM     12  N   LIG    1       -3.875  -1.446  -0.606  0.00  0.00    -0.290 NA
ENDBRANCH   1  10
BRANCH   2  13
ATOM     13  C   LIG    1       -0.252   2.940  -1.676  0.00  0.00    +0.160 A 
ATOM     14  N   LIG    1       -0.136   4.027  -0.968  0.00  0.00    -0.260 NA
ATOM     15  N   LIG    1        0.382   4.956  -1.693  0.00  0.00    -0.280 NA
ATOM     16  C   LIG    1        0.615   4.492  -2.888  0.00  0.00    +0.170 A 
ATOM     17  O   LIG    1        0.225   3.206  -2.904  0.00  0.00    -0.220 OA
BRANCH  16  18
ATOM     18  C   LIG    1        1.216   5.256  -4.039  0.00  0.00    +0.190 C 
BRANCH  18  19
ATOM     19  C   LIG    1        2.738   5.104  -4.012  0.00  0.00    -0.010 C 
ATOM     20  C   LIG    1        3.320   5.830  -2.782  0.00  0.00    +0.020 C 
ATOM     21  C   LIG    1        4.651   6.436  -3.293  0.00  0.00    +0.010 C 
ATOM     22  C   LIG    1        4.293   6.884  -4.732  0.00  0.00    +0.010 C 
ATOM     23  C   LIG    1        3.357   5.774  -5.252  0.00  0.00    +0.020 C 
ENDBRANCH  18  19
ENDBRANCH  16  18
ENDBRANCH   2  13
BRANCH   6  24
ATOM     24  C   LIG    1       -2.998   2.559   1.761  0.00  0.00    +0.180 C 
ATOM     25  C   LIG    1       -3.368   3.974   1.313  0.00  0.00    +0.030 C 
ATOM     26  C   LIG    1       -2.417   2.608   3.176  0.00  0.00    +0.060 C 
ATOM     27  C   LIG    1       -4.250   1.679   1.754  0.00  0.00    +0.030 C 
ENDBRANCH   6  24
TORSDOF 5
