REMARK  Name = ZINCrH00000No4Kp.0
REMARK                            x       y       z     vdW  Elec       q    Type
REMARK                         _______ _______ _______ _____ _____    ______ ____
ROOT
ATOM      1  C   LIG    1        0.274  -0.539  -1.857  0.00  0.00    -0.140 C 
ATOM      2  C   LIG    1       -0.057  -1.739  -2.385  0.00  0.00    +0.180 C 
ENDROOT
BRANCH   1   9
ATOM      3  C   LIG    1       -1.388   2.218   0.067  0.00  0.00    +0.210 C 
ATOM      4  C   LIG    1       -0.792   2.682   1.405  0.00  0.00    +0.040 C 
ATOM      5  C   LIG    1        0.523   3.419   1.143  0.00  0.00    +0.020 C 
ATOM      6  C   LIG    1        1.519   2.467   0.477  0.00  0.00    +0.010 C 
ATOM      7  C   LIG    1        0.952   1.999  -0.867  0.00  0.00    +0.270 C 
ATOM      8  N   LIG    1       -0.379   1.419  -0.642  0.00  0.00    -0.610 N 
ATOM      9  C   LIG    1       -0.671   0.178  -1.081  0.00  0.00    +0.550 C 
ATOM     10  O   LIG    1       -1.746  -0.326  -0.812  0.00  0.00    -0.520 OA
BRANCH   3  14
ATOM     11  C   LIG    1       -5.004   0.962   0.106  0.00  0.00    +0.280 C 
ATOM     12  N   LIG    1       -3.813   1.779  -0.141  0.00  0.00    -0.740 N 
ATOM     13  H   LIG    1       -3.889   2.610  -0.636  0.00  0.00    +0.400 HD
ATOM     14  C   LIG    1       -2.612   1.377   0.320  0.00  0.00    +0.530 C 
ATOM     15  O   LIG    1       -2.517   0.339   0.940  0.00  0.00    -0.500 OA
ENDBRANCH   3  14
ENDBRANCH   1   9
BRANCH   2  16
ATOM     16  C   LIG    1        0.921  -2.481  -3.188  0.00  0.00    -0.180 A 
ATOM     17  C   LIG    1        0.742  -3.712  -3.787  0.00  0.00    +0.070 A 
ATOM     18  N   LIG    1        1.881  -4.035  -4.432  0.00  0.00    -0.430 N 
ATOM     19  C   LIG    1        2.815  -3.054  -4.267  0.00  0.00    +0.020 A 
ATOM     20  C   LIG    1        4.209  -3.070  -4.839  0.00  0.00    +0.130 C 
ATOM     21  C   LIG    1       -0.511  -4.548  -3.733  0.00  0.00    +0.150 C 
ATOM     22  C   LIG    1        2.292  -2.070  -3.514  0.00  0.00    -0.030 A 
BRANCH  18  23
ATOM     23  C   LIG    1        2.090  -5.269  -5.195  0.00  0.00    +0.230 C 
ATOM     24  C   LIG    1        3.353  -5.971  -4.693  0.00  0.00    +0.010 C 
ATOM     25  C   LIG    1        3.571  -7.259  -5.489  0.00  0.00    +0.020 C 
ATOM     26  C   LIG    1        3.731  -6.920  -6.973  0.00  0.00    +0.010 C 
ATOM     27  C   LIG    1        2.468  -6.218  -7.475  0.00  0.00    +0.020 C 
ATOM     28  C   LIG    1        2.251  -4.930  -6.678  0.00  0.00    +0.020 C 
ENDBRANCH  18  23
ENDBRANCH   2  16
TORSDOF 4
