REMARK  Name = ZINCrH000004r3u0.0
REMARK                            x       y       z     vdW  Elec       q    Type
REMARK                         _______ _______ _______ _____ _____    ______ ____
ROOT
ATOM      1  N   LIG    1       -0.941  -4.958  -1.259  0.00  0.00    -0.660 N 
ATOM      2  H   LIG    1        0.001  -4.874  -1.043  0.00  0.00    +0.410 HD
ATOM      3  C   LIG    1       -1.481  -4.193  -2.228  0.00  0.00    +0.600 C 
ATOM      4  O   LIG    1       -2.638  -4.362  -2.563  0.00  0.00    -0.520 OA
ENDROOT
BRANCH   1  11
ATOM      5  C   LIG    1        0.346  -7.109   0.081  0.00  0.00    +0.110 C 
ATOM      6  C   LIG    1       -1.151  -6.940   0.105  0.00  0.00    -0.090 A 
ATOM      7  C   LIG    1       -1.935  -7.844   0.797  0.00  0.00    +0.020 A 
ATOM      8  C   LIG    1       -3.308  -7.700   0.820  0.00  0.00    +0.030 A 
ATOM      9  C   LIG    1       -3.908  -6.634   0.147  0.00  0.00    -0.120 A 
ATOM     10  C   LIG    1       -3.117  -5.719  -0.547  0.00  0.00    +0.090 A 
ATOM     11  C   LIG    1       -1.739  -5.873  -0.564  0.00  0.00    +0.140 A 
BRANCH   9  12
ATOM     12  C   LIG    1       -5.378  -6.477   0.169  0.00  0.00    +0.560 C 
ATOM     13  N   LIG    1       -6.167  -7.549   0.377  0.00  0.00    -0.620 N 
ATOM     14  C   LIG    1       -5.577  -8.887   0.469  0.00  0.00    +0.280 C 
ATOM     15  C   LIG    1       -7.616  -7.378   0.512  0.00  0.00    +0.300 C 
ATOM     16  O   LIG    1       -5.875  -5.381  -0.001  0.00  0.00    -0.530 OA
ENDBRANCH   9  12
ENDBRANCH   1  11
BRANCH   3  17
ATOM     17  C   LIG    1       -0.669  -3.152  -2.883  0.00  0.00    -0.290 A 
ATOM     18  C   LIG    1       -1.087  -2.294  -3.881  0.00  0.00    +0.340 A 
ATOM     19  N   LIG    1       -0.042  -1.508  -4.199  0.00  0.00    -0.310 N 
ATOM     20  N   LIG    1        1.042  -1.863  -3.388  0.00  0.00    -0.280 NA
ATOM     21  C   LIG    1        0.680  -2.840  -2.602  0.00  0.00    +0.290 A 
BRANCH  19  22
ATOM     22  C   LIG    1       -0.042  -0.499  -5.172  0.00  0.00    +0.150 A 
ATOM     23  C   LIG    1       -1.188  -0.249  -5.914  0.00  0.00    +0.020 A 
ATOM     24  C   LIG    1       -1.186   0.749  -6.869  0.00  0.00    +0.070 A 
ATOM     25  C   LIG    1       -0.041   1.492  -7.093  0.00  0.00    -0.040 A 
ATOM     26  C   LIG    1        1.105   1.242  -6.358  0.00  0.00    +0.060 A 
ATOM     27 CL   LIG    1       -0.040   2.742  -8.298  0.00  0.00    -0.060 Cl
ATOM     28  C   LIG    1        1.106   0.248  -5.398  0.00  0.00    +0.050 A 
ENDBRANCH  19  22
ENDBRANCH   3  17
TORSDOF 4
