REMARK  Name = ZINCnE000001QQtv.0
REMARK                            x       y       z     vdW  Elec       q    Type
REMARK                         _______ _______ _______ _____ _____    ______ ____
ROOT
ATOM      1  C   LIG    1        1.284   1.836  -0.000  0.00  0.00    -0.030 A 
ATOM      2  C   LIG    1        2.124   0.748  -0.014  0.00  0.00    +0.090 A 
ATOM      3  C   LIG    1        1.319  -0.408  -0.013  0.00  0.00    -0.260 A 
ATOM      4  C   LIG    1        0.002  -0.004   0.002  0.00  0.00    +0.130 A 
ATOM      5  C   LIG    1       -0.908  -1.141   0.005  0.00  0.00    -0.150 A 
ATOM      6  C   LIG    1       -0.275  -2.344  -0.009  0.00  0.00    -0.150 A 
ATOM      7  C   LIG    1       -0.984  -3.674  -0.010  0.00  0.00    +0.150 C 
ATOM      8  S   LIG    1        1.417  -2.164  -0.024  0.00  0.00    +0.140 S 
ATOM      9  N   LIG    1       -0.017   1.379   0.010  0.00  0.00    -0.520 N 
ATOM     10  H   LIG    1       -0.812   1.934   0.017  0.00  0.00    +0.420 HD
ENDROOT
BRANCH   1  13
ATOM     11  N   LIG    1        0.771   4.218   0.018  0.00  0.00    -0.720 N 
ATOM     12  H   LIG    1       -0.172   3.991   0.026  0.00  0.00    +0.410 HD
ATOM     13  C   LIG    1        1.699   3.241   0.004  0.00  0.00    +0.600 C 
ATOM     14  O   LIG    1        2.883   3.526  -0.006  0.00  0.00    -0.540 OA
BRANCH  11  15
ATOM     15  C   LIG    1        1.187   5.623   0.022  0.00  0.00    +0.330 C 
ATOM     16  C   LIG    1        1.466   6.068   1.459  0.00  0.00    +0.040 C 
BRANCH  15  20
ATOM     17  C   LIG    1       -3.514   6.681  -1.168  0.00  0.00    +0.190 C 
ATOM     18  C   LIG    1       -2.028   6.921  -1.084  0.00  0.00    +0.060 A 
ATOM     19  N   LIG    1       -1.178   6.108  -0.553  0.00  0.00    -0.470 NA
ATOM     20  C   LIG    1        0.088   6.473  -0.563  0.00  0.00    +0.060 A 
ATOM     21  C   LIG    1        0.318   7.662  -1.129  0.00  0.00    -0.070 A 
ATOM     22  S   LIG    1       -1.226   8.309  -1.677  0.00  0.00    +0.120 S 
ENDBRANCH  15  20
ENDBRANCH  11  15
ENDBRANCH   1  13
BRANCH   5  23
ATOM     23  C   LIG    1       -2.367  -1.002   0.020  0.00  0.00    +0.540 C 
ATOM     24  O   LIG    1       -3.077  -2.000   0.021  0.00  0.00    -0.680 OA
ATOM     25  O   LIG    1       -2.875   0.111   0.031  0.00  0.00    -0.690 OA
ENDBRANCH   5  23
TORSDOF 4
