REMARK  Name = ZINCnE000001TDM2.1
REMARK                            x       y       z     vdW  Elec       q    Type
REMARK                         _______ _______ _______ _____ _____    ______ ____
ROOT
ATOM      1  C   LIG    1        0.401  -1.970   1.330  0.00  0.00    +0.210 C 
ATOM      2  C   LIG    1        1.470  -2.874   1.980  0.00  0.00    +0.070 C 
ATOM      3  C   LIG    1        2.374  -1.862   2.731  0.00  0.00    +0.050 C 
ATOM      4  C   LIG    1        2.354  -0.650   1.767  0.00  0.00    +0.280 C 
ATOM      5  N   LIG    1        0.976  -0.616   1.232  0.00  0.00    -0.380 N 
ATOM      6  H   LIG    1        0.420   0.029   1.772  0.00  0.00    +0.410 HD
ENDROOT
BRANCH   1  11
ATOM      7  C   LIG    1        0.703  -3.278  -2.207  0.00  0.00    -0.170 A 
ATOM      8  C   LIG    1       -0.653  -3.409  -2.513  0.00  0.00    +0.320 A 
ATOM      9  N   LIG    1       -1.573  -3.092  -1.626  0.00  0.00    -0.490 NA
ATOM     10  C   LIG    1       -1.259  -2.643  -0.426  0.00  0.00    +0.260 A 
ATOM     11  C   LIG    1        0.062  -2.485  -0.045  0.00  0.00    -0.210 A 
ATOM     12  C   LIG    1        1.068  -2.798  -0.941  0.00  0.00    +0.130 A 
BRANCH   7  14
ATOM     13  O   LIG    1        1.405  -4.046  -4.303  0.00  0.00    -0.680 OA
ATOM     14  C   LIG    1        1.735  -3.633  -3.200  0.00  0.00    +0.520 C 
ATOM     15  O   LIG    1        2.919  -3.514  -2.921  0.00  0.00    -0.670 OA
ENDBRANCH   7  14
ENDBRANCH   1  11
BRANCH   5  16
ATOM     16  C   LIG    1        1.003  -0.192  -0.174  0.00  0.00    +0.320 C 
BRANCH  16  17
ATOM     17  C   LIG    1        1.411   1.257  -0.254  0.00  0.00    -0.310 A 
ATOM     18  C   LIG    1        0.446   2.244  -0.316  0.00  0.00    +0.060 A 
ATOM     19  C   LIG    1        0.820   3.574  -0.385  0.00  0.00    -0.140 A 
ATOM     20  C   LIG    1        2.158   3.919  -0.402  0.00  0.00    +0.060 A 
ATOM     21  C   LIG    1        3.127   2.934  -0.346  0.00  0.00    -0.160 A 
ATOM     22 CL   LIG    1        4.808   3.368  -0.367  0.00  0.00    -0.100 Cl
ATOM     23  C   LIG    1        2.755   1.599  -0.272  0.00  0.00    +0.300 A 
ATOM     24  O   LIG    1        3.705   0.629  -0.216  0.00  0.00    -0.670 OA
ENDBRANCH  16  17
ENDBRANCH   5  16
TORSDOF 4
