REMARK  Name = ZINCnE000001TDM2.0
REMARK                            x       y       z     vdW  Elec       q    Type
REMARK                         _______ _______ _______ _____ _____    ______ ____
ROOT
ATOM      1  C   LIG    1        4.122   5.136  -1.252  0.00  0.00    +0.230 C 
ATOM      2  C   LIG    1        3.996   6.660  -1.458  0.00  0.00    +0.080 C 
ATOM      3  C   LIG    1        2.534   6.951  -1.029  0.00  0.00    +0.060 C 
ATOM      4  C   LIG    1        1.805   5.681  -1.524  0.00  0.00    +0.240 C 
ATOM      5  N   LIG    1        2.759   4.576  -1.285  0.00  0.00    -0.390 N 
ATOM      6  H   LIG    1        2.687   3.900  -2.030  0.00  0.00    +0.430 HD
ENDROOT
BRANCH   1  11
ATOM      7  C   LIG    1        7.002   3.639  -3.197  0.00  0.00    -0.170 A 
ATOM      8  C   LIG    1        6.367   3.455  -4.428  0.00  0.00    +0.310 A 
ATOM      9  N   LIG    1        5.106   3.797  -4.588  0.00  0.00    -0.480 NA
ATOM     10  C   LIG    1        4.396   4.321  -3.608  0.00  0.00    +0.220 A 
ATOM     11  C   LIG    1        4.950   4.536  -2.359  0.00  0.00    -0.190 A 
ATOM     12  C   LIG    1        6.273   4.199  -2.138  0.00  0.00    +0.130 A 
BRANCH   7  14
ATOM     13  O   LIG    1        9.041   2.772  -3.948  0.00  0.00    -0.680 OA
ATOM     14  C   LIG    1        8.415   3.256  -3.016  0.00  0.00    +0.520 C 
ATOM     15  O   LIG    1        8.959   3.422  -1.934  0.00  0.00    -0.680 OA
ENDBRANCH   7  14
ENDBRANCH   1  11
BRANCH   5  16
ATOM     16  C   LIG    1        2.457   3.932   0.000  0.00  0.00    +0.320 C 
BRANCH  16  17
ATOM     17  C   LIG    1        3.353   2.734   0.184  0.00  0.00    -0.320 A 
ATOM     18  C   LIG    1        4.409   2.791   1.073  0.00  0.00    +0.060 A 
ATOM     19  C   LIG    1        5.231   1.692   1.243  0.00  0.00    -0.120 A 
ATOM     20  C   LIG    1        5.002   0.536   0.520  0.00  0.00    +0.070 A 
ATOM     21  C   LIG    1        3.943   0.472  -0.367  0.00  0.00    -0.160 A 
ATOM     22 CL   LIG    1        3.652  -0.982  -1.269  0.00  0.00    -0.100 Cl
ATOM     23  C   LIG    1        3.117   1.574  -0.539  0.00  0.00    +0.300 A 
ATOM     24  O   LIG    1        2.078   1.516  -1.413  0.00  0.00    -0.700 OA
ENDBRANCH  16  17
ENDBRANCH   5  16
TORSDOF 4
