REMARK  Name = ZINCrD000000BZWK.0
REMARK                            x       y       z     vdW  Elec       q    Type
REMARK                         _______ _______ _______ _____ _____    ______ ____
ROOT
ATOM      1  O   LIG    1        4.047   6.101   3.374  0.00  0.00    -0.570 OA
ATOM      2  C   LIG    1        4.724   5.447   2.605  0.00  0.00    +0.710 C 
ATOM      3  N   LIG    1        5.473   6.067   1.672  0.00  0.00    -0.620 N 
ATOM      4  C   LIG    1        6.224   5.288   0.677  0.00  0.00    +0.270 C 
ATOM      5  C   LIG    1        5.813   5.767  -0.726  0.00  0.00    +0.290 C 
ATOM      6  N   LIG    1        5.898   7.233  -0.763  0.00  0.00    -0.610 N 
ATOM      7  C   LIG    1        5.152   8.012   0.235  0.00  0.00    +0.270 C 
ATOM      8  C   LIG    1        6.647   7.853  -1.697  0.00  0.00    +0.570 C 
ATOM      9  O   LIG    1        7.339   7.200  -2.453  0.00  0.00    -0.530 OA
ATOM     10  C   LIG    1        5.559   7.533   1.634  0.00  0.00    +0.300 C 
ATOM     11  N   LIG    1        4.726   4.101   2.687  0.00  0.00    -0.680 N 
ATOM     12  H   LIG    1        5.327   3.583   2.129  0.00  0.00    +0.410 HD
ENDROOT
BRANCH   8  13
ATOM     13  C   LIG    1        6.627   9.328  -1.801  0.00  0.00    -0.130 A 
ATOM     14  C   LIG    1        5.423  10.023  -1.683  0.00  0.00    +0.040 A 
ATOM     15  C   LIG    1        5.413  11.398  -1.782  0.00  0.00    +0.020 A 
ATOM     16  C   LIG    1        6.593  12.094  -1.997  0.00  0.00    -0.070 A 
ATOM     17  C   LIG    1        6.838  13.582  -2.139  0.00  0.00    +0.080 C 
ATOM     18  C   LIG    1        8.354  13.764  -1.918  0.00  0.00    +0.030 C 
ATOM     19  C   LIG    1        8.919  12.392  -2.344  0.00  0.00    +0.080 C 
ATOM     20  C   LIG    1        7.790  11.410  -2.115  0.00  0.00    -0.100 A 
ATOM     21  C   LIG    1        7.812  10.032  -2.012  0.00  0.00    +0.080 A 
ENDBRANCH   8  13
BRANCH  11  22
ATOM     22  C   LIG    1        3.861   3.452   3.576  0.00  0.00    +0.150 A 
ATOM     23  C   LIG    1        2.638   4.026   3.899  0.00  0.00    +0.050 A 
ATOM     24  C   LIG    1        1.786   3.384   4.776  0.00  0.00    +0.010 A 
ATOM     25  C   LIG    1        2.152   2.172   5.337  0.00  0.00    +0.080 A 
ATOM     26  C   LIG    1        3.369   1.596   5.012  0.00  0.00    +0.010 A 
ATOM     27  F   LIG    1        1.319   1.548   6.199  0.00  0.00    -0.140 F 
ATOM     28  C   LIG    1        4.224   2.235   4.135  0.00  0.00    +0.020 A 
ENDBRANCH  11  22
TORSDOF 2
