REMARK  Name = ZINCvU00000008gb.0
REMARK                            x       y       z     vdW  Elec       q    Type
REMARK                         _______ _______ _______ _____ _____    ______ ____
ROOT
ATOM      1  N   LIG    1        7.884  -1.971  -1.024  0.00  0.00    -0.740 N 
ATOM      2  H   LIG    1        7.397  -2.775  -1.262  0.00  0.00    +0.410 HD
ENDROOT
BRANCH   1   3
ATOM      3  C   LIG    1        9.116  -1.697  -1.623  0.00  0.00    +0.220 A 
ATOM      4  C   LIG    1        9.813  -0.544  -1.283  0.00  0.00    -0.060 A 
ATOM      5  C   LIG    1       11.033  -0.269  -1.873  0.00  0.00    +0.060 A 
ATOM      6  C   LIG    1       11.565  -1.137  -2.804  0.00  0.00    -0.050 A 
ATOM      7  C   LIG    1       10.873  -2.298  -3.152  0.00  0.00    +0.030 A 
ATOM      8  C   LIG    1        9.646  -2.578  -2.554  0.00  0.00    +0.000 A 
BRANCH   7   9
ATOM      9  C   LIG    1       11.442  -3.230  -4.150  0.00  0.00    +0.210 A 
ATOM     10  N   LIG    1       11.106  -4.490  -4.328  0.00  0.00    -0.280 NA
ATOM     11  N   LIG    1       11.800  -4.994  -5.288  0.00  0.00    -0.290 NA
ATOM     12  C   LIG    1       12.607  -4.093  -5.774  0.00  0.00    +0.190 A 
ATOM     13  C   LIG    1       13.576  -4.259  -6.915  0.00  0.00    +0.150 C 
ATOM     14  C   LIG    1       14.932  -3.672  -6.510  0.00  0.00    +0.030 C 
ATOM     15  C   LIG    1       14.972  -2.187  -6.856  0.00  0.00    +0.020 C 
ATOM     16  C   LIG    1       13.587  -1.561  -6.697  0.00  0.00    +0.030 C 
ATOM     17  C   LIG    1       13.129  -1.684  -5.241  0.00  0.00    +0.290 C 
ATOM     18  N   LIG    1       12.413  -2.948  -5.066  0.00  0.00    -0.470 N 
ENDBRANCH   7   9
ENDBRANCH   1   3
BRANCH   1  19
ATOM     19  C   LIG    1        7.327  -1.042  -0.037  0.00  0.00    +0.370 C 
ATOM     20  C   LIG    1        7.903  -1.361   1.344  0.00  0.00    +0.060 C 
BRANCH  19  24
ATOM     21  C   LIG    1        3.715  -0.762   0.046  0.00  0.00    +0.220 A 
ATOM     22  N   LIG    1        3.901  -2.061   0.046  0.00  0.00    -0.270 NA
ATOM     23  N   LIG    1        5.163  -2.309   0.018  0.00  0.00    -0.270 NA
ATOM     24  C   LIG    1        5.827  -1.188  -0.001  0.00  0.00    +0.150 A 
ATOM     25  O   LIG    1        4.933  -0.184   0.011  0.00  0.00    -0.210 OA
BRANCH  21  30
ATOM     26  C   LIG    1       -1.353   1.963   0.148  0.00  0.00    +0.100 C 
ATOM     27  C   LIG    1       -0.025   1.250   0.126  0.00  0.00    -0.050 A 
ATOM     28  C   LIG    1        1.149   1.980   0.097  0.00  0.00    +0.010 A 
ATOM     29  C   LIG    1        2.367   1.333   0.071  0.00  0.00    +0.050 A 
ATOM     30  C   LIG    1        2.413  -0.062   0.074  0.00  0.00    -0.040 A 
ATOM     31  C   LIG    1        1.225  -0.793   0.103  0.00  0.00    +0.080 A 
ATOM     32  C   LIG    1        0.013  -0.133   0.129  0.00  0.00    +0.020 A 
ENDBRANCH  21  30
ENDBRANCH  19  24
ENDBRANCH   1  19
TORSDOF 5
