REMARK  Name = ZINCpe000000UFnu.0
REMARK                            x       y       z     vdW  Elec       q    Type
REMARK                         _______ _______ _______ _____ _____    ______ ____
ROOT
ATOM      1  C   LIG    1       -1.210   3.331   0.026  0.00  0.00    +0.280 C 
ATOM      2  N   LIG    1       -1.191   1.867   0.018  0.00  0.00    -0.590 N 
ATOM      3  C   LIG    1       -0.014   1.209   0.009  0.00  0.00    +0.540 C 
ATOM      4  O   LIG    1        0.002  -0.004   0.002  0.00  0.00    -0.530 OA
ENDROOT
BRANCH   3   5
ATOM      5  C   LIG    1        1.280   1.980   0.001  0.00  0.00    +0.010 C 
ATOM      6  C   LIG    1        1.487   2.728   1.338  0.00  0.00    +0.090 C 
ATOM      7  C   LIG    1        2.309   1.772   2.175  0.00  0.00    +0.520 C 
ATOM      8  N   LIG    1        2.856   0.826   1.392  0.00  0.00    -0.590 N 
ATOM      9  O   LIG    1        2.453   1.849   3.376  0.00  0.00    -0.520 OA
ATOM     10  C   LIG    1        2.493   1.023  -0.016  0.00  0.00    +0.300 C 
BRANCH   8  11
ATOM     11  C   LIG    1        3.705  -0.263   1.882  0.00  0.00    +0.210 C 
ATOM     12  C   LIG    1        3.817  -0.444   3.398  0.00  0.00    +0.040 C 
ATOM     13  C   LIG    1        4.998   0.120   2.604  0.00  0.00    +0.000 C 
ENDBRANCH   8  11
ENDBRANCH   3   5
BRANCH   2  14
ATOM     14  C   LIG    1       -2.449   1.117   0.020  0.00  0.00    +0.400 C 
BRANCH  14  15
ATOM     15  C   LIG    1       -2.874   0.852   1.441  0.00  0.00    +0.430 A 
ATOM     16  N   LIG    1       -2.114   1.291   2.405  0.00  0.00    -0.580 NA
ATOM     17  C   LIG    1       -2.429   1.099   3.700  0.00  0.00    +0.530 A 
ATOM     18  C   LIG    1       -3.666   0.359   4.010  0.00  0.00    -0.210 A 
ATOM     19  C   LIG    1       -4.069   0.109   5.319  0.00  0.00    +0.110 A 
ATOM     20  C   LIG    1       -5.237  -0.588   5.547  0.00  0.00    -0.010 A 
ATOM     21  C   LIG    1       -6.007  -1.037   4.484  0.00  0.00    +0.080 A 
ATOM     22  C   LIG    1       -5.619  -0.797   3.182  0.00  0.00    -0.020 A 
ATOM     23  C   LIG    1       -4.447  -0.097   2.933  0.00  0.00    +0.180 A 
ATOM     24  O   LIG    1       -1.710   1.519   4.590  0.00  0.00    -0.470 OA
ATOM     25  N   LIG    1       -4.015   0.171   1.649  0.00  0.00    -0.620 N 
ATOM     26  H   LIG    1       -4.537  -0.135   0.891  0.00  0.00    +0.420 HD
ENDBRANCH  14  15
ENDBRANCH   2  14
TORSDOF 4
