REMARK  Name = ZINCvU0000000CBe.0
REMARK                            x       y       z     vdW  Elec       q    Type
REMARK                         _______ _______ _______ _____ _____    ______ ____
ROOT
ATOM      1  C   LIG    1       -3.783   7.344  -0.915  0.00  0.00    -0.010 C 
ATOM      2  C   LIG    1       -2.953   7.891   0.250  0.00  0.00    +0.040 C 
ATOM      3  C   LIG    1       -1.506   7.417   0.106  0.00  0.00    +0.170 C 
ATOM      4  N   LIG    1       -1.468   5.949   0.102  0.00  0.00    -0.510 NA
ATOM      5  C   LIG    1       -2.218   5.402  -1.035  0.00  0.00    +0.180 C 
ATOM      6  C   LIG    1       -3.688   5.815  -0.925  0.00  0.00    +0.030 C 
ENDROOT
BRANCH   4   7
ATOM      7  C   LIG    1       -0.083   5.458   0.104  0.00  0.00    +0.180 C 
ATOM      8  C   LIG    1        0.722   6.197  -0.966  0.00  0.00    +0.030 C 
BRANCH   7   9
ATOM      9  C   LIG    1        0.534   5.704   1.457  0.00  0.00    +0.520 C 
ATOM     10  N   LIG    1        1.690   5.096   1.790  0.00  0.00    -0.670 N 
ATOM     11  H   LIG    1        2.156   4.549   1.139  0.00  0.00    +0.410 HD
ATOM     12  O   LIG    1       -0.009   6.448   2.245  0.00  0.00    -0.500 OA
BRANCH  10  13
ATOM     13  C   LIG    1        2.219   5.254   3.077  0.00  0.00    +0.160 A 
ATOM     14  C   LIG    1        1.957   6.411   3.799  0.00  0.00    +0.040 A 
ATOM     15  C   LIG    1        2.479   6.564   5.069  0.00  0.00    +0.040 A 
ATOM     16  C   LIG    1        3.262   5.567   5.621  0.00  0.00    +0.000 A 
ATOM     17  C   LIG    1        3.525   4.413   4.905  0.00  0.00    +0.050 A 
ATOM     18  C   LIG    1        3.005   4.253   3.635  0.00  0.00    -0.070 A 
ATOM     19 CL   LIG    1        3.335   2.805   2.737  0.00  0.00    -0.070 Cl
ENDBRANCH  10  13
ENDBRANCH   7   9
ENDBRANCH   4   7
BRANCH   1  20
ATOM     20  C   LIG    1       -5.244   7.764  -0.744  0.00  0.00    +0.060 C 
BRANCH  20  21
ATOM     21  C   LIG    1       -5.336   9.268  -0.726  0.00  0.00    -0.070 A 
ATOM     22  C   LIG    1       -4.898  10.000  -1.814  0.00  0.00    +0.000 A 
ATOM     23  C   LIG    1       -4.986  11.379  -1.800  0.00  0.00    +0.000 A 
ATOM     24  C   LIG    1       -5.503  12.027  -0.694  0.00  0.00    +0.000 A 
ATOM     25  C   LIG    1       -5.936  11.295   0.396  0.00  0.00    +0.000 A 
ATOM     26  C   LIG    1       -5.852   9.916   0.380  0.00  0.00    +0.030 A 
ENDBRANCH  20  21
BRANCH  20  27
ATOM     27  C   LIG    1       -6.072   7.216  -1.909  0.00  0.00    +0.110 C 
BRANCH  27  28
ATOM     28  C   LIG    1       -7.529   7.524  -1.678  0.00  0.00    +0.460 C 
ATOM     29  O   LIG    1       -7.870   8.120  -0.684  0.00  0.00    -0.500 OA
BRANCH  28  30
ATOM     30  O   LIG    1       -8.447   7.136  -2.576  0.00  0.00    -0.360 OA
BRANCH  30  32
ATOM     31  C   LIG    1      -10.725   6.947  -3.417  0.00  0.00    +0.070 C 
ATOM     32  C   LIG    1       -9.832   7.467  -2.289  0.00  0.00    +0.200 C 
ENDBRANCH  30  32
ENDBRANCH  28  30
ENDBRANCH  27  28
ENDBRANCH  20  27
ENDBRANCH   1  20
TORSDOF 9
