REMARK  Name = ZINCqH0000038Wjt.0
REMARK                            x       y       z     vdW  Elec       q    Type
REMARK                         _______ _______ _______ _____ _____    ______ ____
ROOT
ATOM      1  C   LIG    1       -0.728   1.577   1.240  0.00  0.00    +0.520 C 
ATOM      2  N   LIG    1       -0.263   1.254   2.463  0.00  0.00    -0.620 N 
ATOM      3  H   LIG    1        0.532   0.705   2.550  0.00  0.00    +0.430 HD
ATOM      4  O   LIG    1       -1.722   2.263   1.131  0.00  0.00    -0.470 OA
ENDROOT
BRANCH   1  10
ATOM      5  C   LIG    1        4.288   3.093  -1.578  0.00  0.00    +0.330 C 
ATOM      6  N   LIG    1        3.264   2.491  -0.721  0.00  0.00    -0.450 N 
ATOM      7  C   LIG    1        3.385   2.199   0.595  0.00  0.00    +0.390 A 
ATOM      8  N   LIG    1        2.264   1.674   1.015  0.00  0.00    -0.490 NA
ATOM      9  C   LIG    1        1.401   1.613  -0.003  0.00  0.00    -0.010 A 
ATOM     10  C   LIG    1       -0.013   1.086   0.008  0.00  0.00    +0.100 C 
ATOM     11  C   LIG    1       -0.731   1.599  -1.246  0.00  0.00    +0.060 C 
ATOM     12  C   LIG    1        0.132   1.319  -2.480  0.00  0.00    +0.040 C 
ATOM     13  C   LIG    1        1.368   2.227  -2.456  0.00  0.00    +0.110 C 
ATOM     14  C   LIG    1        2.009   2.119  -1.097  0.00  0.00    -0.010 A 
ENDBRANCH   1  10
BRANCH   2  15
ATOM     15  C   LIG    1       -0.923   1.706   3.600  0.00  0.00    +0.280 A 
ATOM     16  N   LIG    1       -1.990   2.442   3.595  0.00  0.00    -0.480 NA
ATOM     17  C   LIG    1       -2.487   2.782   4.770  0.00  0.00    +0.250 A 
ATOM     18  C   LIG    1       -1.806   2.312   5.817  0.00  0.00    -0.240 A 
ATOM     19  S   LIG    1       -0.449   1.368   5.207  0.00  0.00    +0.120 S 
BRANCH  18  20
ATOM     20  C   LIG    1       -2.143   2.542   7.268  0.00  0.00    +0.140 C 
BRANCH  20  21
ATOM     21  C   LIG    1       -3.076   1.432   7.757  0.00  0.00    +0.070 C 
BRANCH  21  22
ATOM     22  C   LIG    1       -3.413   1.663   9.207  0.00  0.00    -0.080 A 
ATOM     23  C   LIG    1       -2.623   1.109  10.197  0.00  0.00    +0.000 A 
ATOM     24  C   LIG    1       -2.930   1.325  11.528  0.00  0.00    +0.000 A 
ATOM     25  C   LIG    1       -4.032   2.085  11.869  0.00  0.00    +0.000 A 
ATOM     26  C   LIG    1       -4.826   2.634  10.879  0.00  0.00    +0.000 A 
ATOM     27  C   LIG    1       -4.517   2.423   9.548  0.00  0.00    +0.000 A 
ENDBRANCH  21  22
ENDBRANCH  20  21
ENDBRANCH  18  20
ENDBRANCH   2  15
TORSDOF 5
