REMARK  Name = ZINCvU0000000CfB.0
REMARK                            x       y       z     vdW  Elec       q    Type
REMARK                         _______ _______ _______ _____ _____    ______ ____
ROOT
ATOM      1  S   LIG    1       -4.631   0.182   1.232  0.00  0.00    +0.080 S 
ENDROOT
BRANCH   1   2
ATOM      2  C   LIG    1       -4.884  -1.560   1.302  0.00  0.00    +0.160 A 
ATOM      3  N   LIG    1       -4.090  -2.483   0.809  0.00  0.00    -0.280 NA
ATOM      4  N   LIG    1       -4.574  -3.652   1.036  0.00  0.00    -0.260 NA
ATOM      5  C   LIG    1       -5.710  -3.550   1.691  0.00  0.00    +0.270 A 
ATOM      6  N   LIG    1       -5.942  -2.204   1.887  0.00  0.00    -0.410 N 
BRANCH   6   7
ATOM      7  C   LIG    1       -7.033  -1.619   2.544  0.00  0.00    +0.090 A 
ATOM      8  C   LIG    1       -7.225  -1.835   3.902  0.00  0.00    +0.040 A 
ATOM      9  C   LIG    1       -8.298  -1.253   4.548  0.00  0.00    +0.040 A 
ATOM     10  C   LIG    1       -9.188  -0.465   3.841  0.00  0.00    +0.050 A 
ATOM     11  C   LIG    1       -9.003  -0.253   2.487  0.00  0.00    +0.040 A 
ATOM     12  C   LIG    1       -7.928  -0.828   1.837  0.00  0.00    +0.040 A 
ENDBRANCH   6   7
BRANCH   5  13
ATOM     13  C   LIG    1       -6.567  -4.660   2.135  0.00  0.00    -0.140 A 
ATOM     14  C   LIG    1       -6.196  -5.958   2.191  0.00  0.00    +0.080 A 
ATOM     15  C   LIG    1       -7.175  -6.817   2.645  0.00  0.00    +0.010 A 
ATOM     16  C   LIG    1       -8.340  -6.237   2.950  0.00  0.00    -0.030 A 
ATOM     17  S   LIG    1       -8.235  -4.505   2.669  0.00  0.00    +0.150 S 
ENDBRANCH   5  13
ENDBRANCH   1   2
BRANCH   1  18
ATOM     18  C   LIG    1       -3.060   0.236   0.335  0.00  0.00    -0.020 C 
ATOM     19  C   LIG    1       -3.262  -0.309  -1.080  0.00  0.00    +0.090 C 
BRANCH  18  20
ATOM     20  C   LIG    1       -2.573   1.660   0.260  0.00  0.00    +0.440 C 
ATOM     21  O   LIG    1       -3.365   2.577   0.332  0.00  0.00    -0.430 OA
BRANCH  20  26
ATOM     22  C   LIG    1        0.776   2.974  -0.130  0.00  0.00    -0.260 A 
ATOM     23  C   LIG    1        0.991   1.604  -0.135  0.00  0.00    +0.120 A 
ATOM     24  N   LIG    1       -0.188   0.985   0.010  0.00  0.00    -0.520 N 
ATOM     25  H   LIG    1       -0.318   0.024   0.039  0.00  0.00    +0.420 HD
ATOM     26  C   LIG    1       -1.191   1.928   0.105  0.00  0.00    -0.100 A 
ATOM     27  C   LIG    1        2.329   0.924  -0.277  0.00  0.00    +0.160 C 
ATOM     28  C   LIG    1       -0.614   3.176   0.026  0.00  0.00    -0.010 A 
ATOM     29  C   LIG    1       -1.328   4.502   0.089  0.00  0.00    +0.140 C 
BRANCH  22  31
ATOM     30  C   LIG    1        2.219   4.490  -1.631  0.00  0.00    +0.070 C 
ATOM     31  C   LIG    1        1.799   4.017  -0.264  0.00  0.00    +0.430 C 
ATOM     32  O   LIG    1        2.307   4.499   0.727  0.00  0.00    -0.450 OA
ENDBRANCH  22  31
ENDBRANCH  20  26
ENDBRANCH  18  20
ENDBRANCH   1  18
TORSDOF 7
