REMARK  Name = ZINCpk00000FkzMT.0
REMARK                            x       y       z     vdW  Elec       q    Type
REMARK                         _______ _______ _______ _____ _____    ______ ____
ROOT
ATOM      1  C   LIG    1       -4.787  -0.367  -0.405  0.00  0.00    +0.150 C 
ENDROOT
BRANCH   1   2
ATOM      2  C   LIG    1       -6.157  -0.953  -0.178  0.00  0.00    +0.470 C 
ATOM      3  O   LIG    1       -6.288  -2.144  -0.028  0.00  0.00    -0.510 OA
BRANCH   2   4
ATOM      4  O   LIG    1       -7.232  -0.150  -0.141  0.00  0.00    -0.320 OA
BRANCH   4   6
ATOM      5  C   LIG    1       -8.805  -0.844   1.584  0.00  0.00    +0.070 C 
ATOM      6  C   LIG    1       -8.520  -0.782   0.082  0.00  0.00    +0.190 C 
BRANCH   6   7
ATOM      7  C   LIG    1       -9.598   0.019  -0.601  0.00  0.00    +0.530 C 
ATOM      8  N   LIG    1      -10.833  -0.501  -0.750  0.00  0.00    -0.620 N 
ATOM      9  C   LIG    1      -11.289  -1.792  -0.213  0.00  0.00    +0.240 C 
ATOM     10  C   LIG    1      -12.757  -1.978  -0.653  0.00  0.00    +0.040 C 
ATOM     11  C   LIG    1      -12.866  -1.052  -1.893  0.00  0.00    +0.040 C 
ATOM     12  C   LIG    1      -11.947   0.127  -1.483  0.00  0.00    +0.260 C 
ATOM     13  O   LIG    1       -9.355   1.132  -1.017  0.00  0.00    -0.510 OA
ENDBRANCH   6   7
ENDBRANCH   4   6
ENDBRANCH   2   4
ENDBRANCH   1   2
BRANCH   1  14
ATOM     14  C   LIG    1       -3.747  -1.489  -0.402  0.00  0.00    +0.150 C 
BRANCH  14  15
ATOM     15  C   LIG    1       -2.377  -0.904  -0.629  0.00  0.00    +0.450 A 
ATOM     16  N   LIG    1       -2.274   0.387  -0.786  0.00  0.00    -0.590 NA
ATOM     17  C   LIG    1       -1.084   0.984  -0.988  0.00  0.00    +0.530 A 
ATOM     18  C   LIG    1        0.119   0.134  -1.040  0.00  0.00    -0.210 A 
ATOM     19  C   LIG    1        1.390   0.662  -1.249  0.00  0.00    +0.110 A 
ATOM     20  C   LIG    1        2.478  -0.183  -1.281  0.00  0.00    -0.010 A 
ATOM     21  C   LIG    1        2.313  -1.550  -1.108  0.00  0.00    +0.080 A 
ATOM     22  C   LIG    1        1.060  -2.087  -0.900  0.00  0.00    -0.020 A 
ATOM     23  C   LIG    1       -0.048  -1.253  -0.864  0.00  0.00    +0.170 A 
ATOM     24  O   LIG    1       -1.005   2.192  -1.133  0.00  0.00    -0.480 OA
ATOM     25  N   LIG    1       -1.324  -1.740  -0.659  0.00  0.00    -0.620 N 
ATOM     26  H   LIG    1       -1.461  -2.692  -0.536  0.00  0.00    +0.420 HD
ENDBRANCH  14  15
ENDBRANCH   1  14
TORSDOF 6
