REMARK  Name = ZINCtV000002zX2N.0
REMARK                            x       y       z     vdW  Elec       q    Type
REMARK                         _______ _______ _______ _____ _____    ______ ____
ROOT
ATOM      1  C   LIG    1        7.881  -2.724  -0.192  0.00  0.00    +0.530 C 
ATOM      2  O   LIG    1        8.453  -1.651  -0.189  0.00  0.00    -0.460 OA
ENDROOT
BRANCH   1   4
ATOM      3  C   LIG    1        9.984  -4.026  -0.444  0.00  0.00    +0.020 A 
ATOM      4  C   LIG    1        8.653  -3.966  -0.322  0.00  0.00    -0.210 A 
ATOM      5  S   LIG    1        7.957  -5.577  -0.334  0.00  0.00    +0.200 S 
ATOM      6  C   LIG    1        9.544  -6.315  -0.519  0.00  0.00    -0.110 A 
ATOM      7  C   LIG    1        9.914  -7.660  -0.619  0.00  0.00    +0.040 A 
ATOM      8  C   LIG    1       11.237  -8.009  -0.754  0.00  0.00    +0.100 A 
ATOM      9  C   LIG    1       12.218  -7.028  -0.793  0.00  0.00    -0.010 A 
ATOM     10  C   LIG    1       11.882  -5.701  -0.696  0.00  0.00    +0.160 A 
ATOM     11  F   LIG    1       12.848  -4.758  -0.735  0.00  0.00    -0.120 F 
ATOM     12  C   LIG    1       10.525  -5.316  -0.556  0.00  0.00    -0.120 A 
BRANCH   3  13
ATOM     13  C   LIG    1       10.846  -2.789  -0.458  0.00  0.00    +0.250 C 
BRANCH  13  15
ATOM     14  C   LIG    1       12.061  -1.303   0.977  0.00  0.00    +0.210 C 
ATOM     15  O   LIG    1       11.237  -2.466   0.878  0.00  0.00    -0.380 OA
ENDBRANCH  13  15
ENDBRANCH   3  13
ENDBRANCH   1   4
BRANCH   1  16
ATOM     16  O   LIG    1        6.539  -2.774  -0.075  0.00  0.00    -0.280 OA
BRANCH  16  17
ATOM     17  C   LIG    1        5.875  -1.587  -0.079  0.00  0.00    +0.070 A 
ATOM     18  C   LIG    1        5.814  -0.832  -1.236  0.00  0.00    +0.080 A 
ATOM     19  C   LIG    1        5.133   0.380  -1.233  0.00  0.00    -0.110 A 
ATOM     20  C   LIG    1        4.510   0.839  -0.065  0.00  0.00    +0.090 A 
ATOM     21  O   LIG    1        3.925   2.028  -0.329  0.00  0.00    -0.200 OA
ATOM     22  C   LIG    1        4.117   2.401  -1.614  0.00  0.00    +0.080 A 
ATOM     23  C   LIG    1        3.714   3.520  -2.334  0.00  0.00    +0.030 A 
ATOM     24  C   LIG    1        4.059   3.647  -3.663  0.00  0.00    +0.060 A 
ATOM     25  C   LIG    1        4.807   2.666  -4.295  0.00  0.00    +0.000 A 
ATOM     26  C   LIG    1        5.215   1.549  -3.597  0.00  0.00    +0.070 A 
ATOM     27  C   LIG    1        4.581   0.068   1.090  0.00  0.00    +0.050 A 
ATOM     28  C   LIG    1        4.873   1.411  -2.256  0.00  0.00    -0.120 A 
ATOM     29  C   LIG    1        5.257  -1.133   1.081  0.00  0.00    +0.070 A 
ENDBRANCH  16  17
ENDBRANCH   1  16
TORSDOF 5
