REMARK  Name = ZINCqH0000008g14.0
REMARK                            x       y       z     vdW  Elec       q    Type
REMARK                         _______ _______ _______ _____ _____    ______ ____
ROOT
ATOM      1  C   LIG    1        1.481  -1.999   0.441  0.00  0.00    +0.530 C 
ATOM      2  N   LIG    1        2.658  -2.654   0.383  0.00  0.00    -0.610 N 
ATOM      3  C   LIG    1        3.927  -1.923   0.503  0.00  0.00    +0.260 C 
ATOM      4  C   LIG    1        4.759  -2.571   1.620  0.00  0.00    +0.010 C 
ATOM      5  C   LIG    1        4.919  -4.064   1.329  0.00  0.00    +0.010 C 
ATOM      6  C   LIG    1        3.542  -4.732   1.307  0.00  0.00    +0.020 C 
ATOM      7  C   LIG    1        2.696  -4.110   0.191  0.00  0.00    +0.220 C 
ATOM      8  O   LIG    1        0.440  -2.621   0.424  0.00  0.00    -0.520 OA
ENDROOT
BRANCH   1  10
ATOM      9  C   LIG    1        1.624   0.099  -0.872  0.00  0.00    +0.070 C 
ATOM     10  C   LIG    1        1.459  -0.495   0.528  0.00  0.00    -0.030 C 
BRANCH  10  11
ATOM     11  C   LIG    1        0.124  -0.038   1.121  0.00  0.00    +0.320 C 
BRANCH  11  12
ATOM     12  N   LIG    1        0.148   1.414   1.317  0.00  0.00    -0.710 N 
ATOM     13  H   LIG    1        0.938   1.922   1.076  0.00  0.00    +0.400 HD
ATOM     14  C   LIG    1       -0.929   2.043   1.827  0.00  0.00    +0.650 C 
ATOM     15  O   LIG    1       -1.920   1.406   2.124  0.00  0.00    -0.560 OA
BRANCH  14  16
ATOM     16  O   LIG    1       -0.907   3.377   2.006  0.00  0.00    -0.370 OA
BRANCH  16  17
ATOM     17  C   LIG    1       -2.102   3.988   2.560  0.00  0.00    +0.140 C 
ATOM     18  C   LIG    1       -3.289   3.717   1.632  0.00  0.00    +0.040 C 
ATOM     19  C   LIG    1       -1.890   5.497   2.690  0.00  0.00    +0.080 C 
ATOM     20  C   LIG    1       -2.387   3.392   3.940  0.00  0.00    +0.040 C 
ENDBRANCH  16  17
ENDBRANCH  14  16
ENDBRANCH  11  12
ENDBRANCH  10  11
ENDBRANCH   1  10
BRANCH   7  21
ATOM     21  C   LIG    1        1.274  -4.673   0.251  0.00  0.00    +0.110 C 
BRANCH  21  22
ATOM     22  C   LIG    1        1.312  -6.159   0.009  0.00  0.00    -0.080 A 
ATOM     23  C   LIG    1        1.325  -6.649  -1.284  0.00  0.00    +0.000 A 
ATOM     24  C   LIG    1        1.364  -8.013  -1.506  0.00  0.00    +0.000 A 
ATOM     25  C   LIG    1        1.381  -8.887  -0.435  0.00  0.00    -0.010 A 
ATOM     26  C   LIG    1        1.362  -8.398   0.858  0.00  0.00    +0.000 A 
ATOM     27  C   LIG    1        1.328  -7.034   1.080  0.00  0.00    +0.000 A 
ENDBRANCH  21  22
ENDBRANCH   7  21
TORSDOF 7
