REMARK  Name = ZINCrD000000Ccoi.0
REMARK                            x       y       z     vdW  Elec       q    Type
REMARK                         _______ _______ _______ _____ _____    ______ ____
ROOT
ATOM      1  O   LIG    1       -2.043   1.651   3.665  0.00  0.00    -0.550 OA
ATOM      2  C   LIG    1       -2.332   0.730   2.926  0.00  0.00    +0.700 C 
ATOM      3  N   LIG    1       -1.891   0.724   1.653  0.00  0.00    -0.720 N 
ATOM      4  H   LIG    1       -2.122  -0.011   1.063  0.00  0.00    +0.400 HD
ATOM      5  N   LIG    1       -3.094  -0.285   3.381  0.00  0.00    -0.680 N 
ATOM      6  H   LIG    1       -3.389  -0.980   2.772  0.00  0.00    +0.410 HD
ENDROOT
BRANCH   5   7
ATOM      7  C   LIG    1       -3.459  -0.335   4.731  0.00  0.00    +0.100 A 
ATOM      8  C   LIG    1       -2.600   0.143   5.701  0.00  0.00    +0.090 A 
ATOM      9  C   LIG    1       -3.015   0.075   7.043  0.00  0.00    -0.080 A 
ATOM     10  C   LIG    1       -2.199   0.546   8.085  0.00  0.00    +0.030 A 
ATOM     11  C   LIG    1       -2.633   0.459   9.372  0.00  0.00    +0.020 A 
ATOM     12  C   LIG    1       -3.877  -0.093   9.671  0.00  0.00    +0.030 A 
ATOM     13  C   LIG    1       -4.693  -0.560   8.687  0.00  0.00    +0.050 A 
ATOM     14  C   LIG    1       -4.281  -0.487   7.345  0.00  0.00    +0.110 A 
ATOM     15  N   LIG    1       -5.065  -0.938   6.361  0.00  0.00    -0.450 NA
ATOM     16  C   LIG    1       -4.695  -0.876   5.106  0.00  0.00    +0.280 A 
ENDBRANCH   5   7
BRANCH   3  17
ATOM     17  C   LIG    1       -1.063   1.826   1.159  0.00  0.00    +0.270 C 
ATOM     18  C   LIG    1       -0.186   1.356  -0.025  0.00  0.00    +0.080 C 
ATOM     19  C   LIG    1       -1.059   1.743  -1.239  0.00  0.00    +0.270 C 
ATOM     20  N   LIG    1       -1.905   2.849  -0.776  0.00  0.00    -0.580 N 
ATOM     21  C   LIG    1       -1.931   2.916   0.567  0.00  0.00    +0.510 C 
ATOM     22  O   LIG    1       -2.557   3.731   1.210  0.00  0.00    -0.490 OA
BRANCH  20  23
ATOM     23  C   LIG    1       -2.597   3.724  -1.623  0.00  0.00    +0.110 A 
ATOM     24  C   LIG    1       -3.889   3.421  -2.031  0.00  0.00    +0.050 A 
ATOM     25  C   LIG    1       -4.571   4.288  -2.862  0.00  0.00    +0.020 A 
ATOM     26  C   LIG    1       -3.965   5.451  -3.299  0.00  0.00    +0.060 A 
ATOM     27  C   LIG    1       -2.676   5.755  -2.900  0.00  0.00    -0.010 A 
ATOM     28  C   LIG    1       -1.989   4.895  -2.063  0.00  0.00    +0.110 A 
ATOM     29  F   LIG    1       -0.730   5.191  -1.673  0.00  0.00    -0.130 F 
ENDBRANCH  20  23
ENDBRANCH   3  17
TORSDOF 3
