REMARK  Name = ZINCpk000000nimK.0
REMARK                            x       y       z     vdW  Elec       q    Type
REMARK                         _______ _______ _______ _____ _____    ______ ____
ROOT
ATOM      1  C   LIG    1       -0.788  -3.177  -1.891  0.00  0.00    +0.310 C 
ENDROOT
BRANCH   1   6
ATOM      2  C   LIG    1        0.419  -5.173  -2.557  0.00  0.00    +0.200 C 
ATOM      3  C   LIG    1        0.726  -5.509  -4.032  0.00  0.00    +0.040 C 
ATOM      4  C   LIG    1        1.496  -4.255  -4.523  0.00  0.00    +0.030 C 
ATOM      5  C   LIG    1        0.778  -3.123  -3.747  0.00  0.00    +0.180 C 
ATOM      6  N   LIG    1        0.475  -3.706  -2.422  0.00  0.00    -0.500 NA
BRANCH   2   7
ATOM      7  C   LIG    1       -0.956  -5.669  -2.190  0.00  0.00    +0.460 C 
ATOM      8  O   LIG    1       -1.933  -5.161  -2.686  0.00  0.00    -0.500 OA
BRANCH   7   9
ATOM      9  O   LIG    1       -1.094  -6.675  -1.312  0.00  0.00    -0.340 OA
BRANCH   9  11
ATOM     10  C   LIG    1       -3.135  -7.577  -2.288  0.00  0.00    +0.030 C 
ATOM     11  C   LIG    1       -2.448  -7.101  -1.006  0.00  0.00    +0.120 C 
ATOM     12  C   LIG    1       -3.230  -5.928  -0.413  0.00  0.00    +0.030 C 
ATOM     13  C   LIG    1       -2.405  -8.248   0.005  0.00  0.00    +0.080 C 
ENDBRANCH   9  11
ENDBRANCH   7   9
ENDBRANCH   2   7
ENDBRANCH   1   6
BRANCH   1  14
ATOM     14  C   LIG    1       -0.579  -1.764  -1.411  0.00  0.00    -0.010 A 
ATOM     15  C   LIG    1       -0.815  -0.628  -2.108  0.00  0.00    +0.150 A 
ATOM     16  N   LIG    1       -0.485   0.395  -1.286  0.00  0.00    -0.290 N 
ATOM     17  N   LIG    1       -0.074  -0.100  -0.171  0.00  0.00    -0.080 NA
ATOM     18  N   LIG    1       -0.123  -1.385  -0.211  0.00  0.00    -0.250 NA
BRANCH  16  19
ATOM     19  C   LIG    1       -0.576   1.820  -1.611  0.00  0.00    +0.340 C 
BRANCH  19  20
ATOM     20  C   LIG    1       -1.429   2.530  -0.558  0.00  0.00    +0.340 C 
BRANCH  20  21
ATOM     21  N   LIG    1       -1.520   3.956  -0.882  0.00  0.00    -0.380 N 
ATOM     22  C   LIG    1       -2.658   4.662  -1.045  0.00  0.00    +0.240 A 
ATOM     23  C   LIG    1       -2.313   5.939  -1.332  0.00  0.00    -0.120 A 
ATOM     24  C   LIG    1       -0.917   6.013  -1.354  0.00  0.00    +0.240 A 
ATOM     25  N   LIG    1       -0.440   4.825  -1.085  0.00  0.00    -0.300 NA
ENDBRANCH  20  21
ENDBRANCH  19  20
ENDBRANCH  16  19
ENDBRANCH   1  14
TORSDOF 8
