REMARK  Name = ZINCrg00000bau6l.1
REMARK                            x       y       z     vdW  Elec       q    Type
REMARK                         _______ _______ _______ _____ _____    ______ ____
ROOT
ATOM      1  C   LIG    1       -0.175   0.070  -0.051  0.00  0.00    +0.230 C 
ATOM      2  C   LIG    1        0.605  -0.498  -1.239  0.00  0.00    +0.020 C 
ATOM      3  C   LIG    1        2.099  -0.229  -1.046  0.00  0.00    +0.020 C 
ATOM      4  C   LIG    1        2.338   1.283  -0.990  0.00  0.00    +0.260 C 
ATOM      5  N   LIG    1        1.481   1.859   0.056  0.00  0.00    -0.610 N 
ATOM      6  C   LIG    1        2.009   2.622   1.033  0.00  0.00    +0.520 C 
ATOM      7  O   LIG    1        1.308   3.015   1.942  0.00  0.00    -0.530 OA
ATOM      8  C   LIG    1        0.038   1.585   0.017  0.00  0.00    +0.230 C 
ATOM      9  C   LIG    1       -0.623   2.140   1.280  0.00  0.00    +0.060 C 
ENDROOT
BRANCH   1  11
ATOM     10  C   LIG    1       -0.203  -1.730   1.591  0.00  0.00    +0.520 C 
ATOM     11  N   LIG    1        0.304  -0.547   1.188  0.00  0.00    -0.720 N 
ATOM     12  H   LIG    1        0.985  -0.105   1.719  0.00  0.00    +0.400 HD
ATOM     13  O   LIG    1       -1.054  -2.282   0.928  0.00  0.00    -0.530 OA
BRANCH  10  14
ATOM     14  C   LIG    1        0.290  -2.365   2.866  0.00  0.00    +0.040 C 
BRANCH  14  16
ATOM     15  C   LIG    1       -1.929  -3.418   3.323  0.00  0.00    +0.060 C 
ATOM     16  C   LIG    1       -0.441  -3.690   3.091  0.00  0.00    +0.290 C 
BRANCH  16  17
ATOM     17  N   LIG    1        0.121  -4.364   4.264  0.00  0.00    -0.370 N 
ATOM     18  C   LIG    1       -0.232  -4.148   5.549  0.00  0.00    +0.220 A 
ATOM     19  C   LIG    1        0.514  -4.968   6.325  0.00  0.00    -0.120 A 
ATOM     20  C   LIG    1        1.357  -5.705   5.486  0.00  0.00    +0.220 A 
ATOM     21  N   LIG    1        1.122  -5.343   4.251  0.00  0.00    -0.300 NA
ENDBRANCH  16  17
ENDBRANCH  14  16
ENDBRANCH  10  14
ENDBRANCH   1  11
BRANCH   6  22
ATOM     22  C   LIG    1        3.471   2.987   0.997  0.00  0.00    +0.050 C 
BRANCH  22  23
ATOM     23  C   LIG    1        3.811   3.853   2.212  0.00  0.00    +0.160 C 
BRANCH  23  24
ATOM     24  C   LIG    1        5.272   4.218   2.176  0.00  0.00    -0.020 A 
ATOM     25  C   LIG    1        5.797   5.465   2.220  0.00  0.00    +0.160 A 
ATOM     26  N   LIG    1        7.140   5.312   2.162  0.00  0.00    -0.390 N 
ATOM     27  H   LIG    1        7.795   6.027   2.174  0.00  0.00    +0.450 HD
ATOM     28  N   LIG    1        7.399   4.053   2.089  0.00  0.00    -0.080 NA
ATOM     29  N   LIG    1        6.307   3.373   2.101  0.00  0.00    -0.260 NA
ENDBRANCH  23  24
ENDBRANCH  22  23
ENDBRANCH   6  22
TORSDOF 7
