REMARK  Name = ZINCrg00000bau6l.0
REMARK                            x       y       z     vdW  Elec       q    Type
REMARK                         _______ _______ _______ _____ _____    ______ ____
ROOT
ATOM      1  C   LIG    1        0.107   8.451  -2.137  0.00  0.00    +0.240 C 
ATOM      2  C   LIG    1       -0.691   8.044  -3.378  0.00  0.00    +0.020 C 
ATOM      3  C   LIG    1       -1.085   6.569  -3.271  0.00  0.00    +0.020 C 
ATOM      4  C   LIG    1        0.185   5.708  -3.210  0.00  0.00    +0.260 C 
ATOM      5  N   LIG    1        1.023   6.190  -2.103  0.00  0.00    -0.610 N 
ATOM      6  C   LIG    1        1.454   5.341  -1.149  0.00  0.00    +0.520 C 
ATOM      7  O   LIG    1        2.234   5.726  -0.303  0.00  0.00    -0.530 OA
ATOM      8  C   LIG    1        1.387   7.613  -2.059  0.00  0.00    +0.230 C 
ATOM      9  C   LIG    1        2.120   7.915  -0.751  0.00  0.00    +0.060 C 
ENDROOT
BRANCH   1  11
ATOM     10  C   LIG    1       -1.574   9.160  -0.522  0.00  0.00    +0.520 C 
ATOM     11  N   LIG    1       -0.702   8.220  -0.938  0.00  0.00    -0.720 N 
ATOM     12  H   LIG    1       -0.610   7.391  -0.443  0.00  0.00    +0.400 HD
ATOM     13  O   LIG    1       -1.690  10.197  -1.141  0.00  0.00    -0.530 OA
BRANCH  10  14
ATOM     14  C   LIG    1       -2.407   8.922   0.712  0.00  0.00    +0.040 C 
BRANCH  14  16
ATOM     15  C   LIG    1       -2.441  11.354   1.285  0.00  0.00    +0.060 C 
ATOM     16  C   LIG    1       -3.307  10.134   0.961  0.00  0.00    +0.290 C 
BRANCH  16  17
ATOM     17  N   LIG    1       -4.200   9.855   2.088  0.00  0.00    -0.370 N 
ATOM     18  C   LIG    1       -3.905  10.020   3.395  0.00  0.00    +0.220 A 
ATOM     19  C   LIG    1       -4.993   9.656   4.112  0.00  0.00    -0.120 A 
ATOM     20  C   LIG    1       -5.983   9.246   3.214  0.00  0.00    +0.220 A 
ATOM     21  N   LIG    1       -5.509   9.365   2.001  0.00  0.00    -0.300 NA
ENDBRANCH  16  17
ENDBRANCH  14  16
ENDBRANCH  10  14
ENDBRANCH   1  11
BRANCH   6  22
ATOM     22  C   LIG    1        0.968   3.915  -1.133  0.00  0.00    +0.050 C 
BRANCH  22  23
ATOM     23  C   LIG    1        1.605   3.172   0.043  0.00  0.00    +0.180 C 
BRANCH  23  24
ATOM     24  C   LIG    1        1.119   1.746   0.059  0.00  0.00    +0.010 A 
ATOM     25  N   LIG    1       -0.129   1.335   0.081  0.00  0.00    -0.280 NA
ATOM     26  N   LIG    1       -0.141   0.050   0.089  0.00  0.00    -0.250 N 
ATOM     27  H   LIG    1       -0.944  -0.494   0.104  0.00  0.00    +0.470 HD
ATOM     28  N   LIG    1        1.058  -0.417   0.073  0.00  0.00    -0.280 NA
ATOM     29  C   LIG    1        1.902   0.590   0.054  0.00  0.00    +0.180 A 
ENDBRANCH  23  24
ENDBRANCH  22  23
ENDBRANCH   6  22
TORSDOF 7
