REMARK  Name = ZINCrH000004uXgX.0
REMARK                            x       y       z     vdW  Elec       q    Type
REMARK                         _______ _______ _______ _____ _____    ______ ____
ROOT
ATOM      1  O   LIG    1        0.861   6.240  -0.601  0.00  0.00    -0.500 OA
ATOM      2  C   LIG    1        1.546   6.149   0.401  0.00  0.00    +0.570 C 
ATOM      3  N   LIG    1        2.134   4.976   0.710  0.00  0.00    -0.710 N 
ATOM      4  H   LIG    1        2.679   4.903   1.509  0.00  0.00    +0.400 HD
ENDROOT
BRANCH   3   5
ATOM      5  C   LIG    1        1.950   3.812  -0.160  0.00  0.00    +0.300 C 
ATOM      6  C   LIG    1        3.132   2.861   0.014  0.00  0.00    +0.020 C 
ATOM      7  C   LIG    1        2.819   1.559  -0.733  0.00  0.00    +0.030 C 
ATOM      8  C   LIG    1        1.706   0.829   0.016  0.00  0.00    +0.080 C 
ATOM      9  C   LIG    1        0.545   1.753   0.273  0.00  0.00    -0.070 A 
ATOM     10  C   LIG    1       -0.677   1.181   0.600  0.00  0.00    -0.010 A 
ATOM     11  C   LIG    1       -1.779   1.974   0.847  0.00  0.00    +0.010 A 
ATOM     12  C   LIG    1       -1.663   3.350   0.782  0.00  0.00    +0.000 A 
ATOM     13  C   LIG    1       -0.449   3.920   0.456  0.00  0.00    +0.020 A 
ATOM     14  C   LIG    1        0.658   3.124   0.198  0.00  0.00    -0.100 A 
ENDBRANCH   3   5
BRANCH   2  15
ATOM     15  C   LIG    1        1.730   7.313   1.272  0.00  0.00    -0.160 A 
ATOM     16  C   LIG    1        1.287   8.579   1.008  0.00  0.00    -0.610 A 
ATOM     17  C   LIG    1        1.593   9.480   2.000  0.00  0.00    +0.070 A 
ATOM     18  C   LIG    1        2.273   8.975   3.036  0.00  0.00    -0.060 A 
ATOM     19  S   LIG    1        2.563   7.307   2.820  0.00  0.00    +0.260 S 
BRANCH  16  20
ATOM     20  S   LIG    1        0.406   9.011  -0.455  0.00  0.00    +2.710 S 
ATOM     21  O   LIG    1       -0.939   8.601  -0.249  0.00  0.00    -0.940 OA
ATOM     22  O   LIG    1        1.196   8.562  -1.547  0.00  0.00    -0.930 OA
BRANCH  20  23
ATOM     23  N   LIG    1        0.382  10.664  -0.543  0.00  0.00    -1.000 NA
ATOM     24  C   LIG    1       -0.777  11.423  -0.055  0.00  0.00    +0.290 C 
ATOM     25  C   LIG    1       -0.284  12.477   0.948  0.00  0.00    +0.010 C 
ATOM     26  C   LIG    1        0.796  13.336   0.287  0.00  0.00    +0.020 C 
ATOM     27  C   LIG    1        1.982  12.453  -0.106  0.00  0.00    +0.010 C 
ATOM     28  C   LIG    1        1.518  11.399  -1.116  0.00  0.00    +0.290 C 
ENDBRANCH  20  23
ENDBRANCH  16  20
ENDBRANCH   2  15
TORSDOF 4
