REMARK  Name = ZINCpe00000MJKBV.2
REMARK                            x       y       z     vdW  Elec       q    Type
REMARK                         _______ _______ _______ _____ _____    ______ ____
ROOT
ATOM      1  C   LIG    1       -0.068   0.004   4.462  0.00  0.00    +0.670 C 
ATOM      2  N   LIG    1        0.197  -1.005   3.608  0.00  0.00    -0.600 N 
ATOM      3  C   LIG    1        0.900  -2.251   3.945  0.00  0.00    +0.240 C 
ATOM      4  C   LIG    1        0.945  -3.112   2.665  0.00  0.00    +0.190 C 
ATOM      5  C   LIG    1       -0.231  -2.547   1.825  0.00  0.00    +0.150 C 
ATOM      6  C   LIG    1       -0.172  -1.041   2.181  0.00  0.00    +0.310 C 
ATOM      7  O   LIG    1       -0.659   0.991   4.072  0.00  0.00    -0.570 OA
ENDROOT
BRANCH   5   8
ATOM      8  N   LIG    1       -0.001  -2.758   0.389  0.00  0.00    -0.510 NA
ATOM      9  C   LIG    1       -0.094  -4.186   0.044  0.00  0.00    +0.230 C 
ATOM     10  C   LIG    1       -1.417  -4.730   0.585  0.00  0.00    +0.050 C 
ATOM     11  C   LIG    1       -2.553  -3.838   0.156  0.00  0.00    -0.080 A 
ATOM     12  C   LIG    1       -3.847  -4.330   0.236  0.00  0.00    +0.000 A 
ATOM     13  C   LIG    1       -4.917  -3.545  -0.143  0.00  0.00    +0.000 A 
ATOM     14  C   LIG    1       -4.698  -2.259  -0.602  0.00  0.00    +0.000 A 
ATOM     15  C   LIG    1       -3.410  -1.768  -0.682  0.00  0.00    +0.010 A 
ATOM     16  C   LIG    1       -2.334  -2.557  -0.304  0.00  0.00    -0.120 A 
ATOM     17  C   LIG    1       -0.947  -1.979  -0.415  0.00  0.00    +0.280 C 
ENDBRANCH   5   8
BRANCH   4  18
ATOM     18  O   LIG    1        0.729  -4.490   2.975  0.00  0.00    -0.550 OA
ATOM     19  H   LIG    1        1.436  -4.891   3.499  0.00  0.00    +0.380 HD
ENDBRANCH   4  18
BRANCH   1  20
ATOM     20  O   LIG    1        0.323  -0.083   5.747  0.00  0.00    -0.360 OA
BRANCH  20  21
ATOM     21  C   LIG    1        0.005   1.040   6.611  0.00  0.00    +0.260 C 
BRANCH  21  22
ATOM     22  C   LIG    1        0.524   0.762   8.023  0.00  0.00    +0.210 C 
BRANCH  22  23
ATOM     23  O   LIG    1        1.952   0.695   8.000  0.00  0.00    -0.380 OA
BRANCH  23  24
ATOM     24  C   LIG    1        2.541   0.438   9.276  0.00  0.00    +0.330 C 
BRANCH  24  26
ATOM     25  C   LIG    1        5.174   0.351   9.030  0.00  0.00    +0.050 C 
ATOM     26  C   LIG    1        4.006   0.390   9.139  0.00  0.00    -0.200 C 
ENDBRANCH  24  26
ENDBRANCH  23  24
ENDBRANCH  22  23
ENDBRANCH  21  22
ENDBRANCH  20  21
ENDBRANCH   1  20
TORSDOF 8
