REMARK  Name = ZINCpk00000GjP61.0
REMARK                            x       y       z     vdW  Elec       q    Type
REMARK                         _______ _______ _______ _____ _____    ______ ____
ROOT
ATOM      1  C   LIG    1       -0.125   1.304  -2.596  0.00  0.00    -0.150 C 
ATOM      2  C   LIG    1       -1.380   0.548  -2.156  0.00  0.00    +0.150 C 
ATOM      3  C   LIG    1       -0.753   1.593  -1.232  0.00  0.00    +0.060 C 
ENDROOT
BRANCH   1   4
ATOM      4  C   LIG    1       -0.283   2.349  -3.671  0.00  0.00    +0.500 C 
ATOM      5  O   LIG    1       -0.887   3.369  -3.437  0.00  0.00    -0.490 OA
BRANCH   4   6
ATOM      6  O   LIG    1        0.248   2.147  -4.887  0.00  0.00    -0.330 OA
BRANCH   6   8
ATOM      7  C   LIG    1        0.726   2.791  -7.186  0.00  0.00    +0.070 C 
ATOM      8  C   LIG    1        0.057   3.197  -5.872  0.00  0.00    +0.200 C 
ENDBRANCH   6   8
ENDBRANCH   4   6
ENDBRANCH   1   4
BRANCH   1   9
ATOM      9  C   LIG    1        1.175   0.542  -2.617  0.00  0.00    +0.510 C 
ATOM     10  O   LIG    1        1.682   0.183  -1.581  0.00  0.00    -0.500 OA
BRANCH   9  11
ATOM     11  O   LIG    1        1.770   0.261  -3.787  0.00  0.00    -0.330 OA
BRANCH  11  12
ATOM     12  C   LIG    1        3.020  -0.476  -3.731  0.00  0.00    +0.200 C 
ATOM     13  C   LIG    1        3.543  -0.701  -5.151  0.00  0.00    +0.070 C 
ENDBRANCH  11  12
ENDBRANCH   9  11
ENDBRANCH   1   9
BRANCH   3  14
ATOM     14  C   LIG    1       -0.013   1.086   0.008  0.00  0.00    +0.390 C 
BRANCH  14  15
ATOM     15  N   LIG    1       -0.698   1.558   1.213  0.00  0.00    -0.360 N 
ATOM     16  C   LIG    1       -1.154   0.784   2.216  0.00  0.00    +0.310 A 
ATOM     17  C   LIG    1       -1.724   1.606   3.147  0.00  0.00    -0.220 A 
ATOM     18  C   LIG    1       -1.611   2.928   2.670  0.00  0.00    +0.270 A 
ATOM     19  N   LIG    1       -0.998   2.892   1.517  0.00  0.00    -0.290 NA
BRANCH  17  20
ATOM     20  C   LIG    1       -2.352   1.185   4.421  0.00  0.00    +0.270 A 
ATOM     21  C   LIG    1       -3.000   2.118   5.237  0.00  0.00    -0.080 A 
ATOM     22  C   LIG    1       -3.570   1.673   6.415  0.00  0.00    +0.320 A 
ATOM     23  N   LIG    1       -3.485   0.389   6.731  0.00  0.00    -0.540 NA
ATOM     24  C   LIG    1       -2.867  -0.466   5.940  0.00  0.00    +0.500 A 
ATOM     25  N   LIG    1       -2.314  -0.090   4.806  0.00  0.00    -0.530 NA
ENDBRANCH  17  20
ENDBRANCH  14  15
ENDBRANCH   3  14
TORSDOF 9
