REMARK  Name = ZINCpe00000MA4RG.0
REMARK                            x       y       z     vdW  Elec       q    Type
REMARK                         _______ _______ _______ _____ _____    ______ ____
ROOT
ATOM      1  S   LIG    1       -1.597  -0.948   5.486  0.00  0.00    +2.690 S 
ATOM      2  O   LIG    1       -2.038  -1.311   4.185  0.00  0.00    -0.910 OA
ATOM      3  O   LIG    1       -2.153   0.134   6.221  0.00  0.00    -0.950 OA
ENDROOT
BRANCH   1   4
ATOM      4  C   LIG    1       -1.784  -2.381   6.493  0.00  0.00    -0.670 A 
ATOM      5  C   LIG    1       -1.808  -3.635   5.909  0.00  0.00    +0.140 A 
ATOM      6  C   LIG    1       -1.948  -4.766   6.691  0.00  0.00    +0.020 A 
ATOM      7  C   LIG    1       -2.078  -4.642   8.065  0.00  0.00    +0.150 A 
ATOM      8  N   LIG    1       -2.236  -5.564   9.097  0.00  0.00    -0.640 N 
ATOM      9  H   LIG    1       -2.284  -6.528   8.995  0.00  0.00    +0.440 HD
ATOM     10  C   LIG    1       -2.311  -4.890  10.260  0.00  0.00    +0.690 A 
ATOM     11  N   LIG    1       -2.207  -3.568  10.026  0.00  0.00    -0.640 N 
ATOM     12  H   LIG    1       -2.231  -2.869  10.698  0.00  0.00    +0.440 HD
ATOM     13  O   LIG    1       -2.450  -5.399  11.357  0.00  0.00    -0.540 OA
ATOM     14  C   LIG    1       -2.059  -3.376   8.654  0.00  0.00    +0.070 A 
ATOM     15  C   LIG    1       -1.912  -2.248   7.862  0.00  0.00    +0.150 A 
ENDBRANCH   1   4
BRANCH   1  16
ATOM     16  N   LIG    1        0.026  -0.644   5.362  0.00  0.00    -1.100 NA
ATOM     17  H   LIG    1        0.398   0.168   5.742  0.00  0.00    +0.420 HD
BRANCH  16  24
ATOM     18  C   LIG    1        0.731  -0.503   1.223  0.00  0.00    +0.220 A 
ATOM     19  N   LIG    1        2.016  -0.745   1.296  0.00  0.00    -0.310 NA
ATOM     20  N   LIG    1        2.266  -1.185   2.598  0.00  0.00    -0.370 N 
ATOM     21  C   LIG    1        3.543  -1.583   3.192  0.00  0.00    +0.310 C 
ATOM     22  C   LIG    1        3.264  -2.385   4.468  0.00  0.00    +0.050 C 
ATOM     23  C   LIG    1        2.279  -1.614   5.351  0.00  0.00    +0.060 C 
ATOM     24  C   LIG    1        0.900  -1.600   4.679  0.00  0.00    +0.360 C 
ATOM     25  C   LIG    1        1.082  -1.186   3.239  0.00  0.00    +0.240 A 
ATOM     26  N   LIG    1        0.170  -0.776   2.403  0.00  0.00    -0.500 NA
BRANCH  18  28
ATOM     27  C   LIG    1       -0.019   1.526   0.010  0.00  0.00    +0.030 C 
ATOM     28  C   LIG    1        0.002  -0.004   0.002  0.00  0.00    +0.150 C 
ENDBRANCH  18  28
ENDBRANCH  16  24
ENDBRANCH   1  16
TORSDOF 4
