REMARK  Name = ZINCkj000005k7OT.1
REMARK                            x       y       z     vdW  Elec       q    Type
REMARK                         _______ _______ _______ _____ _____    ______ ____
ROOT
ATOM      1  N   LIG    1       -3.449   0.257   0.160  0.00  0.00    -0.700 N 
ATOM      2  H   LIG    1       -3.039  -0.404   0.739  0.00  0.00    +0.410 HD
ATOM      3  C   LIG    1       -4.364  -0.122  -0.755  0.00  0.00    +0.500 C 
ATOM      4  O   LIG    1       -4.877   0.704  -1.479  0.00  0.00    -0.530 OA
ENDROOT
BRANCH   3   5
ATOM      5  C   LIG    1       -4.750  -1.574  -0.877  0.00  0.00    +0.170 C 
ATOM      6  C   LIG    1       -3.516  -2.411  -1.246  0.00  0.00    +0.060 C 
ATOM      7  C   LIG    1       -3.895  -3.878  -1.442  0.00  0.00    +0.050 C 
ATOM      8  C   LIG    1       -5.053  -4.008  -2.445  0.00  0.00    +0.070 C 
ATOM      9  C   LIG    1       -6.199  -3.147  -1.933  0.00  0.00    +0.170 C 
ATOM     10  C   LIG    1       -7.411  -3.107  -2.880  0.00  0.00    +0.080 C 
ATOM     11  C   LIG    1       -8.075  -1.749  -2.486  0.00  0.00    +0.070 C 
ATOM     12  C   LIG    1       -6.948  -0.927  -1.814  0.00  0.00    +0.260 C 
ATOM     13  N   LIG    1       -5.733  -1.735  -1.938  0.00  0.00    -0.370 N 
ATOM     14  H   LIG    1       -5.300  -1.533  -2.826  0.00  0.00    +0.420 HD
ENDBRANCH   3   5
BRANCH   1  15
ATOM     15  C   LIG    1       -3.074   1.669   0.278  0.00  0.00    +0.370 C 
BRANCH  15  18
ATOM     16  C   LIG    1       -0.013   1.086   0.008  0.00  0.00    +0.150 C 
ATOM     17  C   LIG    1       -0.718   1.572   1.248  0.00  0.00    +0.110 A 
ATOM     18  C   LIG    1       -2.042   1.824   1.365  0.00  0.00    -0.280 A 
ATOM     19  C   LIG    1       -2.284   2.253   2.675  0.00  0.00    +0.260 A 
ATOM     20  N   LIG    1       -1.145   2.265   3.318  0.00  0.00    -0.290 NA
ATOM     21  N   LIG    1       -0.141   1.839   2.438  0.00  0.00    -0.360 N 
ATOM     22  C   LIG    1        1.283   1.706   2.755  0.00  0.00    +0.360 C 
ENDBRANCH  15  18
ENDBRANCH   1  15
TORSDOF 3
