REMARK  Name = ZINCkj000005k7OT.0
REMARK                            x       y       z     vdW  Elec       q    Type
REMARK                         _______ _______ _______ _____ _____    ______ ____
ROOT
ATOM      1  N   LIG    1       -0.721   1.571  -1.179  0.00  0.00    -0.700 N 
ATOM      2  H   LIG    1       -1.516   2.118  -1.079  0.00  0.00    +0.410 HD
ATOM      3  C   LIG    1       -0.268   1.258  -2.409  0.00  0.00    +0.500 C 
ATOM      4  O   LIG    1        0.726   0.575  -2.534  0.00  0.00    -0.530 OA
ENDROOT
BRANCH   3   5
ATOM      5  C   LIG    1       -0.997   1.758  -3.630  0.00  0.00    +0.170 C 
ATOM      6  C   LIG    1       -2.444   1.268  -3.582  0.00  0.00    +0.080 C 
ATOM      7  C   LIG    1       -3.155   1.815  -4.831  0.00  0.00    +0.060 C 
ATOM      8  C   LIG    1       -2.454   1.222  -6.053  0.00  0.00    +0.060 C 
ATOM      9  C   LIG    1       -0.981   1.637  -6.081  0.00  0.00    +0.180 C 
ATOM     10  C   LIG    1       -0.260   0.741  -7.125  0.00  0.00    +0.070 C 
ATOM     11  C   LIG    1        0.250  -0.472  -6.316  0.00  0.00    +0.060 C 
ATOM     12  C   LIG    1       -0.166  -0.183  -4.853  0.00  0.00    +0.260 C 
ATOM     13  N   LIG    1       -0.312   1.286  -4.814  0.00  0.00    -0.370 N 
ATOM     14  H   LIG    1        0.615   1.684  -4.825  0.00  0.00    +0.430 HD
ENDBRANCH   3   5
BRANCH   1  15
ATOM     15  C   LIG    1       -0.013   1.086   0.008  0.00  0.00    +0.370 C 
BRANCH  15  18
ATOM     16  C   LIG    1       -2.583  -0.168   1.276  0.00  0.00    +0.150 C 
ATOM     17  C   LIG    1       -1.830   1.029   1.796  0.00  0.00    +0.110 A 
ATOM     18  C   LIG    1       -0.718   1.572   1.248  0.00  0.00    -0.280 A 
ATOM     19  C   LIG    1       -0.336   2.660   2.039  0.00  0.00    +0.260 A 
ATOM     20  N   LIG    1       -1.193   2.773   3.021  0.00  0.00    -0.290 NA
ATOM     21  N   LIG    1       -2.143   1.752   2.892  0.00  0.00    -0.360 N 
ATOM     22  C   LIG    1       -3.277   1.511   3.788  0.00  0.00    +0.360 C 
ENDBRANCH  15  18
ENDBRANCH   1  15
TORSDOF 3
