REMARK  Name = ZINCpe00000MJKVE.0
REMARK                            x       y       z     vdW  Elec       q    Type
REMARK                         _______ _______ _______ _____ _____    ______ ____
ROOT
ATOM      1  O   LIG    1        2.764   4.053   1.031  0.00  0.00    -0.500 OA
ATOM      2  C   LIG    1        3.099   5.136   0.599  0.00  0.00    +0.500 C 
ATOM      3  N   LIG    1        2.186   5.945   0.025  0.00  0.00    -0.700 N 
ATOM      4  H   LIG    1        2.465   6.778  -0.384  0.00  0.00    +0.400 HD
ENDROOT
BRANCH   3   5
ATOM      5  C   LIG    1        0.771   5.564   0.021  0.00  0.00    +0.140 C 
ATOM      6  C   LIG    1       -0.033   5.820   1.298  0.00  0.00    +0.040 C 
ATOM      7  C   LIG    1       -0.264   6.691   0.062  0.00  0.00    +0.060 C 
BRANCH   5   8
ATOM      8  C   LIG    1        0.430   4.336  -0.781  0.00  0.00    -0.040 A 
ATOM      9  C   LIG    1        0.860   4.226  -2.091  0.00  0.00    +0.040 A 
ATOM     10  C   LIG    1        0.554   3.099  -2.830  0.00  0.00    +0.040 A 
ATOM     11  C   LIG    1       -0.192   2.079  -2.262  0.00  0.00    +0.030 A 
ATOM     12  O   LIG    1       -0.624   0.885  -2.765  0.00  0.00    -0.310 OA
ATOM     13  C   LIG    1       -1.669   0.450  -1.876  0.00  0.00    +0.430 C 
ATOM     14  O   LIG    1       -1.328   1.065  -0.619  0.00  0.00    -0.310 OA
ATOM     15  C   LIG    1       -0.625   2.189  -0.943  0.00  0.00    +0.030 A 
ATOM     16  C   LIG    1       -0.311   3.319  -0.207  0.00  0.00    +0.060 A 
ENDBRANCH   5   8
ENDBRANCH   3   5
BRANCH   2  17
ATOM     17  C   LIG    1        4.536   5.577   0.703  0.00  0.00    +0.310 C 
BRANCH  17  18
ATOM     18  N   LIG    1        5.322   4.530   1.360  0.00  0.00    -0.580 N 
ATOM     19  C   LIG    1        5.475   4.540   2.824  0.00  0.00    +0.290 C 
ATOM     20  C   LIG    1        4.638   3.392   3.405  0.00  0.00    +0.010 C 
ATOM     21  C   LIG    1        5.433   2.099   3.421  0.00  0.00    +0.020 C 
ATOM     22  C   LIG    1        5.747   1.555   2.039  0.00  0.00    +0.050 C 
ATOM     23  C   LIG    1        6.708   2.486   1.296  0.00  0.00    +0.190 C 
ATOM     24  C   LIG    1        5.900   3.577   0.627  0.00  0.00    +0.490 C 
ATOM     25  O   LIG    1        5.776   3.584  -0.580  0.00  0.00    -0.540 OA
BRANCH  23  26
ATOM     26  O   LIG    1        7.626   3.069   2.224  0.00  0.00    -0.540 OA
ATOM     27  H   LIG    1        8.256   3.683   1.821  0.00  0.00    +0.380 HD
ENDBRANCH  23  26
ENDBRANCH  17  18
ENDBRANCH   2  17
TORSDOF 5
