REMARK  Name = ZINCrg000000t3ii.1
REMARK                            x       y       z     vdW  Elec       q    Type
REMARK                         _______ _______ _______ _____ _____    ______ ____
ROOT
ATOM      1  C   LIG    1        1.162   2.102   0.002  0.00  0.00    -0.680 A 
ATOM      2  C   LIG    1        2.372   1.434  -0.013  0.00  0.00    +0.120 A 
ATOM      3  C   LIG    1        2.393   0.054  -0.024  0.00  0.00    +0.000 A 
ATOM      4  C   LIG    1        1.208  -0.670  -0.018  0.00  0.00    -0.010 A 
ATOM      5  C   LIG    1        1.303  -2.173  -0.038  0.00  0.00    +0.080 C 
ATOM      6  C   LIG    1       -0.016  -2.801   0.407  0.00  0.00    +0.030 C 
ATOM      7  C   LIG    1       -1.150  -2.176  -0.414  0.00  0.00    +0.040 C 
ATOM      8  C   LIG    1       -1.321  -0.724   0.025  0.00  0.00    +0.190 C 
ATOM      9  C   LIG    1        0.002  -0.004   0.002  0.00  0.00    -0.090 A 
ATOM     10  C   LIG    1       -0.017   1.385   0.010  0.00  0.00    +0.130 A 
ENDROOT
BRANCH   1  11
ATOM     11  S   LIG    1        1.125   3.863   0.013  0.00  0.00    +2.700 S 
ATOM     12  O   LIG    1       -0.138   4.241  -0.517  0.00  0.00    -0.960 OA
ATOM     13  O   LIG    1        2.360   4.294  -0.541  0.00  0.00    -0.960 OA
BRANCH  11  14
ATOM     14  N   LIG    1        1.130   4.344   1.597  0.00  0.00    -1.250 NA
ATOM     15  H   LIG    1        0.728   3.780   2.277  0.00  0.00    +0.420 HD
ATOM     16  H   LIG    1        1.535   5.190   1.846  0.00  0.00    +0.420 HD
ENDBRANCH  11  14
ENDBRANCH   1  11
BRANCH   8  17
ATOM     17  N   LIG    1       -2.256  -0.049  -0.885  0.00  0.00    -0.660 NA
ATOM     18  H   LIG    1       -2.063   0.940  -0.933  0.00  0.00    +0.350 HD
BRANCH  17  19
ATOM     19  C   LIG    1       -3.648  -0.295  -0.488  0.00  0.00    +0.170 C 
ATOM     20  C   LIG    1       -4.601  -0.062  -1.683  0.00  0.00    +0.070 C 
ATOM     21  C   LIG    1       -5.831   0.564  -0.988  0.00  0.00    +0.250 C 
ATOM     22  N   LIG    1       -5.313   1.187   0.237  0.00  0.00    -0.610 N 
ATOM     23  C   LIG    1       -4.091   0.718   0.544  0.00  0.00    +0.490 C 
ATOM     24  O   LIG    1       -3.439   1.058   1.508  0.00  0.00    -0.520 OA
BRANCH  22  25
ATOM     25  C   LIG    1       -6.036   2.189   1.023  0.00  0.00    +0.250 C 
ATOM     26  C   LIG    1       -5.213   3.479   1.090  0.00  0.00    -0.000 C 
ATOM     27  C   LIG    1       -5.939   4.493   1.978  0.00  0.00    +0.220 C 
ATOM     28  O   LIG    1       -6.140   3.929   3.276  0.00  0.00    -0.380 OA
ATOM     29  C   LIG    1       -6.942   2.747   3.281  0.00  0.00    +0.220 C 
ATOM     30  C   LIG    1       -6.257   1.663   2.445  0.00  0.00    -0.010 C 
ENDBRANCH  22  25
ENDBRANCH  17  19
ENDBRANCH   8  17
TORSDOF 5
