REMARK  Name = ZINCpe00000MJKuu.2
REMARK                            x       y       z     vdW  Elec       q    Type
REMARK                         _______ _______ _______ _____ _____    ______ ____
ROOT
ATOM      1  C   LIG    1       -3.823   7.869   1.538  0.00  0.00    +0.120 C 
ATOM      2  C   LIG    1       -3.017   6.943   0.590  0.00  0.00    +0.280 C 
ATOM      3  N   LIG    1       -1.909   6.432   1.417  0.00  0.00    -0.620 N 
ATOM      4  C   LIG    1       -1.659   7.384   2.509  0.00  0.00    +0.270 C 
ATOM      5  C   LIG    1       -1.233   5.286   1.203  0.00  0.00    +0.530 C 
ATOM      6  O   LIG    1       -0.331   4.966   1.948  0.00  0.00    -0.520 OA
ATOM      7  C   LIG    1       -2.687   8.525   2.367  0.00  0.00    +0.030 C 
ENDROOT
BRANCH   1  10
ATOM      8  C   LIG    1       -6.236  10.113   0.050  0.00  0.00    +0.290 A 
ATOM      9  N   LIG    1       -5.893   9.153   0.871  0.00  0.00    -0.530 NA
ATOM     10  C   LIG    1       -4.589   8.904   0.756  0.00  0.00    +0.240 A 
ATOM     11  N   LIG    1       -4.083   9.700  -0.149  0.00  0.00    -0.300 NA
ATOM     12  N   LIG    1       -5.138  10.498  -0.623  0.00  0.00    -0.460 N 
ATOM     13  H   LIG    1       -5.085  11.188  -1.302  0.00  0.00    +0.450 HD
BRANCH   8  14
ATOM     14  C   LIG    1       -7.621  10.683  -0.115  0.00  0.00    +0.320 C 
BRANCH  14  16
ATOM     15  C   LIG    1       -8.868  12.320  -1.344  0.00  0.00    +0.230 C 
ATOM     16  O   LIG    1       -7.597  11.710  -1.109  0.00  0.00    -0.400 OA
ENDBRANCH  14  16
ENDBRANCH   8  14
ENDBRANCH   1  10
BRANCH   7  17
ATOM     17  C   LIG    1       -3.203   8.964   3.739  0.00  0.00    -0.040 C 
ATOM     18  C   LIG    1       -3.186  10.461   4.054  0.00  0.00    +0.010 C 
ATOM     19  C   LIG    1       -2.182   9.526   4.730  0.00  0.00    +0.020 C 
ENDBRANCH   7  17
BRANCH   5  20
ATOM     20  C   LIG    1       -1.597   4.402   0.039  0.00  0.00    +0.170 C 
BRANCH  20  21
ATOM     21  C   LIG    1       -0.697   3.193   0.025  0.00  0.00    +0.080 A 
ATOM     22  N   LIG    1        0.611   3.211   0.013  0.00  0.00    -0.260 NA
ATOM     23  N   LIG    1        1.067   1.886   0.002  0.00  0.00    -0.380 N 
ATOM     24  C   LIG    1       -0.013   1.076   0.008  0.00  0.00    +0.220 A 
ATOM     25  C   LIG    1        2.467   1.456  -0.013  0.00  0.00    +0.350 C 
ATOM     26  C   LIG    1       -1.116   1.859   0.017  0.00  0.00    -0.120 A 
ENDBRANCH  20  21
ENDBRANCH   5  20
TORSDOF 6
