REMARK  Name = ZINCpe00000MJKuu.0
REMARK                            x       y       z     vdW  Elec       q    Type
REMARK                         _______ _______ _______ _____ _____    ______ ____
ROOT
ATOM      1  C   LIG    1        1.474   1.887  -0.002  0.00  0.00    +0.110 C 
ATOM      2  C   LIG    1       -0.018   1.470   0.010  0.00  0.00    +0.270 C 
ATOM      3  N   LIG    1        0.002  -0.004   0.002  0.00  0.00    -0.620 N 
ATOM      4  C   LIG    1        1.274  -0.455  -0.582  0.00  0.00    +0.270 C 
ATOM      5  C   LIG    1       -0.983  -0.805   0.455  0.00  0.00    +0.530 C 
ATOM      6  O   LIG    1       -0.858  -2.010   0.398  0.00  0.00    -0.510 OA
ATOM      7  C   LIG    1        2.092   0.807  -0.929  0.00  0.00    +0.030 C 
ENDROOT
BRANCH   1  12
ATOM      8  C   LIG    1        2.405   5.253  -0.959  0.00  0.00    +0.230 A 
ATOM      9  N   LIG    1        1.413   5.091  -1.794  0.00  0.00    -0.290 NA
ATOM     10  N   LIG    1        0.902   3.802  -1.572  0.00  0.00    -0.480 N 
ATOM     11  H   LIG    1        0.160   3.382  -2.035  0.00  0.00    +0.440 HD
ATOM     12  C   LIG    1        1.645   3.264  -0.589  0.00  0.00    +0.300 A 
ATOM     13  N   LIG    1        2.540   4.148  -0.227  0.00  0.00    -0.510 NA
BRANCH   8  14
ATOM     14  C   LIG    1        3.254   6.492  -0.838  0.00  0.00    +0.320 C 
BRANCH  14  16
ATOM     15  C   LIG    1        3.400   8.593   0.308  0.00  0.00    +0.220 C 
ATOM     16  O   LIG    1        2.668   7.380   0.117  0.00  0.00    -0.390 OA
ENDBRANCH  14  16
ENDBRANCH   8  14
ENDBRANCH   1  12
BRANCH   7  17
ATOM     17  C   LIG    1        3.572   0.598  -0.604  0.00  0.00    -0.040 C 
ATOM     18  C   LIG    1        4.590   0.947  -1.692  0.00  0.00    +0.020 C 
ATOM     19  C   LIG    1        4.308  -0.518  -1.349  0.00  0.00    +0.020 C 
ENDBRANCH   7  17
BRANCH   5  20
ATOM     20  C   LIG    1       -2.238  -0.204   1.031  0.00  0.00    +0.170 C 
BRANCH  20  21
ATOM     21  C   LIG    1       -3.172  -1.307   1.460  0.00  0.00    +0.080 A 
ATOM     22  N   LIG    1       -3.605  -2.283   0.704  0.00  0.00    -0.260 NA
ATOM     23  N   LIG    1       -4.448  -3.093   1.476  0.00  0.00    -0.370 N 
ATOM     24  C   LIG    1       -4.505  -2.568   2.718  0.00  0.00    +0.220 A 
ATOM     25  C   LIG    1       -5.145  -4.296   1.016  0.00  0.00    +0.360 C 
ATOM     26  C   LIG    1       -3.720  -1.466   2.737  0.00  0.00    -0.120 A 
ENDBRANCH  20  21
ENDBRANCH   5  20
TORSDOF 6
