REMARK  Name = ZINCpe00000MJKuu.1
REMARK                            x       y       z     vdW  Elec       q    Type
REMARK                         _______ _______ _______ _____ _____    ______ ____
ROOT
ATOM      1  C   LIG    1        0.002  -0.004   0.002  0.00  0.00    +0.120 C 
ATOM      2  C   LIG    1       -1.187  -0.560   0.808  0.00  0.00    +0.260 C 
ATOM      3  N   LIG    1       -2.025  -1.329  -0.131  0.00  0.00    -0.630 N 
ATOM      4  C   LIG    1       -1.120  -1.766  -1.219  0.00  0.00    +0.280 C 
ATOM      5  C   LIG    1       -3.345  -1.581  -0.021  0.00  0.00    +0.540 C 
ATOM      6  O   LIG    1       -3.910  -2.232  -0.874  0.00  0.00    -0.510 OA
ATOM      7  C   LIG    1       -0.204  -0.536  -1.435  0.00  0.00    +0.020 C 
ENDROOT
BRANCH   1  11
ATOM      8  C   LIG    1       -0.667   3.568   0.026  0.00  0.00    +0.180 A 
ATOM      9  N   LIG    1        0.637   3.517   0.014  0.00  0.00    -0.280 NA
ATOM     10  N   LIG    1        1.022   2.291   0.005  0.00  0.00    -0.270 NA
ATOM     11  C   LIG    1       -0.018   1.503   0.010  0.00  0.00    +0.190 A 
ATOM     12  N   LIG    1       -1.121   2.291   0.019  0.00  0.00    -0.560 N 
ATOM     13  H   LIG    1       -2.046   2.000   0.022  0.00  0.00    +0.430 HD
BRANCH   8  14
ATOM     14  C   LIG    1       -1.513   4.815   0.040  0.00  0.00    +0.330 C 
BRANCH  14  16
ATOM     15  C   LIG    1       -3.788   5.570   0.064  0.00  0.00    +0.220 C 
ATOM     16  O   LIG    1       -2.895   4.454   0.050  0.00  0.00    -0.400 OA
ENDBRANCH  14  16
ENDBRANCH   8  14
ENDBRANCH   1  11
BRANCH   7  17
ATOM     17  C   LIG    1        1.131  -0.957  -2.053  0.00  0.00    -0.030 C 
ATOM     18  C   LIG    1        1.673  -0.112  -3.208  0.00  0.00    +0.020 C 
ATOM     19  C   LIG    1        1.106  -1.508  -3.481  0.00  0.00    +0.010 C 
ENDBRANCH   7  17
BRANCH   5  20
ATOM     20  C   LIG    1       -4.117  -1.054   1.161  0.00  0.00    +0.170 C 
BRANCH  20  21
ATOM     21  C   LIG    1       -5.560  -1.472   1.044  0.00  0.00    +0.080 A 
ATOM     22  N   LIG    1       -6.346  -1.242   0.024  0.00  0.00    -0.260 NA
ATOM     23  N   LIG    1       -7.603  -1.791   0.307  0.00  0.00    -0.370 N 
ATOM     24  C   LIG    1       -7.543  -2.356   1.531  0.00  0.00    +0.220 A 
ATOM     25  C   LIG    1       -8.776  -1.757  -0.571  0.00  0.00    +0.360 C 
ATOM     26  C   LIG    1       -6.289  -2.178   2.007  0.00  0.00    -0.120 A 
ENDBRANCH  20  21
ENDBRANCH   5  20
TORSDOF 6
