REMARK  Name = ZINCpe00000gLSpw.0
REMARK                            x       y       z     vdW  Elec       q    Type
REMARK                         _______ _______ _______ _____ _____    ______ ____
ROOT
ATOM      1  N   LIG    1        3.185   2.204  -0.974  0.00  0.00    -0.590 N 
ATOM      2  C   LIG    1        4.480   2.461  -0.808  0.00  0.00    +0.520 C 
ATOM      3  C   LIG    1        5.210   2.232   0.484  0.00  0.00    +0.070 C 
ATOM      4  C   LIG    1        4.401   1.289   1.379  0.00  0.00    +0.040 C 
ATOM      5  C   LIG    1        2.954   1.793   1.432  0.00  0.00    -0.020 C 
ATOM      6  O   LIG    1        5.104   2.906  -1.748  0.00  0.00    -0.550 OA
ATOM      7  C   LIG    1        2.325   1.622   0.048  0.00  0.00    +0.320 C 
ENDROOT
BRANCH   7   8
ATOM      8  C   LIG    1        0.984   2.309   0.022  0.00  0.00    -0.260 A 
ATOM      9  C   LIG    1       -0.223   1.699   0.022  0.00  0.00    +0.260 A 
ATOM     10  N   LIG    1       -1.170   2.660  -0.011  0.00  0.00    -0.370 N 
ATOM     11  N   LIG    1       -0.523   3.902  -0.023  0.00  0.00    -0.290 NA
ATOM     12  C   LIG    1       -2.619   2.442  -0.028  0.00  0.00    +0.360 C 
ATOM     13  C   LIG    1        0.768   3.691  -0.006  0.00  0.00    +0.250 A 
ENDBRANCH   7   8
BRANCH   1  15
ATOM     14  C   LIG    1        2.804   1.356  -3.236  0.00  0.00    +0.010 C 
ATOM     15  C   LIG    1        2.587   2.525  -2.273  0.00  0.00    +0.260 C 
ENDBRANCH   1  15
BRANCH   5  16
ATOM     16  C   LIG    1        2.164   0.979   2.459  0.00  0.00    +0.270 C 
BRANCH  16  17
ATOM     17  N   LIG    1        2.695   1.238   3.800  0.00  0.00    -0.720 N 
ATOM     18  H   LIG    1        3.438   1.851   3.917  0.00  0.00    +0.410 HD
ATOM     19  C   LIG    1        2.151   0.626   4.870  0.00  0.00    +0.610 C 
ATOM     20  O   LIG    1        1.219  -0.141   4.722  0.00  0.00    -0.550 OA
BRANCH  19  21
ATOM     21  C   LIG    1        2.684   0.887   6.218  0.00  0.00    -0.070 A 
ATOM     22  C   LIG    1        2.229   0.344   7.384  0.00  0.00    +0.230 A 
ATOM     23  N   LIG    1        2.999   0.847   8.378  0.00  0.00    -0.460 N 
ATOM     24  C   LIG    1        3.902   1.692   7.815  0.00  0.00    +0.400 A 
ATOM     25  C   LIG    1        2.875   0.541   9.805  0.00  0.00    +0.330 C 
ATOM     26  N   LIG    1        3.714   1.716   6.527  0.00  0.00    -0.470 NA
ENDBRANCH  19  21
ENDBRANCH  16  17
ENDBRANCH   5  16
TORSDOF 5
