REMARK  Name = ZINC9p0000002mUg.0
REMARK                            x       y       z     vdW  Elec       q    Type
REMARK                         _______ _______ _______ _____ _____    ______ ____
ROOT
ATOM      1  C   LIG    1       -0.013   1.086   0.008  0.00  0.00    +0.170 C 
ATOM      2  C   LIG    1       -0.752   1.592  -1.233  0.00  0.00    +0.060 C 
ATOM      3  C   LIG    1       -2.187   1.061  -1.218  0.00  0.00    +0.040 C 
ATOM      4  C   LIG    1       -2.869   1.498   0.081  0.00  0.00    +0.050 C 
ATOM      5  C   LIG    1       -2.053   0.995   1.274  0.00  0.00    +0.250 C 
ATOM      6  N   LIG    1       -0.699   1.559   1.217  0.00  0.00    -0.510 N 
ATOM      7  H   LIG    1       -0.755   2.566   1.198  0.00  0.00    +0.430 HD
ATOM      8  H   LIG    1       -0.180   1.268   2.032  0.00  0.00    +0.430 HD
ENDROOT
BRANCH   1   9
ATOM      9  C   LIG    1        1.423   1.615  -0.003  0.00  0.00    +0.050 C 
BRANCH   9  11
ATOM     10  C   LIG    1        3.634   1.537   1.157  0.00  0.00    +0.030 C 
ATOM     11  C   LIG    1        2.199   1.008   1.168  0.00  0.00    -0.000 C 
ENDBRANCH   9  11
ENDBRANCH   1   9
TORSDOF 2
