REMARK  Name = ZINCpe00000gM5XF.0
REMARK                            x       y       z     vdW  Elec       q    Type
REMARK                         _______ _______ _______ _____ _____    ______ ____
ROOT
ATOM      1  S   LIG    1       -0.333   3.692  -2.208  0.00  0.00    +2.690 S 
ATOM      2  O   LIG    1        0.454   2.635  -2.739  0.00  0.00    -0.940 OA
ATOM      3  O   LIG    1        0.186   4.987  -1.939  0.00  0.00    -0.950 OA
ENDROOT
BRANCH   1   8
ATOM      4  C   LIG    1       -3.145   3.061  -5.020  0.00  0.00    -0.150 A 
ATOM      5  C   LIG    1       -3.803   4.291  -5.068  0.00  0.00    +0.100 A 
ATOM      6  C   LIG    1       -3.395   5.320  -4.245  0.00  0.00    +0.000 A 
ATOM      7  C   LIG    1       -2.337   5.135  -3.373  0.00  0.00    +0.160 A 
ATOM      8  C   LIG    1       -1.680   3.917  -3.321  0.00  0.00    -0.690 A 
ATOM      9  C   LIG    1       -2.075   2.882  -4.143  0.00  0.00    +0.190 A 
BRANCH   4  12
ATOM     10  C   LIG    1       -5.290   0.825  -7.214  0.00  0.00    +0.290 C 
ATOM     11  N   LIG    1       -4.787   1.996  -6.493  0.00  0.00    -0.620 N 
ATOM     12  C   LIG    1       -3.577   1.953  -5.900  0.00  0.00    +0.560 C 
ATOM     13  O   LIG    1       -2.841   1.004  -6.088  0.00  0.00    -0.530 OA
ATOM     14  C   LIG    1       -5.597   3.214  -6.416  0.00  0.00    +0.290 C 
ENDBRANCH   4  12
ENDBRANCH   1   8
BRANCH   1  15
ATOM     15  N   LIG    1       -0.964   3.135  -0.781  0.00  0.00    -1.110 NA
ATOM     16  H   LIG    1       -0.904   3.678   0.020  0.00  0.00    +0.420 HD
BRANCH  15  17
ATOM     17  C   LIG    1       -1.612   1.823  -0.730  0.00  0.00    +0.270 C 
ATOM     18  C   LIG    1       -3.130   1.988  -0.881  0.00  0.00    +0.020 C 
ATOM     19  C   LIG    1       -3.623   2.974   0.180  0.00  0.00    +0.070 C 
ATOM     20  C   LIG    1       -3.114   2.582   1.536  0.00  0.00    +0.520 C 
ATOM     21  N   LIG    1       -2.063   1.777   1.722  0.00  0.00    -0.700 N 
ATOM     22  H   LIG    1       -1.773   1.595   2.630  0.00  0.00    +0.400 HD
ATOM     23  O   LIG    1       -3.685   3.018   2.514  0.00  0.00    -0.550 OA
ATOM     24  C   LIG    1       -1.333   1.163   0.620  0.00  0.00    +0.140 C 
ATOM     25  C   LIG    1        0.163   0.969   0.903  0.00  0.00    +0.040 C 
ATOM     26  C   LIG    1       -0.207  -0.405   1.487  0.00  0.00    +0.020 C 
ATOM     27  C   LIG    1       -1.451  -0.367   0.582  0.00  0.00    +0.030 C 
ENDBRANCH  15  17
ENDBRANCH   1  15
TORSDOF 4
