REMARK  Name = ZINCpe00000gMTvB.2
REMARK                            x       y       z     vdW  Elec       q    Type
REMARK                         _______ _______ _______ _____ _____    ______ ____
ROOT
ATOM      1  N   LIG    1       -0.110   1.281   0.193  0.00  0.00    -0.730 N 
ATOM      2  H   LIG    1       -0.146   0.312   0.154  0.00  0.00    +0.400 HD
ATOM      3  C   LIG    1        1.079   1.913   0.161  0.00  0.00    +0.520 C 
ATOM      4  O   LIG    1        1.124   3.125   0.209  0.00  0.00    -0.520 OA
ENDROOT
BRANCH   1   5
ATOM      5  C   LIG    1       -1.350   2.057   0.278  0.00  0.00    +0.290 C 
BRANCH   5   6
ATOM      6  C   LIG    1       -2.547   1.104   0.291  0.00  0.00    +0.200 C 
BRANCH   6   7
ATOM      7  O   LIG    1       -2.514   0.313   1.480  0.00  0.00    -0.310 OA
BRANCH   7  13
ATOM      8  C   LIG    1       -4.595  -3.181   4.178  0.00  0.00    +0.090 C 
ATOM      9  C   LIG    1       -4.563  -2.311   2.949  0.00  0.00    -0.050 A 
ATOM     10  C   LIG    1       -5.551  -2.431   1.990  0.00  0.00    -0.040 A 
ATOM     11  C   LIG    1       -5.525  -1.633   0.862  0.00  0.00    +0.050 A 
ATOM     12  C   LIG    1       -4.509  -0.714   0.688  0.00  0.00    -0.090 A 
ATOM     13  C   LIG    1       -3.515  -0.591   1.649  0.00  0.00    +0.130 A 
ATOM     14  C   LIG    1       -3.541  -1.396   2.778  0.00  0.00    -0.020 A 
ENDBRANCH   7  13
ENDBRANCH   6   7
ENDBRANCH   5   6
ENDBRANCH   1   5
BRANCH   3  15
ATOM     15  C   LIG    1        2.355   1.116   0.067  0.00  0.00    +0.200 C 
BRANCH  15  16
ATOM     16  N   LIG    1        3.504   2.030   0.049  0.00  0.00    -0.520 NA
ATOM     17  C   LIG    1        3.512   2.842  -1.176  0.00  0.00    +0.190 C 
ATOM     18  C   LIG    1        4.676   3.834  -1.119  0.00  0.00    +0.200 C 
ATOM     19  N   LIG    1        5.939   3.097  -0.972  0.00  0.00    -0.530 NA
ATOM     20  C   LIG    1        5.931   2.285   0.253  0.00  0.00    +0.130 C 
ATOM     21  C   LIG    1        7.250   1.518   0.366  0.00  0.00    +0.030 C 
ATOM     22  C   LIG    1        4.766   1.293   0.197  0.00  0.00    +0.180 C 
BRANCH  19  23
ATOM     23  C   LIG    1        7.088   4.011  -0.990  0.00  0.00    +0.150 C 
BRANCH  23  24
ATOM     24  C   LIG    1        7.312   4.521  -2.414  0.00  0.00    +0.220 C 
ATOM     25  C   LIG    1        8.608   5.333  -2.468  0.00  0.00    +0.010 C 
BRANCH  24  26
ATOM     26  O   LIG    1        6.214   5.351  -2.802  0.00  0.00    -0.560 OA
ATOM     27  H   LIG    1        6.089   6.126  -2.237  0.00  0.00    +0.370 HD
ENDBRANCH  24  26
ENDBRANCH  23  24
ENDBRANCH  19  23
ENDBRANCH  15  16
ENDBRANCH   3  15
TORSDOF 9
