REMARK  Name = ZINCb80000003WuV.0
REMARK                            x       y       z     vdW  Elec       q    Type
REMARK                         _______ _______ _______ _____ _____    ______ ____
ROOT
ATOM      1  O   LIG    1        2.980   2.927  -2.949  0.00  0.00    -0.520 OA
ATOM      2  C   LIG    1        2.417   2.884  -1.873  0.00  0.00    +0.650 C 
ATOM      3  N   LIG    1        2.071   1.734  -1.273  0.00  0.00    -0.730 N 
ATOM      4  H   LIG    1        2.228   0.844  -1.623  0.00  0.00    +0.430 HD
ATOM      5  C   LIG    1        1.415   2.049  -0.001  0.00  0.00    +0.120 C 
ATOM      6  C   LIG    1        1.426   3.584   0.062  0.00  0.00    +0.270 C 
ATOM      7  C   LIG    1       -0.019   1.528   0.010  0.00  0.00    +0.020 C 
ATOM      8  C   LIG    1        0.002  -0.004   0.002  0.00  0.00    +0.210 C 
ATOM      9  O   LIG    1        0.759  -0.474   1.119  0.00  0.00    -0.380 OA
ATOM     10  C   LIG    1        2.129  -0.064   1.112  0.00  0.00    +0.210 C 
ATOM     11  C   LIG    1        2.202   1.465   1.170  0.00  0.00    +0.020 C 
ATOM     12  O   LIG    1        2.084   3.978  -1.178  0.00  0.00    -0.330 OA
ENDROOT
TORSDOF 0
