REMARK  Name = ZINCrD000000AxqS.0
REMARK                            x       y       z     vdW  Elec       q    Type
REMARK                         _______ _______ _______ _____ _____    ______ ____
ROOT
ATOM      1  S   LIG    1        0.027  -0.618   1.709  0.00  0.00    +1.310 S 
ATOM      2  O   LIG    1       -1.173  -0.234   2.367  0.00  0.00    -0.800 OA
ENDROOT
BRANCH   1   3
ATOM      3  C   LIG    1        0.049  -2.419   1.494  0.00  0.00    -0.220 C 
BRANCH   3   5
ATOM      4  O   LIG    1        0.071  -2.412   3.854  0.00  0.00    -0.510 OA
ATOM      5  C   LIG    1        0.071  -3.086   2.846  0.00  0.00    +0.550 C 
ATOM      6  N   LIG    1        0.090  -4.430   2.934  0.00  0.00    -0.550 N 
ATOM      7  C   LIG    1        0.112  -5.190   4.187  0.00  0.00    +0.280 C 
ATOM      8  C   LIG    1        0.128  -6.667   3.762  0.00  0.00    +0.100 C 
ATOM      9  C   LIG    1        0.112  -6.630   2.251  0.00  0.00    -0.130 A 
ATOM     10  C   LIG    1        0.117  -7.649   1.319  0.00  0.00    +0.060 A 
ATOM     11  C   LIG    1        0.084  -7.356  -0.032  0.00  0.00    -0.010 A 
ATOM     12  C   LIG    1        0.062  -6.038  -0.449  0.00  0.00    +0.040 A 
ATOM     13  C   LIG    1        0.062  -5.016   0.477  0.00  0.00    -0.020 A 
ATOM     14  C   LIG    1        0.086  -5.305   1.843  0.00  0.00    +0.140 A 
ENDBRANCH   3   5
ENDBRANCH   1   3
BRANCH   1  15
ATOM     15  C   LIG    1        0.002  -0.004   0.002  0.00  0.00    -0.190 C 
BRANCH  15  16
ATOM     16  C   LIG    1       -0.018   1.503   0.010  0.00  0.00    -0.050 A 
ATOM     17  C   LIG    1        1.170   2.208   0.003  0.00  0.00    +0.050 A 
ATOM     18  C   LIG    1        1.159   3.592   0.011  0.00  0.00    -0.030 A 
ATOM     19  C   LIG    1       -0.049   4.269   0.027  0.00  0.00    +0.080 A 
ATOM     20  O   LIG    1       -0.075   5.634   0.037  0.00  0.00    -0.310 OA
ATOM     21  C   LIG    1       -0.574   6.257  -1.148  0.00  0.00    +0.230 C 
ATOM     22  C   LIG    1       -2.092   6.339  -1.117  0.00  0.00    -0.010 C 
ATOM     23  C   LIG    1       -2.746   4.966  -1.137  0.00  0.00    +0.230 C 
ATOM     24  O   LIG    1       -2.428   4.236   0.049  0.00  0.00    -0.310 OA
ATOM     25  C   LIG    1       -1.242   3.560   0.034  0.00  0.00    +0.090 A 
ATOM     26 CL   LIG    1        2.653   4.477   0.001  0.00  0.00    -0.040 Cl
ATOM     27  C   LIG    1       -1.227   2.176   0.020  0.00  0.00    +0.040 A 
ENDBRANCH  15  16
ENDBRANCH   1  15
TORSDOF 4
