REMARK  Name = ZINCpk00000y6u9s.2
REMARK                            x       y       z     vdW  Elec       q    Type
REMARK                         _______ _______ _______ _____ _____    ______ ____
ROOT
ATOM      1  C   LIG    1        3.365   8.621  -1.377  0.00  0.00    +0.120 C 
ATOM      2  C   LIG    1        2.727   7.430  -0.632  0.00  0.00    +0.270 C 
ATOM      3  N   LIG    1        2.193   6.514  -1.650  0.00  0.00    -0.620 N 
ATOM      4  C   LIG    1        2.495   7.062  -2.985  0.00  0.00    +0.290 C 
ATOM      5  C   LIG    1        1.540   5.361  -1.404  0.00  0.00    +0.530 C 
ATOM      6  O   LIG    1        1.142   4.681  -2.326  0.00  0.00    -0.520 OA
ATOM      7  C   LIG    1        2.656   8.588  -2.757  0.00  0.00    +0.040 C 
ENDROOT
BRANCH   1  10
ATOM      8  C   LIG    1        3.403  11.782   0.378  0.00  0.00    +0.290 A 
ATOM      9  N   LIG    1        3.992  10.758  -0.184  0.00  0.00    -0.530 NA
ATOM     10  C   LIG    1        3.076   9.915  -0.660  0.00  0.00    +0.240 A 
ATOM     11  N   LIG    1        1.887  10.390  -0.400  0.00  0.00    -0.300 NA
ATOM     12  N   LIG    1        2.074  11.607   0.276  0.00  0.00    -0.460 N 
ATOM     13  H   LIG    1        1.383  12.202   0.605  0.00  0.00    +0.450 HD
BRANCH   8  14
ATOM     14  C   LIG    1        4.094  12.952   1.030  0.00  0.00    +0.320 C 
BRANCH  14  16
ATOM     15  C   LIG    1        3.668  15.014   2.175  0.00  0.00    +0.230 C 
ATOM     16  O   LIG    1        3.115  13.863   1.533  0.00  0.00    -0.400 OA
ENDBRANCH  14  16
ENDBRANCH   8  14
ENDBRANCH   1  10
BRANCH   7  17
ATOM     17  C   LIG    1        3.537   9.213  -3.841  0.00  0.00    -0.040 C 
ATOM     18  C   LIG    1        3.080  10.543  -4.442  0.00  0.00    +0.010 C 
ATOM     19  C   LIG    1        2.979   9.257  -5.265  0.00  0.00    +0.030 C 
ENDBRANCH   7  17
BRANCH   5  20
ATOM     20  C   LIG    1        1.305   4.916   0.017  0.00  0.00    +0.190 C 
BRANCH  20  21
ATOM     21  C   LIG    1        0.560   3.606   0.016  0.00  0.00    -0.020 A 
ATOM     22  C   LIG    1        1.102   2.365   0.004  0.00  0.00    -0.040 A 
ATOM     23  C   LIG    1       -0.018   1.503   0.010  0.00  0.00    +0.020 A 
ATOM     24  N   LIG    1       -1.071   2.268   0.019  0.00  0.00    -0.360 NA
ATOM     25  C   LIG    1        0.002  -0.004   0.002  0.00  0.00    +0.160 C 
ATOM     26  O   LIG    1       -0.770   3.439   0.028  0.00  0.00    +0.110 OA
ENDBRANCH  20  21
ENDBRANCH   5  20
TORSDOF 6
