REMARK  Name = ZINCpk00000y6u9s.1
REMARK                            x       y       z     vdW  Elec       q    Type
REMARK                         _______ _______ _______ _____ _____    ______ ____
ROOT
ATOM      1  C   LIG    1        0.682  -4.126   1.331  0.00  0.00    +0.120 C 
ATOM      2  C   LIG    1        0.041  -2.898   0.632  0.00  0.00    +0.260 C 
ATOM      3  N   LIG    1        0.043  -1.840   1.659  0.00  0.00    -0.620 N 
ATOM      4  C   LIG    1        0.064  -2.471   2.987  0.00  0.00    +0.270 C 
ATOM      5  C   LIG    1        0.022  -0.514   1.420  0.00  0.00    +0.530 C 
ATOM      6  O   LIG    1        0.021   0.269   2.346  0.00  0.00    -0.520 OA
ATOM      7  C   LIG    1        0.109  -3.998   2.767  0.00  0.00    +0.030 C 
ENDROOT
BRANCH   1  11
ATOM      8  C   LIG    1       -0.915  -6.902  -0.389  0.00  0.00    +0.190 A 
ATOM      9  N   LIG    1        0.211  -7.422   0.018  0.00  0.00    -0.280 NA
ATOM     10  N   LIG    1        0.892  -6.536   0.655  0.00  0.00    -0.270 NA
ATOM     11  C   LIG    1        0.232  -5.410   0.683  0.00  0.00    +0.190 A 
ATOM     12  N   LIG    1       -0.936  -5.612   0.025  0.00  0.00    -0.560 N 
ATOM     13  H   LIG    1       -1.643  -4.964  -0.120  0.00  0.00    +0.430 HD
BRANCH   8  14
ATOM     14  C   LIG    1       -1.993  -7.607  -1.170  0.00  0.00    +0.330 C 
BRANCH  14  16
ATOM     15  C   LIG    1       -4.149  -7.272  -2.163  0.00  0.00    +0.220 C 
ATOM     16  O   LIG    1       -3.068  -6.700  -1.424  0.00  0.00    -0.400 OA
ENDBRANCH  14  16
ENDBRANCH   8  14
ENDBRANCH   1  11
BRANCH   7  17
ATOM     17  C   LIG    1        1.040  -4.664   3.783  0.00  0.00    -0.040 C 
ATOM     18  C   LIG    1        0.500  -5.871   4.552  0.00  0.00    +0.020 C 
ATOM     19  C   LIG    1        0.682  -4.528   5.264  0.00  0.00    +0.010 C 
ENDBRANCH   7  17
BRANCH   5  20
ATOM     20  C   LIG    1        0.002  -0.004   0.002  0.00  0.00    +0.190 C 
BRANCH  20  21
ATOM     21  C   LIG    1       -0.018   1.503   0.010  0.00  0.00    -0.020 A 
ATOM     22  C   LIG    1        1.055   2.328   0.004  0.00  0.00    -0.040 A 
ATOM     23  C   LIG    1        0.490   3.624   0.016  0.00  0.00    +0.020 A 
ATOM     24  N   LIG    1       -0.801   3.462   0.028  0.00  0.00    -0.360 NA
ATOM     25  C   LIG    1        1.235   4.934   0.017  0.00  0.00    +0.160 C 
ATOM     26  O   LIG    1       -1.103   2.291   0.019  0.00  0.00    +0.110 OA
ENDBRANCH  20  21
ENDBRANCH   5  20
TORSDOF 6
