REMARK  Name = ZINCvU00000005cG.0
REMARK                            x       y       z     vdW  Elec       q    Type
REMARK                         _______ _______ _______ _____ _____    ______ ____
ROOT
ATOM      1  N   LIG    1        5.091  -3.294   2.841  0.00  0.00    -0.720 N 
ATOM      2  H   LIG    1        5.112  -2.689   2.084  0.00  0.00    +0.400 HD
ATOM      3  C   LIG    1        5.788  -3.001   3.957  0.00  0.00    +0.520 C 
ATOM      4  O   LIG    1        5.761  -3.758   4.905  0.00  0.00    -0.530 OA
ENDROOT
BRANCH   3   5
ATOM      5  C   LIG    1        6.600  -1.734   4.028  0.00  0.00    -0.010 C 
ATOM      6  C   LIG    1        7.658  -1.744   2.922  0.00  0.00    +0.040 C 
ATOM      7  C   LIG    1        8.459  -0.439   2.974  0.00  0.00    +0.280 C 
ATOM      8  N   LIG    1        9.003  -0.273   4.329  0.00  0.00    -0.610 N 
ATOM      9  C   LIG    1        8.083  -0.337   5.473  0.00  0.00    +0.270 C 
ATOM     10  C   LIG    1       10.321  -0.064   4.518  0.00  0.00    +0.560 C 
ATOM     11  O   LIG    1       11.086  -0.115   3.575  0.00  0.00    -0.530 OA
ATOM     12  C   LIG    1        7.287  -1.643   5.392  0.00  0.00    +0.060 C 
BRANCH  10  13
ATOM     13  C   LIG    1       10.836   0.225   5.873  0.00  0.00    -0.130 A 
ATOM     14  C   LIG    1       10.078   0.988   6.763  0.00  0.00    +0.060 A 
ATOM     15  C   LIG    1       10.562   1.251   8.027  0.00  0.00    +0.020 A 
ATOM     16  C   LIG    1       11.802   0.769   8.411  0.00  0.00    -0.010 A 
ATOM     17  C   LIG    1       12.562   0.016   7.531  0.00  0.00    +0.030 A 
ATOM     18 CL   LIG    1       12.407   1.110  10.002  0.00  0.00    -0.060 Cl
ATOM     19  C   LIG    1       12.086  -0.258   6.266  0.00  0.00    +0.090 A 
ENDBRANCH  10  13
ENDBRANCH   3   5
BRANCH   1  20
ATOM     20  C   LIG    1        4.301  -4.526   2.773  0.00  0.00    +0.250 C 
BRANCH  20  21
ATOM     21  C   LIG    1        3.170  -4.351   1.759  0.00  0.00    -0.060 C 
ATOM     22  C   LIG    1        2.345  -5.638   1.687  0.00  0.00    +0.030 C 
ATOM     23  C   LIG    1        1.213  -5.463   0.673  0.00  0.00    -0.020 C 
ATOM     24  C   LIG    1        0.314  -4.304   1.107  0.00  0.00    +0.010 C 
ATOM     25  C   LIG    1        1.138  -3.017   1.178  0.00  0.00    -0.020 C 
ATOM     26  C   LIG    1        1.731  -2.714  -0.199  0.00  0.00    +0.010 C 
ATOM     27  C   LIG    1        2.630  -3.873  -0.634  0.00  0.00    -0.020 C 
ATOM     28  C   LIG    1        1.806  -5.160  -0.705  0.00  0.00    +0.010 C 
ATOM     29  C   LIG    1        2.270  -3.192   2.193  0.00  0.00    +0.020 C 
ATOM     30  C   LIG    1        3.762  -4.048   0.381  0.00  0.00    +0.030 C 
ENDBRANCH  20  21
BRANCH  20  32
ATOM     31  C   LIG    1        6.258  -5.941   3.415  0.00  0.00    +0.010 C 
ATOM     32  C   LIG    1        5.201  -5.685   2.339  0.00  0.00    -0.010 C 
ENDBRANCH  20  32
ENDBRANCH   1  20
TORSDOF 5
