REMARK  Name = ZINCrD0000071teB.0
REMARK                            x       y       z     vdW  Elec       q    Type
REMARK                         _______ _______ _______ _____ _____    ______ ____
ROOT
ATOM      1  C   LIG    1       -1.184   2.143   0.019  0.00  0.00    +0.520 C 
ATOM      2  N   LIG    1       -0.044   1.472   0.278  0.00  0.00    -0.620 N 
ATOM      3  C   LIG    1        1.256   2.161   0.272  0.00  0.00    +0.290 C 
ATOM      4  C   LIG    1        1.989   1.829   1.576  0.00  0.00    +0.170 C 
ATOM      5  N   LIG    1        2.060   0.370   1.736  0.00  0.00    -0.530 NA
ATOM      6  C   LIG    1        0.720  -0.218   1.860  0.00  0.00    +0.170 C 
ATOM      7  C   LIG    1       -0.065   0.030   0.568  0.00  0.00    +0.280 C 
ATOM      8  O   LIG    1       -1.160   3.347  -0.124  0.00  0.00    -0.530 OA
ENDROOT
BRANCH   1  16
ATOM      9  C   LIG    1       -3.660   3.270   1.074  0.00  0.00    +0.020 C 
ATOM     10  C   LIG    1       -3.642   2.397  -0.182  0.00  0.00    -0.040 C 
ATOM     11  C   LIG    1       -4.967   1.639  -0.296  0.00  0.00    +0.020 C 
ATOM     12  C   LIG    1       -4.949   0.767  -1.552  0.00  0.00    +0.010 C 
ATOM     13  C   LIG    1       -3.795  -0.234  -1.462  0.00  0.00    +0.010 C 
ATOM     14  C   LIG    1       -2.471   0.523  -1.349  0.00  0.00    +0.030 C 
ATOM     15  C   LIG    1       -3.454   3.283  -1.416  0.00  0.00    +0.030 C 
ATOM     16  C   LIG    1       -2.488   1.396  -0.092  0.00  0.00    +0.000 C 
ENDBRANCH   1  16
BRANCH   5  17
ATOM     17  C   LIG    1        2.903   0.007   2.882  0.00  0.00    +0.240 C 
BRANCH  17  18
ATOM     18  C   LIG    1        4.328   0.415   2.608  0.00  0.00    -0.080 A 
ATOM     19  C   LIG    1        4.769   1.672   2.976  0.00  0.00    +0.020 A 
ATOM     20  C   LIG    1        6.074   2.050   2.725  0.00  0.00    +0.030 A 
ATOM     21  C   LIG    1        6.946   1.169   2.103  0.00  0.00    +0.050 A 
ATOM     22  O   LIG    1        8.227   1.557   1.859  0.00  0.00    -0.310 OA
ATOM     23  C   LIG    1        9.171   0.519   1.572  0.00  0.00    +0.220 C 
ATOM     24  C   LIG    1        8.537  -0.438   0.553  0.00  0.00    +0.220 C 
ATOM     25  O   LIG    1        7.343  -0.979   1.127  0.00  0.00    -0.310 OA
ATOM     26  C   LIG    1        6.503  -0.096   1.735  0.00  0.00    +0.050 A 
ATOM     27  C   LIG    1        5.193  -0.471   1.993  0.00  0.00    +0.050 A 
ENDBRANCH  17  18
ENDBRANCH   5  17
TORSDOF 3
