REMARK  Name = ZINCvU0000000Bk7.0
REMARK                            x       y       z     vdW  Elec       q    Type
REMARK                         _______ _______ _______ _____ _____    ______ ____
ROOT
ATOM      1  C   LIG    1       -0.817   1.607   1.171  0.00  0.00    +0.290 A 
ATOM      2  N   LIG    1       -0.933   2.862   1.493  0.00  0.00    -0.480 NA
ATOM      3  C   LIG    1       -1.667   2.976   2.630  0.00  0.00    +0.050 A 
ATOM      4  C   LIG    1       -2.088   4.063   3.401  0.00  0.00    +0.070 A 
ATOM      5  C   LIG    1       -2.837   3.851   4.524  0.00  0.00    +0.000 A 
ATOM      6  C   LIG    1       -3.186   2.565   4.910  0.00  0.00    +0.030 A 
ATOM      7  C   LIG    1       -2.781   1.478   4.165  0.00  0.00    +0.010 A 
ATOM      8  C   LIG    1       -2.019   1.673   3.022  0.00  0.00    +0.060 A 
ATOM      9  N   LIG    1       -1.472   0.830   2.075  0.00  0.00    -0.480 N 
ENDROOT
BRANCH   1  13
ATOM     10  O   LIG    1        0.390   1.991  -3.461  0.00  0.00    -0.520 OA
ATOM     11  C   LIG    1        0.462   1.854  -2.259  0.00  0.00    +0.530 C 
ATOM     12  C   LIG    1       -0.714   1.597  -1.343  0.00  0.00    +0.070 C 
ATOM     13  C   LIG    1       -0.071   1.090  -0.032  0.00  0.00    +0.080 C 
ATOM     14  C   LIG    1        1.342   1.709  -0.114  0.00  0.00    +0.290 C 
ATOM     15  N   LIG    1        1.600   1.906  -1.545  0.00  0.00    -0.610 N 
BRANCH  15  16
ATOM     16  C   LIG    1        2.928   2.131  -2.122  0.00  0.00    +0.350 C 
BRANCH  16  17
ATOM     17  C   LIG    1        3.550   0.807  -2.483  0.00  0.00    -0.110 A 
ATOM     18  C   LIG    1        4.326   0.133  -1.558  0.00  0.00    +0.010 A 
ATOM     19  C   LIG    1        4.894  -1.083  -1.887  0.00  0.00    +0.000 A 
ATOM     20  C   LIG    1        4.692  -1.622  -3.144  0.00  0.00    +0.010 A 
ATOM     21  C   LIG    1        3.920  -0.947  -4.071  0.00  0.00    +0.000 A 
ATOM     22  C   LIG    1        3.349   0.268  -3.740  0.00  0.00    +0.030 A 
ENDBRANCH  16  17
ENDBRANCH  15  16
ENDBRANCH   1  13
BRANCH   9  23
ATOM     23  C   LIG    1       -1.574  -0.631   2.052  0.00  0.00    +0.370 C 
BRANCH  23  24
ATOM     24  C   LIG    1       -2.698  -1.041   1.135  0.00  0.00    -0.150 A 
ATOM     25  C   LIG    1       -2.432  -1.369  -0.183  0.00  0.00    +0.130 A 
ATOM     26  C   LIG    1       -3.465  -1.745  -1.025  0.00  0.00    +0.000 A 
ATOM     27  C   LIG    1       -4.761  -1.794  -0.548  0.00  0.00    +0.090 A 
ATOM     28  C   LIG    1       -5.027  -1.468   0.769  0.00  0.00    +0.030 A 
ATOM     29  F   LIG    1       -1.165  -1.320  -0.649  0.00  0.00    -0.120 F 
ATOM     30  C   LIG    1       -3.995  -1.097   1.612  0.00  0.00    +0.010 A 
ATOM     31 CL   LIG    1       -4.329  -0.694   3.268  0.00  0.00    -0.040 Cl
ENDBRANCH  23  24
ENDBRANCH   9  23
TORSDOF 5
