REMARK  Name = ZINCrH000004uCBR.0
REMARK                            x       y       z     vdW  Elec       q    Type
REMARK                         _______ _______ _______ _____ _____    ______ ____
ROOT
ATOM      1  O   LIG    1        3.095  -3.477  -6.845  0.00  0.00    -0.540 OA
ATOM      2  C   LIG    1        1.915  -3.294  -6.620  0.00  0.00    +0.560 C 
ATOM      3  N   LIG    1        1.518  -2.873  -5.403  0.00  0.00    -0.730 N 
ATOM      4  H   LIG    1        0.576  -2.727  -5.223  0.00  0.00    +0.400 HD
ENDROOT
BRANCH   2   5
ATOM      5  C   LIG    1        0.916  -3.533  -7.680  0.00  0.00    -0.160 A 
ATOM      6  C   LIG    1       -0.442  -3.328  -7.421  0.00  0.00    +0.070 A 
ATOM      7  C   LIG    1       -1.371  -3.547  -8.414  0.00  0.00    -0.030 A 
ATOM      8  C   LIG    1       -0.959  -3.981  -9.670  0.00  0.00    +0.200 A 
ATOM      9  C   LIG    1        0.393  -4.191  -9.929  0.00  0.00    +0.010 A 
ATOM     10  C   LIG    1        1.326  -3.969  -8.943  0.00  0.00    +0.110 A 
BRANCH   8  11
ATOM     11  N   LIG    1       -1.901  -4.206 -10.671  0.00  0.00    -0.640 N 
ATOM     12  H   LIG    1       -2.696  -3.653 -10.721  0.00  0.00    +0.430 HD
BRANCH  11  13
ATOM     13  C   LIG    1       -1.703  -5.221 -11.594  0.00  0.00    +0.550 A 
ATOM     14  N   LIG    1       -0.667  -6.033 -11.449  0.00  0.00    -0.550 NA
ATOM     15  C   LIG    1       -0.452  -7.014 -12.309  0.00  0.00    +0.360 A 
ATOM     16  C   LIG    1       -1.319  -7.180 -13.377  0.00  0.00    -0.130 A 
ATOM     17  C   LIG    1       -2.390  -6.308 -13.502  0.00  0.00    +0.360 A 
ATOM     18  N   LIG    1       -2.551  -5.351 -12.603  0.00  0.00    -0.560 NA
ENDBRANCH  11  13
ENDBRANCH   8  11
ENDBRANCH   2   5
BRANCH   3  19
ATOM     19  C   LIG    1        2.509  -2.637  -4.350  0.00  0.00    +0.320 C 
BRANCH  19  20
ATOM     20  C   LIG    1        1.811  -2.176  -3.097  0.00  0.00    -0.140 A 
ATOM     21  C   LIG    1        1.383  -3.103  -2.165  0.00  0.00    +0.080 A 
ATOM     22  C   LIG    1        0.742  -2.683  -1.015  0.00  0.00    +0.000 A 
ATOM     23  C   LIG    1        0.529  -1.330  -0.796  0.00  0.00    +0.110 A 
ATOM     24  C   LIG    1        0.954  -0.402  -1.736  0.00  0.00    -0.050 A 
ATOM     25  C   LIG    1        1.599  -0.827  -2.881  0.00  0.00    +0.070 A 
BRANCH  23  26
ATOM     26  O   LIG    1       -0.101  -0.914   0.334  0.00  0.00    -0.320 OA
BRANCH  26  27
ATOM     27  C   LIG    1       -0.286   0.494   0.493  0.00  0.00    +0.590 C 
ATOM     28  F   LIG    1       -1.054   0.986  -0.567  0.00  0.00    -0.200 F 
ATOM     29  F   LIG    1        0.960   1.130   0.501  0.00  0.00    -0.200 F 
ENDBRANCH  26  27
ENDBRANCH  23  26
ENDBRANCH  19  20
ENDBRANCH   3  19
TORSDOF 7
