REMARK  Name = ZINCrH000004jMaz.0
REMARK                            x       y       z     vdW  Elec       q    Type
REMARK                         _______ _______ _______ _____ _____    ______ ____
ROOT
ATOM      1  C   LIG    1        5.987   2.081  -0.444  0.00  0.00    +0.170 A 
ATOM      2  C   LIG    1        5.922   3.462  -0.594  0.00  0.00    +0.020 A 
ATOM      3  C   LIG    1        7.074   4.187  -0.812  0.00  0.00    +0.090 A 
ATOM      4  C   LIG    1        8.302   3.534  -0.894  0.00  0.00    -0.040 A 
ATOM      5  C   LIG    1        8.364   2.148  -0.750  0.00  0.00    +0.070 A 
ATOM      6  C   LIG    1        7.211   1.428  -0.526  0.00  0.00    -0.020 A 
ENDROOT
BRANCH   4   7
ATOM      7  C   LIG    1        9.542   4.311  -1.135  0.00  0.00    +0.220 A 
ATOM      8  N   LIG    1       10.754   3.829  -1.234  0.00  0.00    -0.380 NA
ATOM      9  O   LIG    1       11.545   4.728  -1.432  0.00  0.00    +0.080 OA
ATOM     10  C   LIG    1       10.904   5.899  -1.480  0.00  0.00    +0.190 A 
ATOM     11  N   LIG    1        9.631   5.651  -1.299  0.00  0.00    -0.470 NA
BRANCH  10  12
ATOM     12  C   LIG    1       11.528   7.252  -1.707  0.00  0.00    +0.030 C 
ATOM     13  C   LIG    1       10.935   7.883  -2.968  0.00  0.00    +0.070 C 
ATOM     14  C   LIG    1       13.040   7.094  -1.878  0.00  0.00    +0.070 C 
ATOM     15  C   LIG    1       11.243   8.154  -0.504  0.00  0.00    +0.070 C 
ENDBRANCH  10  12
ENDBRANCH   4   7
BRANCH   1  17
ATOM     16  C   LIG    1        3.812   1.891   0.497  0.00  0.00    +0.560 C 
ATOM     17  N   LIG    1        4.819   1.349  -0.217  0.00  0.00    -0.680 N 
ATOM     18  H   LIG    1        4.733   0.451  -0.573  0.00  0.00    +0.410 HD
ATOM     19  O   LIG    1        3.955   2.978   1.022  0.00  0.00    -0.460 OA
BRANCH  16  25
ATOM     20  C   LIG    1        1.520   1.663   1.473  0.00  0.00    +0.360 A 
ATOM     21  N   LIG    1        0.377   1.007   1.598  0.00  0.00    -0.520 NA
ATOM     22  C   LIG    1        0.151  -0.123   0.957  0.00  0.00    +0.300 A 
ATOM     23  C   LIG    1        1.104  -0.676   0.121  0.00  0.00    -0.030 A 
ATOM     24  C   LIG    1        2.318  -0.034  -0.048  0.00  0.00    +0.100 A 
ATOM     25  C   LIG    1        2.538   1.165   0.641  0.00  0.00    -0.170 A 
BRANCH  20  27
ATOM     26  C   LIG    1        0.649   3.812   1.862  0.00  0.00    +0.220 C 
ATOM     27  N   LIG    1        1.714   2.845   2.164  0.00  0.00    -0.480 N 
ATOM     28  C   LIG    1        1.809   2.601   3.609  0.00  0.00    +0.220 C 
ENDBRANCH  20  27
ENDBRANCH  16  25
ENDBRANCH   1  17
TORSDOF 5
