REMARK  Name = ZINCpe00000FUf9m.0
REMARK                            x       y       z     vdW  Elec       q    Type
REMARK                         _______ _______ _______ _____ _____    ______ ____
ROOT
ATOM      1  C   LIG    1        1.789  -1.823  -0.025  0.00  0.00    +0.080 C 
ATOM      2  C   LIG    1        2.819  -2.064   1.107  0.00  0.00    +0.280 C 
ATOM      3  N   LIG    1        3.637  -3.197   0.637  0.00  0.00    -1.010 NA
ATOM      4  C   LIG    1        3.571  -3.250  -0.831  0.00  0.00    +0.280 C 
ATOM      5  C   LIG    1        2.643  -2.105  -1.289  0.00  0.00    +0.010 C 
ENDROOT
BRANCH   1   9
ATOM      6  C   LIG    1       -1.212   2.191   0.020  0.00  0.00    +0.360 C 
ATOM      7  N   LIG    1       -0.016   1.345   0.009  0.00  0.00    -0.370 N 
ATOM      8  C   LIG    1        0.002  -0.004   0.002  0.00  0.00    +0.240 A 
ATOM      9  C   LIG    1        1.296  -0.399  -0.013  0.00  0.00    -0.230 A 
ATOM     10  C   LIG    1        2.096   0.748  -0.014  0.00  0.00    +0.240 A 
ATOM     11  N   LIG    1        1.311   1.794  -0.001  0.00  0.00    -0.290 NA
ENDBRANCH   1   9
BRANCH   3  12
ATOM     12  S   LIG    1        4.490  -4.237   1.603  0.00  0.00    +2.710 S 
ATOM     13  O   LIG    1        4.655  -5.435   0.856  0.00  0.00    -0.950 OA
ATOM     14  O   LIG    1        3.870  -4.198   2.881  0.00  0.00    -0.950 OA
BRANCH  12  15
ATOM     15  C   LIG    1        6.101  -3.555   1.810  0.00  0.00    -0.670 A 
ATOM     16  C   LIG    1        7.110  -3.884   0.924  0.00  0.00    +0.120 A 
ATOM     17  C   LIG    1        8.373  -3.344   1.083  0.00  0.00    +0.010 A 
ATOM     18  C   LIG    1        8.629  -2.484   2.135  0.00  0.00    -0.040 A 
ATOM     19  C   LIG    1        7.621  -2.159   3.023  0.00  0.00    +0.010 A 
ATOM     20  C   LIG    1        6.357  -2.694   2.861  0.00  0.00    +0.120 A 
BRANCH  18  21
ATOM     21  C   LIG    1       10.007  -1.900   2.312  0.00  0.00    +0.270 C 
BRANCH  21  22
ATOM     22  C   LIG    1       10.810  -2.789   3.167  0.00  0.00    +0.200 C 
ATOM     23  N   LIG    1       11.431  -3.475   3.826  0.00  0.00    -0.420 NA
ENDBRANCH  21  22
ENDBRANCH  18  21
ENDBRANCH  12  15
ENDBRANCH   3  12
BRANCH   5  24
ATOM     24  C   LIG    1        1.757  -2.559  -2.451  0.00  0.00    +0.190 C 
BRANCH  24  25
ATOM     25  O   LIG    1        2.552  -2.699  -3.630  0.00  0.00    -0.570 OA
ATOM     26  H   LIG    1        2.054  -2.985  -4.408  0.00  0.00    +0.380 HD
ENDBRANCH  24  25
ENDBRANCH   5  24
TORSDOF 7
