REMARK  Name = ZINCvU0000000Hr0.0
REMARK                            x       y       z     vdW  Elec       q    Type
REMARK                         _______ _______ _______ _____ _____    ______ ____
ROOT
ATOM      1  C   LIG    1       -6.146   6.644  -0.636  0.00  0.00    +0.350 C 
ENDROOT
BRANCH   1   4
ATOM      2  C   LIG    1       -9.511   5.394  -1.262  0.00  0.00    +0.270 A 
ATOM      3  N   LIG    1       -8.536   6.244  -1.171  0.00  0.00    -0.470 NA
ATOM      4  C   LIG    1       -7.366   5.772  -0.785  0.00  0.00    +0.090 A 
ATOM      5  C   LIG    1       -7.349   4.460  -0.542  0.00  0.00    -0.070 A 
ATOM      6  S   LIG    1       -8.969   3.830  -0.832  0.00  0.00    +0.150 S 
BRANCH   2   9
ATOM      7  C   LIG    1      -12.531   7.331  -2.373  0.00  0.00    +0.120 C 
ATOM      8  C   LIG    1      -11.104   6.956  -2.069  0.00  0.00    +0.510 C 
ATOM      9  N   LIG    1      -10.809   5.709  -1.651  0.00  0.00    -0.480 N 
ATOM     10  O   LIG    1      -10.220   7.776  -2.200  0.00  0.00    -0.470 OA
BRANCH   9  11
ATOM     11  C   LIG    1      -11.810   4.730  -1.608  0.00  0.00    +0.100 A 
ATOM     12  C   LIG    1      -11.821   3.704  -2.544  0.00  0.00    +0.020 A 
ATOM     13  C   LIG    1      -12.806   2.738  -2.496  0.00  0.00    +0.040 A 
ATOM     14  C   LIG    1      -13.787   2.796  -1.523  0.00  0.00    +0.030 A 
ATOM     15  C   LIG    1      -13.782   3.818  -0.592  0.00  0.00    +0.030 A 
ATOM     16  C   LIG    1      -12.796   4.785  -0.632  0.00  0.00    +0.030 A 
ENDBRANCH   9  11
ENDBRANCH   2   9
ENDBRANCH   1   4
BRANCH   1  17
ATOM     17  O   LIG    1       -5.023   5.833  -0.199  0.00  0.00    -0.350 OA
BRANCH  17  18
ATOM     18  C   LIG    1       -3.847   6.465  -0.017  0.00  0.00    +0.520 C 
ATOM     19  O   LIG    1       -3.762   7.660  -0.218  0.00  0.00    -0.480 OA
BRANCH  18  20
ATOM     20  C   LIG    1       -2.662   5.705   0.426  0.00  0.00    -0.180 A 
ATOM     21  C   LIG    1       -2.714   4.318   0.523  0.00  0.00    +0.190 A 
ATOM     22  C   LIG    1       -1.558   3.644   0.950  0.00  0.00    -0.140 A 
ATOM     23  C   LIG    1       -1.534   2.243   1.067  0.00  0.00    +0.100 A 
ATOM     24  C   LIG    1       -0.400   1.622   1.489  0.00  0.00    -0.010 A 
ATOM     25  C   LIG    1        0.746   2.358   1.797  0.00  0.00    +0.140 A 
ATOM     26  C   LIG    1        0.758   3.718   1.689  0.00  0.00    +0.000 A 
ATOM     27  F   LIG    1        1.860   1.714   2.208  0.00  0.00    -0.130 F 
ATOM     28  C   LIG    1       -0.396   4.394   1.262  0.00  0.00    +0.180 A 
ATOM     29  N   LIG    1       -0.406   5.728   1.149  0.00  0.00    -0.480 NA
ATOM     30  C   LIG    1       -1.470   6.377   0.753  0.00  0.00    +0.230 A 
ATOM     31  C   LIG    1       -1.419   7.879   0.646  0.00  0.00    +0.150 C 
ENDBRANCH  18  20
ENDBRANCH  17  18
ENDBRANCH   1  17
TORSDOF 6
