REMARK  Name = ZINCrH000004qmTK.1
REMARK                            x       y       z     vdW  Elec       q    Type
REMARK                         _______ _______ _______ _____ _____    ______ ____
ROOT
ATOM      1  C   LIG    1        0.038  -0.237  -0.599  0.00  0.00    +0.510 C 
ATOM      2  N   LIG    1       -0.011   0.966   0.007  0.00  0.00    -0.670 N 
ATOM      3  H   LIG    1        0.786   1.335   0.418  0.00  0.00    +0.410 HD
ATOM      4  O   LIG    1       -0.975  -0.737  -1.039  0.00  0.00    -0.520 OA
ENDROOT
BRANCH   2   5
ATOM      5  C   LIG    1       -1.216   1.680   0.049  0.00  0.00    +0.120 A 
ATOM      6  C   LIG    1       -1.204   3.067  -0.028  0.00  0.00    +0.010 A 
ATOM      7  C   LIG    1       -2.391   3.771   0.008  0.00  0.00    -0.020 A 
ATOM      8  C   LIG    1       -3.597   3.092   0.131  0.00  0.00    +0.100 A 
ATOM      9  C   LIG    1       -3.608   1.706   0.213  0.00  0.00    +0.010 A 
ATOM     10  C   LIG    1       -2.421   1.002   0.172  0.00  0.00    +0.050 A 
BRANCH   8  11
ATOM     11  N   LIG    1       -4.800   3.806   0.172  0.00  0.00    -0.490 N 
ATOM     12  C   LIG    1       -5.717   3.353  -0.883  0.00  0.00    +0.200 C 
ATOM     13  C   LIG    1       -7.046   4.099  -0.755  0.00  0.00    +0.180 C 
ATOM     14  N   LIG    1       -6.805   5.545  -0.856  0.00  0.00    -0.550 NA
ATOM     15  C   LIG    1       -5.888   5.999   0.199  0.00  0.00    +0.170 C 
ATOM     16  C   LIG    1       -8.068   6.294  -0.813  0.00  0.00    +0.190 C 
ATOM     17  C   LIG    1       -4.558   5.252   0.070  0.00  0.00    +0.200 C 
ENDBRANCH   8  11
ENDBRANCH   2   5
BRANCH   1  18
ATOM     18  C   LIG    1        1.354  -0.961  -0.730  0.00  0.00    +0.070 C 
BRANCH  18  19
ATOM     19  C   LIG    1        1.133  -2.292  -1.450  0.00  0.00    +0.070 C 
BRANCH  19  20
ATOM     20  C   LIG    1        2.448  -3.017  -1.581  0.00  0.00    +0.420 C 
ATOM     21  O   LIG    1        3.463  -2.517  -1.141  0.00  0.00    -0.460 OA
BRANCH  20  25
ATOM     22  C   LIG    1        0.617  -7.072  -3.988  0.00  0.00    +0.150 C 
ATOM     23  C   LIG    1        1.627  -6.162  -3.339  0.00  0.00    -0.200 A 
ATOM     24  C   LIG    1        1.343  -4.988  -2.791  0.00  0.00    +0.050 A 
ATOM     25  C   LIG    1        2.502  -4.323  -2.239  0.00  0.00    -0.210 A 
ATOM     26  C   LIG    1        3.653  -5.038  -2.402  0.00  0.00    -0.140 A 
ATOM     27  C   LIG    1        5.013  -4.590  -1.933  0.00  0.00    +0.150 C 
ATOM     28  S   LIG    1        3.342  -6.509  -3.204  0.00  0.00    +0.190 S 
ENDBRANCH  20  25
ENDBRANCH  19  20
ENDBRANCH  18  19
ENDBRANCH   1  18
TORSDOF 6
