REMARK  Name = ZINCpk00000Fd8lp.0
REMARK                            x       y       z     vdW  Elec       q    Type
REMARK                         _______ _______ _______ _____ _____    ______ ____
ROOT
ATOM      1  C   LIG    1        3.566   6.017   0.002  0.00  0.00    +0.240 C 
ATOM      2  C   LIG    1        4.550   5.505  -1.052  0.00  0.00    +0.080 C 
ENDROOT
BRANCH   1   3
ATOM      3  C   LIG    1        2.276   5.245  -0.098  0.00  0.00    +0.420 A 
ATOM      4  N   LIG    1        1.164   5.913  -0.226  0.00  0.00    -0.590 NA
ATOM      5  C   LIG    1       -0.028   5.294  -0.321  0.00  0.00    +0.530 A 
ATOM      6  C   LIG    1       -0.050   3.821  -0.277  0.00  0.00    -0.210 A 
ATOM      7  C   LIG    1       -1.236   3.096  -0.367  0.00  0.00    +0.110 A 
ATOM      8  C   LIG    1       -1.192   1.719  -0.324  0.00  0.00    -0.010 A 
ATOM      9  C   LIG    1        0.018   1.057  -0.181  0.00  0.00    +0.080 A 
ATOM     10  C   LIG    1        1.200   1.762  -0.090  0.00  0.00    -0.020 A 
ATOM     11  C   LIG    1        1.178   3.149  -0.137  0.00  0.00    +0.170 A 
ATOM     12  O   LIG    1       -1.059   5.933  -0.441  0.00  0.00    -0.480 OA
ATOM     13  N   LIG    1        2.332   3.902  -0.050  0.00  0.00    -0.620 N 
ATOM     14  H   LIG    1        3.190   3.459   0.046  0.00  0.00    +0.420 HD
ENDBRANCH   1   3
BRANCH   1  17
ATOM     15  C   LIG    1        2.480   9.161  -1.766  0.00  0.00    +0.290 C 
ATOM     16  C   LIG    1        2.683   7.660  -1.544  0.00  0.00    +0.190 C 
ATOM     17  N   LIG    1        3.302   7.444  -0.228  0.00  0.00    -0.500 NA
ATOM     18  C   LIG    1        2.460   8.002   0.841  0.00  0.00    +0.160 C 
ATOM     19  C   LIG    1        2.259   9.500   0.595  0.00  0.00    +0.240 C 
ATOM     20  O   LIG    1        1.687   9.692  -0.701  0.00  0.00    -0.390 OA
BRANCH  15  25
ATOM     21  C   LIG    1       -0.816  10.634  -5.300  0.00  0.00    +0.200 C 
ATOM     22  C   LIG    1        0.363  10.016  -4.593  0.00  0.00    +0.180 A 
ATOM     23  N   LIG    1        1.322   9.326  -5.147  0.00  0.00    -0.290 NA
ATOM     24  N   LIG    1        2.161   8.951  -4.248  0.00  0.00    -0.280 NA
ATOM     25  C   LIG    1        1.775   9.385  -3.079  0.00  0.00    +0.190 A 
ATOM     26  N   LIG    1        0.621  10.069  -3.264  0.00  0.00    -0.560 N 
ATOM     27  H   LIG    1        0.087  10.509  -2.583  0.00  0.00    +0.430 HD
ENDBRANCH  15  25
ENDBRANCH   1  17
TORSDOF 3
