REMARK  Name = ZINCpk00000Fd8lp.1
REMARK                            x       y       z     vdW  Elec       q    Type
REMARK                         _______ _______ _______ _____ _____    ______ ____
ROOT
ATOM      1  C   LIG    1        3.566   6.017  -0.002  0.00  0.00    +0.240 C 
ATOM      2  C   LIG    1        4.414   5.569  -1.194  0.00  0.00    +0.030 C 
ENDROOT
BRANCH   1   3
ATOM      3  C   LIG    1        2.268   5.252   0.008  0.00  0.00    +0.450 A 
ATOM      4  N   LIG    1        1.153   5.928   0.022  0.00  0.00    -0.570 NA
ATOM      5  C   LIG    1       -0.047   5.316   0.030  0.00  0.00    +0.530 A 
ATOM      6  C   LIG    1       -0.073   3.842   0.023  0.00  0.00    -0.210 A 
ATOM      7  C   LIG    1       -1.266   3.123   0.031  0.00  0.00    +0.110 A 
ATOM      8  C   LIG    1       -1.228   1.746   0.017  0.00  0.00    -0.010 A 
ATOM      9  C   LIG    1       -0.013   1.076   0.008  0.00  0.00    +0.080 A 
ATOM     10  C   LIG    1        1.177   1.774   0.000  0.00  0.00    -0.020 A 
ATOM     11  C   LIG    1        1.159   3.162   0.008  0.00  0.00    +0.180 A 
ATOM     12  O   LIG    1       -1.081   5.961   0.044  0.00  0.00    -0.480 OA
ATOM     13  N   LIG    1        2.320   3.909   0.000  0.00  0.00    -0.620 N 
ATOM     14  H   LIG    1        3.180   3.460  -0.010  0.00  0.00    +0.420 HD
ENDBRANCH   1   3
BRANCH   1  17
ATOM     15  C   LIG    1        4.180   9.733  -0.067  0.00  0.00    +0.290 C 
ATOM     16  C   LIG    1        4.523   8.242  -0.006  0.00  0.00    +0.170 C 
ATOM     17  N   LIG    1        3.286   7.455  -0.113  0.00  0.00    -0.500 NA
ATOM     18  C   LIG    1        2.582   7.759  -1.367  0.00  0.00    +0.170 C 
ATOM     19  C   LIG    1        2.258   9.255  -1.414  0.00  0.00    +0.240 C 
ATOM     20  O   LIG    1        3.469  10.004  -1.278  0.00  0.00    -0.370 OA
BRANCH  15  24
ATOM     21  C   LIG    1        7.860  12.686   1.611  0.00  0.00    +0.190 C 
ATOM     22  C   LIG    1        7.032  11.819   0.698  0.00  0.00    +0.290 A 
ATOM     23  N   LIG    1        5.904  11.233   1.009  0.00  0.00    -0.530 NA
ATOM     24  C   LIG    1        5.450  10.544  -0.037  0.00  0.00    +0.230 A 
ATOM     25  N   LIG    1        6.282  10.689  -1.035  0.00  0.00    -0.290 NA
ATOM     26  N   LIG    1        7.321  11.516  -0.579  0.00  0.00    -0.480 N 
ATOM     27  H   LIG    1        8.094  11.811  -1.086  0.00  0.00    +0.440 HD
ENDBRANCH  15  24
ENDBRANCH   1  17
TORSDOF 3
