REMARK  Name = ZINCbw0000000HkX.0
REMARK                            x       y       z     vdW  Elec       q    Type
REMARK                         _______ _______ _______ _____ _____    ______ ____
ROOT
ATOM      1  C   LIG    1       -2.723   3.333   4.764  0.00  0.00    +0.090 C 
ATOM      2  C   LIG    1       -2.018   2.846   3.524  0.00  0.00    -0.080 A 
ATOM      3  C   LIG    1       -0.701   3.199   3.295  0.00  0.00    +0.010 A 
ATOM      4  C   LIG    1       -0.054   2.753   2.158  0.00  0.00    +0.030 A 
ATOM      5  C   LIG    1       -0.723   1.954   1.250  0.00  0.00    -0.100 A 
ATOM      6  C   LIG    1       -2.042   1.605   1.477  0.00  0.00    +0.020 A 
ATOM      7  C   LIG    1       -2.687   2.047   2.616  0.00  0.00    +0.000 A 
ENDROOT
BRANCH   5   8
ATOM      8  C   LIG    1       -0.018   1.468   0.010  0.00  0.00    +0.170 C 
ATOM      9  C   LIG    1       -0.758   1.975  -1.229  0.00  0.00    +0.080 C 
BRANCH   8  10
ATOM     10  C   LIG    1        0.002  -0.004   0.002  0.00  0.00    +0.210 C 
ATOM     11  N   LIG    1        0.018  -1.140  -0.004  0.00  0.00    -0.430 NA
ENDBRANCH   8  10
ENDBRANCH   5   8
TORSDOF 2
