REMARK  Name = ZINCqH0000003grk.0
REMARK                            x       y       z     vdW  Elec       q    Type
REMARK                         _______ _______ _______ _____ _____    ______ ____
ROOT
ATOM      1  C   LIG    1        5.479   1.261  -0.070  0.00  0.00    +0.140 A 
ATOM      2  N   LIG    1        5.234  -0.029  -0.022  0.00  0.00    -0.280 NA
ATOM      3  N   LIG    1        3.967  -0.240  -0.074  0.00  0.00    -0.250 NA
ATOM      4  C   LIG    1        3.325   0.902  -0.158  0.00  0.00    +0.230 A 
ATOM      5  N   LIG    1        4.274   1.898  -0.164  0.00  0.00    -0.450 N 
ENDROOT
BRANCH   4   6
ATOM      6  C   LIG    1        1.860   1.083  -0.237  0.00  0.00    -0.050 A 
ATOM      7  C   LIG    1        1.322   2.349  -0.470  0.00  0.00    +0.040 A 
ATOM      8  C   LIG    1       -0.046   2.511  -0.544  0.00  0.00    +0.010 A 
ATOM      9  C   LIG    1       -0.885   1.422  -0.385  0.00  0.00    +0.070 A 
ATOM     10  C   LIG    1       -0.360   0.163  -0.159  0.00  0.00    +0.000 A 
ATOM     11  C   LIG    1        1.008  -0.014  -0.078  0.00  0.00    +0.150 A 
ATOM     12  F   LIG    1        1.520  -1.243   0.148  0.00  0.00    -0.110 F 
ENDBRANCH   4   6
BRANCH   1  13
ATOM     13  S   LIG    1        7.065   2.026  -0.030  0.00  0.00    +0.090 S 
BRANCH  13  14
ATOM     14  C   LIG    1        8.118   0.559   0.089  0.00  0.00    +0.150 C 
BRANCH  14  15
ATOM     15  C   LIG    1        9.564   0.981   0.139  0.00  0.00    +0.490 C 
ATOM     16  O   LIG    1        9.853   2.154   0.098  0.00  0.00    -0.490 OA
BRANCH  15  17
ATOM     17  O   LIG    1       10.531   0.055   0.229  0.00  0.00    -0.350 OA
BRANCH  17  19
ATOM     18  C   LIG    1       12.855  -0.658   0.373  0.00  0.00    +0.070 C 
ATOM     19  C   LIG    1       11.901   0.534   0.272  0.00  0.00    +0.200 C 
ENDBRANCH  17  19
ENDBRANCH  15  17
ENDBRANCH  14  15
ENDBRANCH  13  14
ENDBRANCH   1  13
BRANCH   5  20
ATOM     20  C   LIG    1        4.040   3.342  -0.250  0.00  0.00    +0.370 C 
BRANCH  20  21
ATOM     21  C   LIG    1        3.951   3.751  -1.698  0.00  0.00    -0.130 A 
ATOM     22  C   LIG    1        5.039   3.578  -2.533  0.00  0.00    +0.030 A 
ATOM     23  C   LIG    1        4.956   3.949  -3.862  0.00  0.00    +0.020 A 
ATOM     24  C   LIG    1        3.788   4.503  -4.353  0.00  0.00    +0.030 A 
ATOM     25  C   LIG    1        2.702   4.681  -3.517  0.00  0.00    +0.010 A 
ATOM     26  C   LIG    1        2.784   4.305  -2.189  0.00  0.00    +0.020 A 
ENDBRANCH  20  21
ENDBRANCH   5  20
TORSDOF 8
