REMARK  Name = ZINCBu0000000bE5.1
REMARK                            x       y       z     vdW  Elec       q    Type
REMARK                         _______ _______ _______ _____ _____    ______ ____
ROOT
ATOM      1  N   LIG    1       -2.269  -2.752   0.008  0.00  0.00    -0.460 NA
ATOM      2  C   LIG    1       -3.107  -2.364   1.151  0.00  0.00    +0.210 C 
ATOM      3  C   LIG    1       -4.480  -3.032   1.024  0.00  0.00    +0.310 C 
ATOM      4  N   LIG    1       -4.282  -4.480   0.861  0.00  0.00    -0.630 N 
ATOM      5  C   LIG    1       -3.349  -4.943  -0.177  0.00  0.00    +0.310 C 
ATOM      6  C   LIG    1       -4.940  -5.360   1.642  0.00  0.00    +0.510 C 
ATOM      7  O   LIG    1       -4.765  -6.551   1.494  0.00  0.00    -0.480 OA
ATOM      8  C   LIG    1       -2.020  -4.200  -0.003  0.00  0.00    +0.250 C 
ENDROOT
BRANCH   1  13
ATOM      9  C   LIG    1        1.172   2.091   0.002  0.00  0.00    +0.220 C 
ATOM     10  C   LIG    1       -0.017   1.396   0.010  0.00  0.00    -0.060 C 
ATOM     11  C   LIG    1        0.002  -0.004   0.002  0.00  0.00    +0.210 C 
ATOM     12  N   LIG    1       -1.129  -0.726   0.009  0.00  0.00    -0.550 NA
ATOM     13  C   LIG    1       -1.080  -2.044   0.001  0.00  0.00    +0.630 C 
ATOM     14  N   LIG    1        0.064  -2.721  -0.014  0.00  0.00    -0.580 NA
ATOM     15  C   LIG    1        1.235  -2.099  -0.021  0.00  0.00    +0.550 C 
ATOM     16  H   LIG    1       -1.989  -0.276   0.019  0.00  0.00    +0.440 HD
ATOM     17  C   LIG    1        1.245  -0.684  -0.013  0.00  0.00    -0.180 C 
ATOM     18  C   LIG    1        2.440   0.047  -0.021  0.00  0.00    +0.040 C 
ATOM     19  C   LIG    1        2.398   1.412  -0.013  0.00  0.00    +0.120 C 
BRANCH  15  20
ATOM     20  N   LIG    1        2.414  -2.814  -0.037  0.00  0.00    -0.770 NA
ATOM     21  H   LIG    1        2.394  -3.784  -0.042  0.00  0.00    +0.430 HD
ATOM     22  H   LIG    1        3.265  -2.347  -0.043  0.00  0.00    +0.430 HD
ENDBRANCH  15  20
BRANCH   9  24
ATOM     23  C   LIG    1       -0.124   4.084   0.025  0.00  0.00    +0.270 C 
ATOM     24  O   LIG    1        1.157   3.450   0.009  0.00  0.00    -0.280 OA
ENDBRANCH   9  24
BRANCH  19  25
ATOM     25  O   LIG    1        3.559   2.120  -0.021  0.00  0.00    -0.290 OA
ATOM     26  C   LIG    1        4.776   1.371  -0.036  0.00  0.00    +0.250 C 
ENDBRANCH  19  25
ENDBRANCH   1  13
BRANCH   6  27
ATOM     27  C   LIG    1       -5.892  -4.864   2.700  0.00  0.00    +0.050 C 
BRANCH  27  28
ATOM     28  C   LIG    1       -6.500  -6.058   3.439  0.00  0.00    +0.310 C 
ATOM     29  C   LIG    1       -7.357  -5.560   4.576  0.00  0.00    -0.090 A 
ATOM     30  C   LIG    1       -6.716  -5.010   5.677  0.00  0.00    +0.010 A 
ATOM     31  C   LIG    1       -7.446  -4.529   6.745  0.00  0.00    +0.000 A 
ATOM     32  C   LIG    1       -8.826  -4.594   6.716  0.00  0.00    +0.020 A 
ATOM     33  C   LIG    1       -9.464  -5.144   5.623  0.00  0.00    +0.000 A 
ATOM     34  C   LIG    1       -8.732  -5.635   4.550  0.00  0.00    -0.070 A 
ATOM     35  C   LIG    1       -9.495  -6.247   3.405  0.00  0.00    +0.070 C 
ATOM     36  C   LIG    1       -8.637  -6.293   2.142  0.00  0.00    +0.270 C 
ATOM     37  N   LIG    1       -7.320  -6.841   2.509  0.00  0.00    -0.620 N 
ATOM     38  C   LIG    1       -6.886  -8.015   2.010  0.00  0.00    +0.520 C 
ATOM     39  O   LIG    1       -5.798  -8.444   2.329  0.00  0.00    -0.510 OA
ATOM     40  C   LIG    1       -7.754  -8.796   1.056  0.00  0.00    +0.090 C 
ENDBRANCH  27  28
ENDBRANCH   6  27
TORSDOF 6
