REMARK  Name = ZINCpk000000nu9Y.0
REMARK                            x       y       z     vdW  Elec       q    Type
REMARK                         _______ _______ _______ _____ _____    ______ ____
ROOT
ATOM      1  C   LIG    1        3.416   5.915  -0.716  0.00  0.00    +0.240 C 
ATOM      2  C   LIG    1        4.919   5.948  -0.355  0.00  0.00    +0.180 C 
ATOM      3  S   LIG    1        5.223   4.186   0.087  0.00  0.00    -0.240 S 
ATOM      4  C   LIG    1        3.526   3.933   0.760  0.00  0.00    +0.380 C 
ATOM      5  N   LIG    1        2.706   4.801  -0.106  0.00  0.00    -0.600 N 
ATOM      6  C   LIG    1        1.392   4.582  -0.313  0.00  0.00    +0.550 C 
ATOM      7  O   LIG    1        0.777   5.275  -1.095  0.00  0.00    -0.500 OA
ENDROOT
BRANCH   6   8
ATOM      8  C   LIG    1        0.687   3.475   0.428  0.00  0.00    -0.010 C 
ATOM      9  C   LIG    1        0.641   2.183  -0.421  0.00  0.00    +0.080 C 
ATOM     10  C   LIG    1       -0.713   1.584  -0.112  0.00  0.00    +0.520 C 
ATOM     11  N   LIG    1       -1.508   2.506   0.458  0.00  0.00    -0.610 N 
ATOM     12  O   LIG    1       -1.037   0.439  -0.349  0.00  0.00    -0.520 OA
ATOM     13  C   LIG    1       -0.815   3.793   0.598  0.00  0.00    +0.300 C 
BRANCH  11  14
ATOM     14  C   LIG    1       -2.886   2.259   0.886  0.00  0.00    +0.240 C 
ATOM     15  C   LIG    1       -2.923   1.105   1.909  0.00  0.00    +0.020 C 
ATOM     16  C   LIG    1       -4.224   0.336   1.568  0.00  0.00    +0.020 C 
ATOM     17  C   LIG    1       -4.264   0.399   0.021  0.00  0.00    +0.010 C 
ATOM     18  C   LIG    1       -3.739   1.811  -0.314  0.00  0.00    +0.010 C 
ENDBRANCH  11  14
ENDBRANCH   6   8
BRANCH   1  21
ATOM     19  N   LIG    1        3.856   6.740  -3.006  0.00  0.00    -0.730 N 
ATOM     20  H   LIG    1        4.359   7.470  -2.612  0.00  0.00    +0.400 HD
ATOM     21  C   LIG    1        3.280   5.815  -2.213  0.00  0.00    +0.510 C 
ATOM     22  O   LIG    1        2.651   4.903  -2.705  0.00  0.00    -0.500 OA
BRANCH  19  23
ATOM     23  C   LIG    1        3.724   6.644  -4.461  0.00  0.00    +0.270 C 
BRANCH  23  25
ATOM     24  C   LIG    1        4.433   7.640  -6.640  0.00  0.00    +0.030 C 
ATOM     25  C   LIG    1        4.466   7.808  -5.120  0.00  0.00    -0.030 C 
ATOM     26  C   LIG    1        3.788   9.126  -4.738  0.00  0.00    +0.020 C 
ENDBRANCH  23  25
ENDBRANCH  19  23
ENDBRANCH   1  21
TORSDOF 5
