REMARK  Name = ZINCrg000000pZeU.0
REMARK                            x       y       z     vdW  Elec       q    Type
REMARK                         _______ _______ _______ _____ _____    ______ ____
ROOT
ATOM      1  N   LIG    1       -3.126   4.689   6.886  0.00  0.00    -1.010 NA
ATOM      2  C   LIG    1       -3.261   3.231   7.013  0.00  0.00    +0.290 C 
ATOM      3  C   LIG    1       -2.411   2.561   5.929  0.00  0.00    +0.050 C 
ATOM      4  C   LIG    1       -2.812   3.111   4.559  0.00  0.00    +0.010 C 
ATOM      5  C   LIG    1       -2.549   4.619   4.516  0.00  0.00    +0.030 C 
ATOM      6  C   LIG    1       -3.400   5.312   5.584  0.00  0.00    +0.310 C 
ENDROOT
BRANCH   4   7
ATOM      7  C   LIG    1       -2.002   2.429   3.487  0.00  0.00    +0.510 C 
ATOM      8  N   LIG    1       -2.186   2.757   2.192  0.00  0.00    -0.640 N 
ATOM      9  H   LIG    1       -2.840   3.431   1.951  0.00  0.00    +0.420 HD
ATOM     10  O   LIG    1       -1.185   1.586   3.789  0.00  0.00    -0.460 OA
BRANCH   8  11
ATOM     11  C   LIG    1       -1.443   2.131   1.209  0.00  0.00    +0.400 C 
ATOM     12  N   LIG    1       -0.557   1.229   1.418  0.00  0.00    -0.520 NA
ATOM     13  C   LIG    1        0.158   0.647   0.304  0.00  0.00    +0.250 C 
ATOM     14  C   LIG    1       -0.304   1.254  -1.030  0.00  0.00    +0.110 C 
ATOM     15  S   LIG    1       -1.576   2.456  -0.523  0.00  0.00    -0.190 S 
ENDBRANCH   8  11
ENDBRANCH   4   7
BRANCH   1  16
ATOM     16  S   LIG    1       -2.673   5.611   8.185  0.00  0.00    +2.700 S 
ATOM     17  O   LIG    1       -2.871   4.805   9.338  0.00  0.00    -0.940 OA
ATOM     18  O   LIG    1       -3.287   6.880   8.009  0.00  0.00    -0.930 OA
BRANCH  16  24
ATOM     19  C   LIG    1       -0.311   6.825   8.868  0.00  0.00    -0.030 A 
ATOM     20  C   LIG    1        1.066   7.028   8.759  0.00  0.00    +0.080 A 
ATOM     21  C   LIG    1        1.800   6.292   7.852  0.00  0.00    +0.060 A 
ATOM     22  C   LIG    1        1.174   5.354   7.051  0.00  0.00    +0.040 A 
ATOM     23  C   LIG    1       -0.190   5.144   7.156  0.00  0.00    +0.100 A 
ATOM     24  C   LIG    1       -0.936   5.876   8.056  0.00  0.00    -0.620 A 
BRANCH  19  25
ATOM     25  C   LIG    1       -1.103   7.609   9.838  0.00  0.00    +0.490 C 
ATOM     26  O   LIG    1       -2.275   7.347  10.017  0.00  0.00    -0.480 OA
BRANCH  25  28
ATOM     27  C   LIG    1       -1.363   9.341  11.460  0.00  0.00    +0.280 C 
ATOM     28  O   LIG    1       -0.524   8.614  10.523  0.00  0.00    -0.340 OA
ENDBRANCH  25  28
ENDBRANCH  19  25
ENDBRANCH  16  24
ENDBRANCH   1  16
TORSDOF 6
