REMARK  Name = ZINCtj00000vTumy.0
REMARK                            x       y       z     vdW  Elec       q    Type
REMARK                         _______ _______ _______ _____ _____    ______ ____
ROOT
ATOM      1  O   LIG    1        8.373  -1.896   1.192  0.00  0.00    -0.520 OA
ATOM      2  C   LIG    1        7.564  -2.156   2.058  0.00  0.00    +0.520 C 
ATOM      3  N   LIG    1        7.830  -3.119   2.961  0.00  0.00    -0.720 N 
ATOM      4  H   LIG    1        7.184  -3.327   3.654  0.00  0.00    +0.400 HD
ENDROOT
BRANCH   3   5
ATOM      5  C   LIG    1        9.096  -3.854   2.897  0.00  0.00    +0.260 C 
ATOM      6  C   LIG    1        8.947  -5.225   3.588  0.00  0.00    +0.050 C 
ATOM      7  C   LIG    1       10.308  -5.445   4.294  0.00  0.00    -0.010 C 
ATOM      8  C   LIG    1       10.664  -4.025   4.799  0.00  0.00    +0.010 C 
ATOM      9  C   LIG    1       10.188  -3.091   3.667  0.00  0.00    +0.150 C 
BRANCH   9  10
ATOM     10  O   LIG    1       11.278  -2.783   2.795  0.00  0.00    -0.560 OA
ATOM     11  H   LIG    1       11.999  -2.301   3.222  0.00  0.00    +0.380 HD
ENDBRANCH   9  10
BRANCH   7  12
ATOM     12  C   LIG    1       10.159  -6.416   5.467  0.00  0.00    +0.300 C 
BRANCH  12  13
ATOM     13  N   LIG    1       11.460  -6.599   6.117  0.00  0.00    -0.460 N 
ATOM     14  C   LIG    1       12.395  -7.550   5.808  0.00  0.00    +0.110 A 
ATOM     15  C   LIG    1       13.435  -7.359   6.643  0.00  0.00    +0.140 A 
ATOM     16  N   LIG    1       13.138  -6.326   7.445  0.00  0.00    -0.490 NA
ATOM     17  C   LIG    1       11.957  -5.866   7.136  0.00  0.00    +0.380 A 
ENDBRANCH  12  13
ENDBRANCH   7  12
ENDBRANCH   3   5
BRANCH   2  18
ATOM     18  C   LIG    1        6.262  -1.400   2.124  0.00  0.00    +0.060 C 
BRANCH  18  19
ATOM     19  C   LIG    1        6.212  -0.371   0.993  0.00  0.00    +0.290 C 
BRANCH  19  20
ATOM     20  N   LIG    1        4.942   0.366   1.057  0.00  0.00    -0.390 N 
ATOM     21  C   LIG    1        4.842   1.269  -0.097  0.00  0.00    +0.280 C 
ATOM     22  C   LIG    1        3.528   2.051  -0.020  0.00  0.00    +0.220 C 
ATOM     23  N   LIG    1        2.401   1.108  -0.015  0.00  0.00    -0.490 N 
ATOM     24  C   LIG    1        2.501   0.181   1.121  0.00  0.00    +0.230 C 
ATOM     25  C   LIG    1        3.823  -0.585   1.036  0.00  0.00    +0.270 C 
ATOM     26  H   LIG    1        4.909   0.905   1.910  0.00  0.00    +0.420 HD
BRANCH  23  27
ATOM     27  C   LIG    1        1.180   1.788   0.000  0.00  0.00    +0.080 A 
ATOM     28  C   LIG    1       -0.013   1.076   0.008  0.00  0.00    +0.000 A 
ATOM     29  C   LIG    1       -1.217   1.751   0.017  0.00  0.00    +0.040 A 
ATOM     30  C   LIG    1       -1.237   3.134   0.030  0.00  0.00    +0.000 A 
ATOM     31  C   LIG    1       -0.051   3.845   0.023  0.00  0.00    +0.040 A 
ATOM     32  C   LIG    1        1.157   3.176   0.008  0.00  0.00    -0.030 A 
ENDBRANCH  23  27
ENDBRANCH  19  20
ENDBRANCH  18  19
ENDBRANCH   2  18
TORSDOF 8
