REMARK  Name = ZINCvU0000000Ddy.0
REMARK                            x       y       z     vdW  Elec       q    Type
REMARK                         _______ _______ _______ _____ _____    ______ ____
ROOT
ATOM      1  N   LIG    1        2.422  -2.577  -0.965  0.00  0.00    -0.590 N 
ATOM      2  C   LIG    1        3.253  -3.319  -0.205  0.00  0.00    +0.570 C 
ATOM      3  C   LIG    1        2.731  -3.417   1.169  0.00  0.00    +0.090 A 
ATOM      4  C   LIG    1        1.562  -2.713   1.235  0.00  0.00    -0.250 A 
ATOM      5  C   LIG    1        0.806  -2.617   2.488  0.00  0.00    +0.460 A 
ATOM      6  C   LIG    1        1.541  -3.143   3.667  0.00  0.00    -0.210 A 
ATOM      7  C   LIG    1        1.047  -2.939   4.955  0.00  0.00    +0.120 A 
ATOM      8  C   LIG    1        1.748  -3.425   6.037  0.00  0.00    +0.000 A 
ATOM      9  C   LIG    1        2.937  -4.114   5.843  0.00  0.00    +0.090 A 
ATOM     10  C   LIG    1        3.433  -4.323   4.576  0.00  0.00    +0.010 A 
ATOM     11  C   LIG    1        2.742  -3.843   3.464  0.00  0.00    +0.140 A 
ATOM     12  O   LIG    1       -0.317  -2.151   2.556  0.00  0.00    -0.430 OA
ATOM     13  O   LIG    1        3.249  -4.067   2.230  0.00  0.00    -0.180 OA
ATOM     14  O   LIG    1        4.282  -3.833  -0.597  0.00  0.00    -0.480 OA
ATOM     15  C   LIG    1        1.298  -2.142  -0.120  0.00  0.00    +0.360 C 
ENDROOT
BRANCH  15  16
ATOM     16  C   LIG    1        1.252  -0.637  -0.050  0.00  0.00    -0.090 A 
ATOM     17  C   LIG    1        2.428   0.087   0.011  0.00  0.00    +0.030 A 
ATOM     18  C   LIG    1        2.389   1.468   0.075  0.00  0.00    +0.030 A 
ATOM     19  C   LIG    1        1.175   2.127   0.080  0.00  0.00    +0.000 A 
ATOM     20  C   LIG    1       -0.006   1.402   0.020  0.00  0.00    +0.090 A 
ATOM     21  C   LIG    1        0.035   0.017  -0.045  0.00  0.00    +0.050 A 
BRANCH  20  22
ATOM     22  O   LIG    1       -1.202   2.048   0.019  0.00  0.00    -0.250 OA
BRANCH  22  23
ATOM     23  C   LIG    1       -1.516   2.808  -1.063  0.00  0.00    +0.120 A 
ATOM     24  C   LIG    1       -0.684   2.812  -2.174  0.00  0.00    -0.060 A 
ATOM     25  C   LIG    1       -1.009   3.581  -3.275  0.00  0.00    +0.050 A 
ATOM     26  C   LIG    1       -2.154   4.356  -3.265  0.00  0.00    -0.020 A 
ATOM     27  C   LIG    1       -2.981   4.358  -2.157  0.00  0.00    +0.050 A 
ATOM     28  C   LIG    1       -2.664   3.586  -1.056  0.00  0.00    -0.010 A 
ENDBRANCH  22  23
ENDBRANCH  20  22
ENDBRANCH  15  16
BRANCH   1  29
ATOM     29  C   LIG    1        2.605  -2.260  -2.384  0.00  0.00    +0.320 C 
BRANCH  29  31
ATOM     30  C   LIG    1        3.591  -0.629  -3.999  0.00  0.00    +0.030 C 
ATOM     31  C   LIG    1        3.400  -0.960  -2.517  0.00  0.00    -0.010 C 
ENDBRANCH  29  31
ENDBRANCH   1  29
TORSDOF 5
