REMARK  Name = ZINCnE000005tipd.0
REMARK                            x       y       z     vdW  Elec       q    Type
REMARK                         _______ _______ _______ _____ _____    ______ ____
ROOT
ATOM      1  S   LIG    1       -4.822   2.166   1.624  0.00  0.00    +2.580 S 
ATOM      2  O   LIG    1       -4.867   3.572   1.821  0.00  0.00    -1.020 OA
ATOM      3  O   LIG    1       -5.012   1.227   2.674  0.00  0.00    -1.030 OA
ENDROOT
BRANCH   1   7
ATOM      4  C   LIG    1       -8.875  -0.635  -0.121  0.00  0.00    +0.110 C 
ATOM      5  C   LIG    1       -7.889   0.482  -0.350  0.00  0.00    -0.100 A 
ATOM      6  C   LIG    1       -6.938   0.772   0.609  0.00  0.00    +0.150 A 
ATOM      7  C   LIG    1       -6.033   1.796   0.399  0.00  0.00    -0.600 A 
ATOM      8  C   LIG    1       -6.083   2.534  -0.769  0.00  0.00    +0.060 A 
ATOM      9  C   LIG    1       -7.031   2.240  -1.734  0.00  0.00    +0.010 A 
ATOM     10 CL   LIG    1       -4.952   3.825  -1.030  0.00  0.00    -0.020 Cl
ATOM     11  C   LIG    1       -7.936   1.216  -1.523  0.00  0.00    +0.000 A 
ATOM     12 CL   LIG    1       -9.130   0.851  -2.729  0.00  0.00    -0.060 Cl
ENDBRANCH   1   7
BRANCH   1  13
ATOM     13  N   LIG    1       -3.340   1.834   0.963  0.00  0.00    -1.070 NA
BRANCH  13  14
ATOM     14  C   LIG    1       -2.171   2.022   1.725  0.00  0.00    +0.120 A 
ATOM     15  C   LIG    1       -1.087   2.751   1.358  0.00  0.00    -0.000 A 
ATOM     16  N   LIG    1       -0.185   2.684   2.373  0.00  0.00    -0.400 N 
ATOM     17  N   LIG    1       -0.735   1.885   3.384  0.00  0.00    -0.300 NA
ATOM     18  C   LIG    1       -0.916   3.504   0.064  0.00  0.00    +0.120 C 
ATOM     19  C   LIG    1       -1.919   1.487   2.997  0.00  0.00    +0.020 A 
ATOM     20  C   LIG    1       -2.856   0.608   3.784  0.00  0.00    +0.150 C 
BRANCH  16  21
ATOM     21  C   LIG    1        1.129   3.331   2.404  0.00  0.00    +0.510 C 
BRANCH  21  22
ATOM     22  C   LIG    1        1.001   4.674   2.994  0.00  0.00    +0.190 C 
ATOM     23  N   LIG    1        0.902   5.710   3.449  0.00  0.00    -0.420 NA
ENDBRANCH  21  22
ENDBRANCH  16  21
ENDBRANCH  13  14
ENDBRANCH   1  13
TORSDOF 5
