REMARK  Name = ZINCrH000004nbNv.0
REMARK                            x       y       z     vdW  Elec       q    Type
REMARK                         _______ _______ _______ _____ _____    ______ ____
ROOT
ATOM      1  C   LIG    1        0.568   7.255  -1.221  0.00  0.00    +0.430 C 
ATOM      2  O   LIG    1        0.470   7.823  -0.153  0.00  0.00    -0.450 OA
ENDROOT
BRANCH   1   3
ATOM      3  C   LIG    1        0.933   8.010  -2.421  0.00  0.00    -0.260 A 
ATOM      4  C   LIG    1        1.190   9.366  -2.506  0.00  0.00    +0.120 A 
ATOM      5  N   LIG    1        1.491   9.656  -3.785  0.00  0.00    -0.440 N 
ATOM      6  C   LIG    1        1.430   8.531  -4.556  0.00  0.00    +0.020 A 
ATOM      7  C   LIG    1        1.698   8.472  -6.038  0.00  0.00    +0.140 C 
ATOM      8  C   LIG    1        1.146  10.347  -1.364  0.00  0.00    +0.150 C 
ATOM      9  C   LIG    1        1.093   7.484  -3.784  0.00  0.00    +0.010 A 
BRANCH   5  10
ATOM     10  C   LIG    1        1.829  10.992  -4.281  0.00  0.00    +0.340 C 
BRANCH  10  11
ATOM     11  C   LIG    1        0.551  11.712  -4.717  0.00  0.00    +0.440 C 
ATOM     12  F   LIG    1       -0.073  10.982  -5.733  0.00  0.00    -0.170 F 
ATOM     13  F   LIG    1        0.874  12.988  -5.191  0.00  0.00    -0.170 F 
ATOM     14  F   LIG    1       -0.315  11.826  -3.624  0.00  0.00    -0.170 F 
ENDBRANCH  10  11
ENDBRANCH   5  10
ENDBRANCH   1   3
BRANCH   1  15
ATOM     15  C   LIG    1        0.315   5.772  -1.312  0.00  0.00    +0.220 C 
BRANCH  15  23
ATOM     16  C   LIG    1        1.179   1.786   0.000  0.00  0.00    +0.110 A 
ATOM     17  C   LIG    1       -0.013   1.076   0.008  0.00  0.00    -0.040 A 
ATOM     18  C   LIG    1       -1.218   1.751   0.017  0.00  0.00    +0.050 A 
ATOM     19  C   LIG    1       -1.244   3.138   0.030  0.00  0.00    +0.050 A 
ATOM     20  O   LIG    1       -2.450   3.770   0.050  0.00  0.00    -0.310 OA
ATOM     21  C   LIG    1       -2.450   5.165  -0.271  0.00  0.00    +0.200 C 
ATOM     22  C   LIG    1       -1.296   5.825   0.494  0.00  0.00    +0.220 C 
ATOM     23  N   LIG    1       -0.031   5.252   0.018  0.00  0.00    -0.470 N 
ATOM     24  C   LIG    1       -0.052   3.854   0.019  0.00  0.00    +0.070 A 
ATOM     25  C   LIG    1        1.159   3.171   0.006  0.00  0.00    +0.020 A 
BRANCH  16  27
ATOM     26  C   LIG    1        2.310  -0.306  -0.016  0.00  0.00    +0.250 C 
ATOM     27  O   LIG    1        2.365   1.122  -0.012  0.00  0.00    -0.320 OA
ENDBRANCH  16  27
ENDBRANCH  15  23
ENDBRANCH   1  15
TORSDOF 6
