REMARK  Name = ZINCqH000003955b.0
REMARK                            x       y       z     vdW  Elec       q    Type
REMARK                         _______ _______ _______ _____ _____    ______ ____
ROOT
ATOM      1  C   LIG    1       -1.260   7.722  -0.159  0.00  0.00    -0.120 A 
ATOM      2  C   LIG    1       -0.060   8.438  -0.161  0.00  0.00    +0.140 A 
ATOM      3  C   LIG    1       -0.080   9.812  -0.264  0.00  0.00    -0.050 A 
ATOM      4  C   LIG    1       -1.285  10.490  -0.354  0.00  0.00    +0.140 A 
ATOM      5  C   LIG    1       -2.479   9.798  -0.347  0.00  0.00    -0.010 A 
ATOM      6  C   LIG    1       -2.479   8.412  -0.250  0.00  0.00    +0.210 A 
ENDROOT
BRANCH   6   7
ATOM      7  N   LIG    1       -3.679   7.714  -0.243  0.00  0.00    -0.490 N 
ATOM      8  C   LIG    1       -4.391   7.876  -1.517  0.00  0.00    +0.180 C 
ATOM      9  C   LIG    1       -5.631   6.980  -1.529  0.00  0.00    +0.030 C 
ATOM     10  C   LIG    1       -6.544   7.366  -0.361  0.00  0.00    +0.010 C 
ATOM     11  C   LIG    1       -5.764   7.234   0.951  0.00  0.00    +0.030 C 
ATOM     12  C   LIG    1       -4.520   8.123   0.890  0.00  0.00    +0.180 C 
ENDBRANCH   6   7
BRANCH   1  15
ATOM     13  N   LIG    1       -0.074   5.593   0.032  0.00  0.00    -0.680 N 
ATOM     14  H   LIG    1        0.757   6.089   0.104  0.00  0.00    +0.410 HD
ATOM     15  C   LIG    1       -1.246   6.252  -0.055  0.00  0.00    +0.560 C 
ATOM     16  O   LIG    1       -2.293   5.633  -0.049  0.00  0.00    -0.450 OA
BRANCH  13  20
ATOM     17  C   LIG    1       -0.016   1.428  -0.007  0.00  0.00    -0.050 A 
ATOM     18  C   LIG    1        0.922   2.134   0.751  0.00  0.00    +0.090 A 
ATOM     19  C   LIG    1        0.903   3.511   0.757  0.00  0.00    -0.010 A 
ATOM     20  C   LIG    1       -0.054   4.199   0.019  0.00  0.00    +0.180 A 
ATOM     21  C   LIG    1       -0.993   3.499  -0.733  0.00  0.00    +0.030 A 
ATOM     22  C   LIG    1       -0.977   2.122  -0.748  0.00  0.00    +0.090 A 
BRANCH  17  24
ATOM     23  N   LIG    1        0.019  -1.140  -0.031  0.00  0.00    -0.420 NA
ATOM     24  C   LIG    1        0.004  -0.004  -0.021  0.00  0.00    +0.250 C 
ENDBRANCH  17  24
ENDBRANCH  13  20
ENDBRANCH   1  15
BRANCH   3  25
ATOM     25  N   LIG    1        1.193  10.567  -0.273  0.00  0.00    +0.030 N 
ATOM     26  O   LIG    1        2.254   9.974  -0.194  0.00  0.00    -0.150 OA
ATOM     27  O   LIG    1        1.179  11.782  -0.358  0.00  0.00    -0.150 OA
ENDBRANCH   3  25
TORSDOF 5
