REMARK  Name = ZINCrH00000tj184.0
REMARK                            x       y       z     vdW  Elec       q    Type
REMARK                         _______ _______ _______ _____ _____    ______ ____
ROOT
ATOM      1  C   LIG    1        4.260  -1.313   1.008  0.00  0.00    +0.140 A 
ATOM      2  N   LIG    1        5.279  -1.955   0.486  0.00  0.00    -0.250 NA
ATOM      3  N   LIG    1        5.435  -1.605  -0.741  0.00  0.00    -0.270 NA
ATOM      4  C   LIG    1        4.529  -0.730  -1.076  0.00  0.00    +0.210 A 
ATOM      5  N   LIG    1        3.744  -0.514   0.026  0.00  0.00    -0.420 N 
ENDROOT
BRANCH   5   6
ATOM      6  C   LIG    1        2.643   0.350   0.127  0.00  0.00    +0.090 A 
ATOM      7  C   LIG    1        1.368  -0.166   0.308  0.00  0.00    +0.070 A 
ATOM      8  C   LIG    1        0.286   0.686   0.407  0.00  0.00    +0.010 A 
ATOM      9  C   LIG    1        0.472   2.056   0.324  0.00  0.00    +0.120 A 
ATOM     10  C   LIG    1        1.744   2.573   0.143  0.00  0.00    +0.010 A 
ATOM     11  F   LIG    1       -0.588   2.888   0.415  0.00  0.00    -0.130 F 
ATOM     12  C   LIG    1        2.829   1.724   0.045  0.00  0.00    +0.070 A 
ENDBRANCH   5   6
BRANCH   1  13
ATOM     13  S   LIG    1        3.667  -1.457   2.661  0.00  0.00    +0.060 S 
BRANCH  13  17
ATOM     14  C   LIG    1        6.553  -4.327   5.458  0.00  0.00    +0.050 C 
ATOM     15  C   LIG    1        5.889  -2.949   5.459  0.00  0.00    +0.210 C 
ATOM     16  C   LIG    1        4.502  -3.015   4.779  0.00  0.00    +0.090 C 
ATOM     17  C   LIG    1        4.842  -2.670   3.312  0.00  0.00    -0.020 C 
ATOM     18  C   LIG    1        6.234  -2.079   3.366  0.00  0.00    +0.490 C 
ATOM     19  O   LIG    1        6.873  -1.718   2.406  0.00  0.00    -0.410 OA
ATOM     20  O   LIG    1        6.652  -2.015   4.638  0.00  0.00    -0.330 OA
ENDBRANCH  13  17
ENDBRANCH   1  13
BRANCH   4  21
ATOM     21  C   LIG    1        4.373  -0.077  -2.425  0.00  0.00    +0.210 C 
BRANCH  21  22
ATOM     22  C   LIG    1        3.562  -0.972  -3.326  0.00  0.00    -0.090 A 
ATOM     23  C   LIG    1        4.182  -1.987  -4.032  0.00  0.00    +0.030 A 
ATOM     24  C   LIG    1        3.438  -2.811  -4.854  0.00  0.00    +0.010 A 
ATOM     25  C   LIG    1        2.075  -2.615  -4.979  0.00  0.00    +0.000 A 
ATOM     26  C   LIG    1        1.456  -1.597  -4.278  0.00  0.00    +0.000 A 
ATOM     27  C   LIG    1        2.200  -0.776  -3.451  0.00  0.00    +0.010 A 
ENDBRANCH  21  22
ENDBRANCH   4  21
TORSDOF 5
