REMARK  Name = ZINCpe00000MIae5.0
REMARK                            x       y       z     vdW  Elec       q    Type
REMARK                         _______ _______ _______ _____ _____    ______ ____
ROOT
ATOM      1  C   LIG    1       -2.545   1.749   0.022  0.00  0.00    +0.320 C 
ATOM      2  C   LIG    1       -3.185   1.975  -1.364  0.00  0.00    +0.060 C 
ATOM      3  C   LIG    1       -4.639   2.392  -1.009  0.00  0.00    +0.040 C 
ATOM      4  C   LIG    1       -4.423   3.208   0.290  0.00  0.00    +0.260 C 
ATOM      5  N   LIG    1       -3.340   2.504   1.002  0.00  0.00    -0.600 N 
ATOM      6  C   LIG    1       -3.116   2.546   2.330  0.00  0.00    +0.540 C 
ATOM      7  O   LIG    1       -2.191   1.925   2.809  0.00  0.00    -0.530 OA
ENDROOT
BRANCH   1  17
ATOM      8  C   LIG    1        0.002  -0.004   0.002  0.00  0.00    +0.340 C 
ATOM      9  N   LIG    1       -0.018   1.461   0.010  0.00  0.00    -0.480 N 
ATOM     10  C   LIG    1        1.083   2.294   0.004  0.00  0.00    +0.050 A 
ATOM     11  C   LIG    1        2.455   2.084  -0.011  0.00  0.00    +0.010 A 
ATOM     12  C   LIG    1        3.312   3.164  -0.013  0.00  0.00    +0.030 A 
ATOM     13  C   LIG    1        2.811   4.458  -0.002  0.00  0.00    +0.000 A 
ATOM     14  C   LIG    1        1.464   4.684   0.012  0.00  0.00    +0.070 A 
ATOM     15  C   LIG    1        0.577   3.605   0.016  0.00  0.00    +0.050 A 
ATOM     16  N   LIG    1       -0.777   3.506   0.028  0.00  0.00    -0.480 NA
ATOM     17  C   LIG    1       -1.124   2.252   0.019  0.00  0.00    +0.280 A 
ENDBRANCH   1  17
BRANCH   6  18
ATOM     18  C   LIG    1       -4.015   3.365   3.220  0.00  0.00    +0.090 C 
BRANCH  18  19
ATOM     19  C   LIG    1       -3.546   3.242   4.671  0.00  0.00    +0.250 C 
ATOM     20  N   LIG    1       -3.828   1.894   5.195  0.00  0.00    -0.710 N 
ATOM     21  H   LIG    1       -3.476   1.056   4.858  0.00  0.00    +0.450 HD
ATOM     22  C   LIG    1       -4.671   2.053   6.231  0.00  0.00    +0.700 C 
ATOM     23  N   LIG    1       -4.974   3.337   6.451  0.00  0.00    -0.680 N 
ATOM     24  H   LIG    1       -5.566   3.644   7.155  0.00  0.00    +0.440 HD
ATOM     25  O   LIG    1       -5.107   1.133   6.895  0.00  0.00    -0.540 OA
ATOM     26  C   LIG    1       -4.356   4.151   5.573  0.00  0.00    +0.530 C 
ATOM     27  O   LIG    1       -4.432   5.360   5.516  0.00  0.00    -0.460 OA
ENDBRANCH  18  19
ENDBRANCH   6  18
TORSDOF 3
