REMARK  Name = ZINCnE000001LtBb.1
REMARK                            x       y       z     vdW  Elec       q    Type
REMARK                         _______ _______ _______ _____ _____    ______ ____
ROOT
ATOM      1  N   LIG    1        7.195   1.766  -0.057  0.00  0.00    -0.690 NA
ATOM      2  C   LIG    1        5.944   2.268  -0.042  0.00  0.00    +0.460 C 
ATOM      3  O   LIG    1        5.772   3.468  -0.034  0.00  0.00    -0.550 OA
ENDROOT
BRANCH   1   9
ATOM      4  C   LIG    1       11.926   5.722  -0.085  0.00  0.00    +0.080 A 
ATOM      5  C   LIG    1       10.805   6.546  -0.070  0.00  0.00    -0.050 A 
ATOM      6  C   LIG    1        9.543   6.008  -0.059  0.00  0.00    +0.060 A 
ATOM      7  C   LIG    1        9.362   4.609  -0.064  0.00  0.00    +0.120 A 
ATOM      8  N   LIG    1        8.209   3.908  -0.061  0.00  0.00    -0.550 NA
ATOM      9  C   LIG    1        8.285   2.623  -0.063  0.00  0.00    +0.400 A 
ATOM     10  S   LIG    1        9.966   2.109  -0.082  0.00  0.00    -0.020 S 
ATOM     11  C   LIG    1       10.495   3.790  -0.079  0.00  0.00    -0.180 A 
ATOM     12  C   LIG    1       11.770   4.349  -0.089  0.00  0.00    +0.030 A 
BRANCH   4  14
ATOM     13  C   LIG    1       13.257   7.692  -0.090  0.00  0.00    +0.220 C 
ATOM     14  O   LIG    1       13.172   6.266  -0.095  0.00  0.00    -0.320 OA
ENDBRANCH   4  14
ENDBRANCH   1   9
BRANCH   2  15
ATOM     15  C   LIG    1        4.760   1.336  -0.036  0.00  0.00    +0.230 C 
BRANCH  15  16
ATOM     16  O   LIG    1        3.552   2.100  -0.020  0.00  0.00    -0.280 OA
BRANCH  16  17
ATOM     17  C   LIG    1        2.383   1.407  -0.013  0.00  0.00    +0.110 A 
ATOM     18  C   LIG    1        2.397   0.021  -0.020  0.00  0.00    -0.050 A 
ATOM     19  C   LIG    1        1.207  -0.681  -0.013  0.00  0.00    +0.040 A 
ATOM     20  C   LIG    1        0.002  -0.004   0.002  0.00  0.00    -0.010 A 
ATOM     21  C   LIG    1       -0.017   1.379   0.010  0.00  0.00    +0.020 A 
ATOM     22  C   LIG    1        1.171   2.087   0.002  0.00  0.00    +0.060 A 
ATOM     23  F   LIG    1        1.153   3.438   0.009  0.00  0.00    -0.130 F 
ENDBRANCH  16  17
ENDBRANCH  15  16
ENDBRANCH   2  15
TORSDOF 5
