REMARK  Name = ZINCpe00000z40I4.0
REMARK                            x       y       z     vdW  Elec       q    Type
REMARK                         _______ _______ _______ _____ _____    ______ ____
ROOT
ATOM      1  C   LIG    1       -0.070   1.510  -0.089  0.00  0.00    +0.250 C 
ENDROOT
BRANCH   1   2
ATOM      2  N   LIG    1        1.298   2.026  -0.183  0.00  0.00    -0.710 N 
ATOM      3  H   LIG    1        2.045   1.410  -0.241  0.00  0.00    +0.410 HD
ATOM      4  C   LIG    1        1.518   3.355  -0.188  0.00  0.00    +0.610 C 
ATOM      5  O   LIG    1        0.581   4.127  -0.115  0.00  0.00    -0.530 OA
BRANCH   4   6
ATOM      6  C   LIG    1        2.896   3.875  -0.282  0.00  0.00    +0.000 A 
ATOM      7  C   LIG    1        3.256   5.192  -0.303  0.00  0.00    +0.190 A 
ATOM      8  N   LIG    1        4.614   5.234  -0.395  0.00  0.00    -0.360 N 
ATOM      9  C   LIG    1        5.500   6.274  -0.450  0.00  0.00    +0.220 A 
ATOM     10  C   LIG    1        6.825   6.043  -0.548  0.00  0.00    +0.030 A 
ATOM     11  C   LIG    1        7.315   4.726  -0.594  0.00  0.00    +0.050 A 
ATOM     12  C   LIG    1        6.447   3.682  -0.540  0.00  0.00    +0.070 A 
ATOM     13  C   LIG    1        5.062   3.938  -0.438  0.00  0.00    +0.230 A 
ATOM     14  N   LIG    1        4.015   3.133  -0.369  0.00  0.00    -0.470 NA
ENDBRANCH   4   6
ENDBRANCH   1   2
BRANCH   1  15
ATOM     15  C   LIG    1       -0.041  -0.020  -0.103  0.00  0.00    +0.290 C 
BRANCH  15  17
ATOM     16  C   LIG    1       -2.122  -0.763  -1.130  0.00  0.00    +0.600 C 
ATOM     17  N   LIG    1       -1.409  -0.535  -0.009  0.00  0.00    -0.610 N 
ATOM     18  C   LIG    1       -2.002  -0.803   1.303  0.00  0.00    +0.290 C 
ATOM     19  O   LIG    1       -1.659  -0.467  -2.215  0.00  0.00    -0.540 OA
BRANCH  16  22
ATOM     20  C   LIG    1       -3.373  -2.785  -3.193  0.00  0.00    +0.170 C 
ATOM     21  C   LIG    1       -4.021  -2.259  -1.938  0.00  0.00    +0.150 A 
ATOM     22  C   LIG    1       -3.462  -1.371  -1.041  0.00  0.00    -0.300 A 
ATOM     23  C   LIG    1       -4.412  -1.159  -0.017  0.00  0.00    +0.270 A 
ATOM     24  N   LIG    1       -5.470  -1.870  -0.295  0.00  0.00    -0.300 NA
ATOM     25  N   LIG    1       -5.247  -2.567  -1.488  0.00  0.00    -0.360 N 
ATOM     26  C   LIG    1       -6.194  -3.478  -2.137  0.00  0.00    +0.360 C 
ENDBRANCH  16  22
ENDBRANCH  15  17
ENDBRANCH   1  15
TORSDOF 5
