REMARK  Name = ZINCpe00000gN2lC.0
REMARK                            x       y       z     vdW  Elec       q    Type
REMARK                         _______ _______ _______ _____ _____    ______ ____
ROOT
ATOM      1  C   LIG    1       -0.080   1.074  -0.046  0.00  0.00    +0.330 C 
ATOM      2  N   LIG    1        1.272   1.608   0.069  0.00  0.00    -0.710 N 
ATOM      3  H   LIG    1        1.696   1.587   0.941  0.00  0.00    +0.410 HD
ATOM      4  C   LIG    1        1.960   2.125  -0.949  0.00  0.00    +0.520 C 
ATOM      5  C   LIG    1        1.407   2.265  -2.338  0.00  0.00    +0.090 C 
ATOM      6  C   LIG    1        0.181   1.364  -2.503  0.00  0.00    +0.030 C 
ATOM      7  O   LIG    1        3.094   2.503  -0.742  0.00  0.00    -0.540 OA
ATOM      8  C   LIG    1       -0.757   1.598  -1.312  0.00  0.00    +0.240 C 
ENDROOT
BRANCH   1  14
ATOM      9  C   LIG    1       -0.804   4.001   0.819  0.00  0.00    +0.320 C 
ATOM     10  N   LIG    1       -1.196   2.777   1.522  0.00  0.00    -0.450 N 
ATOM     11  C   LIG    1       -1.929   2.703   2.654  0.00  0.00    +0.410 A 
ATOM     12  N   LIG    1       -2.072   1.447   2.978  0.00  0.00    -0.490 NA
ATOM     13  C   LIG    1       -1.445   0.682   2.072  0.00  0.00    +0.170 A 
ATOM     14  C   LIG    1       -0.886   1.495   1.156  0.00  0.00    -0.060 A 
ENDBRANCH   1  14
BRANCH   8  15
ATOM     15  N   LIG    1       -2.016   0.881  -1.530  0.00  0.00    -0.710 N 
ATOM     16  H   LIG    1       -2.136  -0.010  -1.165  0.00  0.00    +0.410 HD
ATOM     17  C   LIG    1       -3.007   1.459  -2.236  0.00  0.00    +0.570 C 
ATOM     18  O   LIG    1       -2.824   2.535  -2.773  0.00  0.00    -0.520 OA
BRANCH  17  19
ATOM     19  C   LIG    1       -4.311   0.789  -2.358  0.00  0.00    +0.020 A 
ATOM     20  C   LIG    1       -4.554  -0.371  -1.660  0.00  0.00    +0.080 A 
ATOM     21  C   LIG    1       -5.794  -1.010  -1.774  0.00  0.00    +0.020 A 
ATOM     22  C   LIG    1       -6.759  -0.482  -2.577  0.00  0.00    +0.130 A 
ATOM     23  C   LIG    1       -6.504   0.707  -3.289  0.00  0.00    +0.200 A 
ATOM     24  N   LIG    1       -7.246   1.423  -4.122  0.00  0.00    -0.480 NA
ATOM     25  C   LIG    1       -6.544   2.476  -4.539  0.00  0.00    +0.220 A 
ATOM     26  C   LIG    1       -5.321   2.436  -3.959  0.00  0.00    +0.120 A 
ATOM     27  N   LIG    1       -5.288   1.328  -3.166  0.00  0.00    -0.340 N 
ENDBRANCH  17  19
ENDBRANCH   8  15
TORSDOF 3
