REMARK  Name = ZINCqH0000038Vyn.0
REMARK                            x       y       z     vdW  Elec       q    Type
REMARK                         _______ _______ _______ _____ _____    ______ ____
ROOT
ATOM      1  C   LIG    1       -1.249   2.211   0.020  0.00  0.00    +0.310 C 
ATOM      2  C   LIG    1       -1.754   2.387   1.468  0.00  0.00    +0.060 C 
ATOM      3  C   LIG    1       -3.296   2.339   1.306  0.00  0.00    +0.040 C 
ATOM      4  C   LIG    1       -3.457   1.302   0.166  0.00  0.00    +0.240 C 
ATOM      5  N   LIG    1       -2.325   1.560  -0.742  0.00  0.00    -0.620 N 
ATOM      6  C   LIG    1       -2.283   1.251  -2.053  0.00  0.00    +0.730 C 
ATOM      7  N   LIG    1       -3.339   0.652  -2.638  0.00  0.00    -0.740 N 
ATOM      8  H   LIG    1       -4.129   0.444  -2.116  0.00  0.00    +0.400 HD
ATOM      9  O   LIG    1       -1.292   1.512  -2.708  0.00  0.00    -0.570 OA
ENDROOT
BRANCH   1  15
ATOM     10  C   LIG    1        1.692   3.192   0.003  0.00  0.00    +0.300 C 
ATOM     11  N   LIG    1        1.273   1.788  -0.001  0.00  0.00    -0.440 N 
ATOM     12  C   LIG    1        2.107   0.710  -0.014  0.00  0.00    +0.150 A 
ATOM     13  C   LIG    1        1.352  -0.407  -0.013  0.00  0.00    -0.070 A 
ATOM     14  C   LIG    1        0.002  -0.004   0.002  0.00  0.00    -0.060 A 
ATOM     15  C   LIG    1       -0.016   1.344   0.009  0.00  0.00    +0.010 A 
ENDBRANCH   1  15
BRANCH   7  16
ATOM     16  C   LIG    1       -3.293   0.316  -4.063  0.00  0.00    +0.450 C 
BRANCH  16  17
ATOM     17  C   LIG    1       -4.589  -0.340  -4.467  0.00  0.00    +0.170 A 
ATOM     18  N   LIG    1       -5.649   0.283  -4.901  0.00  0.00    -0.450 NA
ATOM     19  C   LIG    1       -6.605  -0.620  -5.163  0.00  0.00    +0.170 A 
ATOM     20  C   LIG    1       -6.103  -1.846  -4.867  0.00  0.00    +0.010 A 
ATOM     21  O   LIG    1       -4.838  -1.656  -4.431  0.00  0.00    -0.190 OA
BRANCH  20  22
ATOM     22  C   LIG    1       -6.805  -3.141  -4.995  0.00  0.00    -0.020 A 
ATOM     23  C   LIG    1       -8.121  -3.181  -5.457  0.00  0.00    +0.040 A 
ATOM     24  C   LIG    1       -8.769  -4.393  -5.579  0.00  0.00    +0.020 A 
ATOM     25  C   LIG    1       -8.120  -5.566  -5.236  0.00  0.00    +0.020 A 
ATOM     26  C   LIG    1       -6.817  -5.532  -4.773  0.00  0.00    +0.010 A 
ATOM     27  C   LIG    1       -6.156  -4.327  -4.650  0.00  0.00    +0.030 A 
ENDBRANCH  20  22
ENDBRANCH  16  17
ENDBRANCH   7  16
TORSDOF 4
