REMARK  Name = ZINCtV00000L6kkS.0
REMARK                            x       y       z     vdW  Elec       q    Type
REMARK                         _______ _______ _______ _____ _____    ______ ____
ROOT
ATOM      1  C   LIG    1        7.110   2.560   0.944  0.00  0.00    +0.180 C 
ATOM      2  C   LIG    1        5.699   2.622   0.419  0.00  0.00    +0.130 A 
ATOM      3  N   LIG    1        4.765   1.736   0.620  0.00  0.00    -0.220 NA
ATOM      4  N   LIG    1        3.585   2.127  -0.020  0.00  0.00    -0.340 N 
ATOM      5  C   LIG    1        3.795   3.321  -0.661  0.00  0.00    +0.330 A 
ATOM      6  N   LIG    1        3.026   4.107  -1.401  0.00  0.00    -0.470 NA
ATOM      7  C   LIG    1        3.486   5.237  -1.915  0.00  0.00    +0.250 A 
ATOM      8  C   LIG    1        4.805   5.650  -1.701  0.00  0.00    +0.010 A 
ATOM      9  C   LIG    1        5.638   4.878  -0.937  0.00  0.00    -0.050 A 
ATOM     10  C   LIG    1        5.134   3.684  -0.405  0.00  0.00    -0.190 A 
ENDROOT
BRANCH   4  11
ATOM     11  C   LIG    1        2.381   1.411  -0.013  0.00  0.00    +0.180 A 
ATOM     12  C   LIG    1        1.169   2.087   0.002  0.00  0.00    +0.050 A 
ATOM     13  C   LIG    1       -0.017   1.379   0.010  0.00  0.00    +0.090 A 
ATOM     14  C   LIG    1        0.002  -0.004   0.002  0.00  0.00    -0.030 A 
ATOM     15  C   LIG    1        1.210  -0.682  -0.014  0.00  0.00    -0.010 A 
ATOM     16 CL   LIG    1        1.230  -2.418  -0.023  0.00  0.00    -0.030 Cl
ATOM     17 CL   LIG    1       -1.490  -0.891   0.012  0.00  0.00    -0.040 Cl
ATOM     18  C   LIG    1        2.399   0.022  -0.021  0.00  0.00    +0.060 A 
ENDBRANCH   4  11
BRANCH   7  19
ATOM     19  C   LIG    1        2.585   6.081  -2.736  0.00  0.00    -0.080 A 
ATOM     20  C   LIG    1        3.051   7.277  -3.280  0.00  0.00    +0.080 A 
ATOM     21  C   LIG    1        2.211   8.057  -4.046  0.00  0.00    -0.010 A 
ATOM     22  C   LIG    1        0.902   7.659  -4.267  0.00  0.00    +0.120 A 
ATOM     23  C   LIG    1        0.432   6.474  -3.724  0.00  0.00    -0.020 A 
ATOM     24  F   LIG    1        0.081   8.429  -5.014  0.00  0.00    -0.130 F 
ATOM     25  C   LIG    1        1.267   5.685  -2.960  0.00  0.00    +0.110 A 
ENDBRANCH   7  19
BRANCH   9  26
ATOM     26  C   LIG    1        7.065   5.294  -0.689  0.00  0.00    +0.510 C 
ATOM     27  F   LIG    1        7.929   4.319  -1.198  0.00  0.00    -0.160 F 
ATOM     28  F   LIG    1        7.277   5.434   0.687  0.00  0.00    -0.160 F 
ATOM     29  F   LIG    1        7.312   6.515  -1.325  0.00  0.00    -0.170 F 
ENDBRANCH   9  26
TORSDOF 3
