REMARK  Name = ZINCtV00000mPROk.0
REMARK                            x       y       z     vdW  Elec       q    Type
REMARK                         _______ _______ _______ _____ _____    ______ ____
ROOT
ATOM      1  C   LIG    1       -0.729   1.579   1.267  0.00  0.00    +0.050 C 
ATOM      2  C   LIG    1       -0.013   1.086   0.008  0.00  0.00    +0.040 C 
ATOM      3  C   LIG    1       -0.753   1.593  -1.232  0.00  0.00    +0.020 C 
ATOM      4  C   LIG    1       -2.188   1.063  -1.221  0.00  0.00    +0.020 C 
ATOM      5  C   LIG    1       -2.904   1.556   0.038  0.00  0.00    +0.040 C 
ATOM      6  C   LIG    1       -2.164   1.050   1.278  0.00  0.00    +0.100 C 
ENDROOT
BRANCH   6   7
ATOM      7  C   LIG    1       -2.870   1.536   2.518  0.00  0.00    +0.100 A 
ATOM      8  N   LIG    1       -3.042   2.769   2.811  0.00  0.00    -0.470 NA
ATOM      9  C   LIG    1       -3.695   3.059   3.952  0.00  0.00    +0.080 A 
ATOM     10  C   LIG    1       -4.023   4.311   4.509  0.00  0.00    +0.060 A 
ATOM     11  C   LIG    1       -4.691   4.386   5.693  0.00  0.00    +0.020 A 
ATOM     12  C   LIG    1       -5.063   3.235   6.373  0.00  0.00    +0.040 A 
ATOM     13  C   LIG    1       -4.757   1.998   5.853  0.00  0.00    +0.060 A 
ATOM     14  C   LIG    1       -4.073   1.901   4.643  0.00  0.00    -0.190 A 
ATOM     15  S   LIG    1       -3.532   0.510   3.710  0.00  0.00    +0.140 S 
ENDBRANCH   6   7
BRANCH   1  17
ATOM     16  O   LIG    1       -0.570   0.373   3.285  0.00  0.00    -0.500 OA
ATOM     17  C   LIG    1        0.000   1.080   2.488  0.00  0.00    +0.460 C 
BRANCH  17  18
ATOM     18  O   LIG    1        1.283   1.421   2.690  0.00  0.00    -0.350 OA
BRANCH  18  19
ATOM     19  C   LIG    1        1.921   0.903   3.887  0.00  0.00    +0.280 C 
BRANCH  19  20
ATOM     20  C   LIG    1        3.347   1.387   3.944  0.00  0.00    -0.090 A 
ATOM     21  C   LIG    1        3.840   2.184   2.957  0.00  0.00    +0.040 A 
ATOM     22  C   LIG    1        5.156   2.641   2.993  0.00  0.00    +0.010 A 
ATOM     23  C   LIG    1        5.987   2.303   4.016  0.00  0.00    +0.030 A 
ATOM     24  C   LIG    1        5.515   1.481   5.053  0.00  0.00    -0.050 A 
ATOM     25  C   LIG    1        6.344   1.111   6.126  0.00  0.00    +0.030 A 
ATOM     26  C   LIG    1        5.846   0.328   7.122  0.00  0.00    +0.010 A 
ATOM     27  C   LIG    1        4.530  -0.129   7.086  0.00  0.00    +0.020 A 
ATOM     28  C   LIG    1        3.700   0.205   6.060  0.00  0.00    +0.010 A 
ATOM     29  C   LIG    1        4.175   1.022   5.020  0.00  0.00    -0.040 A 
ENDBRANCH  19  20
ENDBRANCH  18  19
ENDBRANCH  17  18
ENDBRANCH   1  17
TORSDOF 5
