REMARK  Name = ZINCpe00000MJJCP.0
REMARK                            x       y       z     vdW  Elec       q    Type
REMARK                         _______ _______ _______ _____ _____    ______ ____
ROOT
ATOM      1  C   LIG    1       -6.586   5.380   2.652  0.00  0.00    +0.200 C 
ENDROOT
BRANCH   1   6
ATOM      2  C   LIG    1       -7.819   6.813   4.172  0.00  0.00    +0.080 C 
ATOM      3  C   LIG    1       -9.100   6.352   4.898  0.00  0.00    +0.040 C 
ATOM      4  C   LIG    1       -8.636   5.080   5.654  0.00  0.00    +0.020 C 
ATOM      5  C   LIG    1       -7.624   4.472   4.651  0.00  0.00    +0.190 C 
ATOM      6  N   LIG    1       -6.937   5.637   4.055  0.00  0.00    -0.490 NA
BRANCH   2  10
ATOM      7  C   LIG    1       -5.659   8.600   6.779  0.00  0.00    +0.280 C 
ATOM      8  N   LIG    1       -6.324   7.554   5.999  0.00  0.00    -0.720 N 
ATOM      9  H   LIG    1       -6.182   6.620   6.219  0.00  0.00    +0.410 HD
ATOM     10  C   LIG    1       -7.134   7.889   4.975  0.00  0.00    +0.540 C 
ATOM     11  O   LIG    1       -7.312   9.057   4.699  0.00  0.00    -0.530 OA
ENDBRANCH   2  10
BRANCH   2  12
ATOM     12  C   LIG    1       -8.170   7.341   2.780  0.00  0.00    +0.190 C 
BRANCH  12  13
ATOM     13  O   LIG    1       -9.129   8.394   2.898  0.00  0.00    -0.370 OA
ATOM     14  C   LIG    1       -9.527   8.960   1.648  0.00  0.00    +0.200 C 
ENDBRANCH  12  13
ENDBRANCH   2  12
ENDBRANCH   1   6
BRANCH   1  15
ATOM     15  C   LIG    1       -5.513   4.324   2.587  0.00  0.00    +0.520 C 
ATOM     16  N   LIG    1       -5.032   3.924   1.394  0.00  0.00    -0.730 N 
ATOM     17  H   LIG    1       -5.375   4.316   0.576  0.00  0.00    +0.400 HD
ATOM     18  O   LIG    1       -5.083   3.833   3.610  0.00  0.00    -0.520 OA
BRANCH  16  19
ATOM     19  C   LIG    1       -3.989   2.897   1.331  0.00  0.00    +0.270 C 
BRANCH  19  20
ATOM     20  C   LIG    1       -3.623   2.629  -0.130  0.00  0.00    +0.070 C 
BRANCH  20  21
ATOM     21  C   LIG    1       -2.551   1.573  -0.195  0.00  0.00    -0.090 A 
ATOM     22  C   LIG    1       -1.221   1.942  -0.274  0.00  0.00    +0.010 A 
ATOM     23  C   LIG    1       -0.237   0.972  -0.333  0.00  0.00    +0.000 A 
ATOM     24  C   LIG    1       -0.583  -0.366  -0.313  0.00  0.00    +0.000 A 
ATOM     25  C   LIG    1       -1.913  -0.735  -0.232  0.00  0.00    +0.000 A 
ATOM     26  C   LIG    1       -2.897   0.234  -0.178  0.00  0.00    -0.080 A 
ATOM     27  C   LIG    1       -4.347  -0.168  -0.096  0.00  0.00    +0.090 C 
ENDBRANCH  20  21
ENDBRANCH  19  20
ENDBRANCH  16  19
ENDBRANCH   1  15
TORSDOF 8
