REMARK  Name = ZINCpe000000X9gp.0
REMARK                            x       y       z     vdW  Elec       q    Type
REMARK                         _______ _______ _______ _____ _____    ______ ____
ROOT
ATOM      1  C   LIG    1        7.317   1.080  -0.143  0.00  0.00    +0.240 C 
ENDROOT
BRANCH   1   4
ATOM      2  N   LIG    1        9.789   1.107  -0.233  0.00  0.00    -0.720 N 
ATOM      3  H   LIG    1        9.744   2.072  -0.312  0.00  0.00    +0.410 HD
ATOM      4  C   LIG    1        8.654   0.386  -0.133  0.00  0.00    +0.520 C 
ATOM      5  O   LIG    1        8.710  -0.822  -0.034  0.00  0.00    -0.500 OA
BRANCH   2   7
ATOM      6  C   LIG    1       11.255  -0.305   1.107  0.00  0.00    +0.070 C 
ATOM      7  C   LIG    1       11.089   0.432  -0.223  0.00  0.00    +0.190 C 
ATOM      8  C   LIG    1       12.190   1.478  -0.350  0.00  0.00    +0.090 C 
ATOM      9  C   LIG    1       13.072   1.251  -1.594  0.00  0.00    -0.300 C 
ATOM     10  S   LIG    1       11.956   0.327  -2.724  0.00  0.00    +2.370 S 
ATOM     11  O   LIG    1       12.716  -0.569  -3.525  0.00  0.00    -0.930 OA
ATOM     12  O   LIG    1       11.035   1.223  -3.330  0.00  0.00    -0.920 OA
ATOM     13  C   LIG    1       11.126  -0.599  -1.370  0.00  0.00    -0.290 C 
ENDBRANCH   2   7
ENDBRANCH   1   4
BRANCH   1  14
ATOM     14  O   LIG    1        6.275   0.109  -0.025  0.00  0.00    -0.290 OA
BRANCH  14  15
ATOM     15  C   LIG    1        4.997   0.572  -0.018  0.00  0.00    +0.100 A 
ATOM     16  C   LIG    1        3.938  -0.317   0.094  0.00  0.00    +0.020 A 
ATOM     17  C   LIG    1        2.639   0.153   0.101  0.00  0.00    +0.010 A 
ATOM     18  C   LIG    1        2.394   1.516  -0.004  0.00  0.00    +0.130 A 
ATOM     19  C   LIG    1        3.454   2.405  -0.121  0.00  0.00    +0.050 A 
ATOM     20  C   LIG    1        4.753   1.934  -0.122  0.00  0.00    -0.050 A 
BRANCH  18  21
ATOM     21  N   LIG    1        1.077   1.994   0.003  0.00  0.00    -0.560 N 
ATOM     22  C   LIG    1       -0.115   1.137  -0.006  0.00  0.00    +0.260 C 
ATOM     23  C   LIG    1       -1.281   2.057  -0.430  0.00  0.00    +0.060 C 
ATOM     24  C   LIG    1       -0.763   3.446   0.017  0.00  0.00    +0.070 C 
ATOM     25  C   LIG    1        0.742   3.295   0.018  0.00  0.00    +0.510 C 
ATOM     26  O   LIG    1        1.532   4.215   0.036  0.00  0.00    -0.510 OA
ENDBRANCH  18  21
ENDBRANCH  14  15
ENDBRANCH   1  14
TORSDOF 5
