REMARK  Name = ZINCrH00000tj15v.0
REMARK                            x       y       z     vdW  Elec       q    Type
REMARK                         _______ _______ _______ _____ _____    ______ ____
ROOT
ATOM      1  C   LIG    1        0.563   5.123   1.569  0.00  0.00    -0.150 A 
ATOM      2  C   LIG    1        0.767   4.928   2.918  0.00  0.00    +0.040 A 
ATOM      3  S   LIG    1        0.298   3.296   3.354  0.00  0.00    +0.140 S 
ATOM      4  C   LIG    1       -0.170   2.913   1.702  0.00  0.00    -0.180 A 
ATOM      5  C   LIG    1       -0.727   1.570   1.276  0.00  0.00    +0.110 C 
ATOM      6  C   LIG    1       -0.013   1.077   0.019  0.00  0.00    +0.020 C 
ATOM      7  C   LIG    1       -0.762   1.580  -1.212  0.00  0.00    +0.020 C 
ATOM      8  C   LIG    1       -1.370   2.950  -0.922  0.00  0.00    +0.020 C 
ATOM      9  C   LIG    1       -0.259   3.946  -0.605  0.00  0.00    +0.090 C 
ATOM     10  C   LIG    1        0.031   3.954   0.888  0.00  0.00    -0.050 A 
ENDROOT
BRANCH   2  11
ATOM     11  N   LIG    1        1.254   5.851   3.772  0.00  0.00    -0.460 NA
ATOM     12  C   LIG    1        2.538   5.871   4.058  0.00  0.00    +0.440 C 
ATOM     13  N   LIG    1        3.421   5.038   3.425  0.00  0.00    -1.030 N 
ATOM     14  H   LIG    1        3.219   4.382   2.740  0.00  0.00    +0.450 HD
ATOM     15  S   LIG    1        4.919   5.388   4.078  0.00  0.00    +2.660 S 
ATOM     16  C   LIG    1        4.467   6.657   5.227  0.00  0.00    -0.620 A 
ATOM     17  C   LIG    1        5.166   7.421   6.120  0.00  0.00    +0.160 A 
ATOM     18  C   LIG    1        4.499   8.357   6.898  0.00  0.00    +0.050 A 
ATOM     19  C   LIG    1        3.131   8.507   6.761  0.00  0.00    +0.070 A 
ATOM     20  C   LIG    1        2.422   7.741   5.865  0.00  0.00    +0.110 A 
ATOM     21  O   LIG    1        5.700   5.990   3.056  0.00  0.00    -0.920 OA
ATOM     22  O   LIG    1        5.331   4.256   4.832  0.00  0.00    -0.920 OA
ATOM     23  C   LIG    1        3.082   6.792   5.063  0.00  0.00    -0.040 A 
ENDBRANCH   2  11
BRANCH   1  24
ATOM     24  C   LIG    1        0.855   6.383   0.889  0.00  0.00    +0.540 C 
ATOM     25  O   LIG    1       -0.004   7.241   0.802  0.00  0.00    -0.480 OA
BRANCH  24  26
ATOM     26  O   LIG    1        2.077   6.596   0.357  0.00  0.00    -0.350 OA
BRANCH  26  28
ATOM     27  C   LIG    1        3.724   7.908  -0.828  0.00  0.00    +0.070 C 
ATOM     28  C   LIG    1        2.292   7.850  -0.293  0.00  0.00    +0.200 C 
ENDBRANCH  26  28
ENDBRANCH  24  26
ENDBRANCH   1  24
TORSDOF 4
