REMARK  Name = ZINCpe00000VVGt6.0
REMARK                            x       y       z     vdW  Elec       q    Type
REMARK                         _______ _______ _______ _____ _____    ______ ____
ROOT
ATOM      1  O   LIG    1       -2.244   0.994   0.019  0.00  0.00    -0.490 OA
ATOM      2  C   LIG    1       -1.197   1.612   0.017  0.00  0.00    +0.570 A 
ATOM      3  N   LIG    1       -0.011   0.966   0.007  0.00  0.00    -0.660 N 
ATOM      4  H   LIG    1        0.002  -0.004   0.002  0.00  0.00    +0.430 HD
ATOM      5  C   LIG    1        1.150   1.640  -0.000  0.00  0.00    +0.700 A 
ATOM      6  N   LIG    1        1.212   2.982   0.006  0.00  0.00    -0.540 N 
ATOM      7  C   LIG    1        0.053   3.744   0.022  0.00  0.00    +0.200 A 
ATOM      8  C   LIG    1        0.095   5.130   0.030  0.00  0.00    -0.030 A 
ATOM      9  C   LIG    1       -1.083   5.851   0.045  0.00  0.00    +0.100 A 
ATOM     10  C   LIG    1       -2.308   5.203   0.053  0.00  0.00    -0.010 A 
ATOM     11  C   LIG    1       -2.369   3.825   0.045  0.00  0.00    +0.140 A 
ATOM     12  O   LIG    1        2.189   1.009  -0.013  0.00  0.00    -0.540 OA
ATOM     13  C   LIG    1       -1.189   3.086   0.029  0.00  0.00    -0.200 A 
ENDROOT
BRANCH   6  14
ATOM     14  C   LIG    1        2.518   3.648  -0.002  0.00  0.00    +0.350 C 
BRANCH  14  15
ATOM     15  C   LIG    1        2.959   3.887  -1.447  0.00  0.00    +0.040 C 
BRANCH  15  16
ATOM     16  C   LIG    1        4.301   4.571  -1.456  0.00  0.00    +0.530 C 
ATOM     17  N   LIG    1        4.891   4.883  -2.627  0.00  0.00    -0.610 N 
ATOM     18  C   LIG    1        4.275   4.576  -3.938  0.00  0.00    +0.250 C 
ATOM     19  C   LIG    1        5.275   3.894  -4.864  0.00  0.00    +0.220 C 
ATOM     20  O   LIG    1        6.559   4.545  -4.841  0.00  0.00    -0.360 OA
ATOM     21  C   LIG    1        7.086   4.587  -3.536  0.00  0.00    +0.130 C 
ATOM     22  C   LIG    1        8.489   5.130  -3.297  0.00  0.00    +0.050 C 
ATOM     23  C   LIG    1        8.448   5.780  -1.890  0.00  0.00    +0.020 C 
ATOM     24  C   LIG    1        6.979   5.658  -1.396  0.00  0.00    +0.060 C 
ATOM     25  C   LIG    1        6.189   5.545  -2.702  0.00  0.00    +0.190 C 
ATOM     26  O   LIG    1        4.851   4.841  -0.409  0.00  0.00    -0.530 OA
ENDBRANCH  15  16
ENDBRANCH  14  15
ENDBRANCH   6  14
TORSDOF 3
