REMARK  Name = ZINCrH000004tB5t.0
REMARK                            x       y       z     vdW  Elec       q    Type
REMARK                         _______ _______ _______ _____ _____    ______ ____
ROOT
ATOM      1  O   LIG    1       -3.469  -1.816  -0.288  0.00  0.00    -0.520 OA
ATOM      2  C   LIG    1       -3.043  -1.052  -1.129  0.00  0.00    +0.520 C 
ATOM      3  N   LIG    1       -2.696   0.204  -0.784  0.00  0.00    -0.600 N 
ATOM      4  C   LIG    1       -2.056   1.064  -1.798  0.00  0.00    +0.270 C 
ATOM      5  C   LIG    1       -0.884   1.875  -1.215  0.00  0.00    +0.010 C 
ATOM      6  C   LIG    1       -0.081   1.017  -0.269  0.00  0.00    +0.010 C 
ATOM      7  C   LIG    1       -0.617   1.188   1.149  0.00  0.00    +0.010 C 
ATOM      8  C   LIG    1       -1.759   0.319   1.474  0.00  0.00    +0.040 C 
ATOM      9  C   LIG    1       -2.966   0.653   0.563  0.00  0.00    +0.360 C 
ENDROOT
BRANCH   2  10
ATOM     10  C   LIG    1       -2.903  -1.507  -2.558  0.00  0.00    -0.010 C 
ATOM     11  C   LIG    1       -3.775  -0.631  -3.463  0.00  0.00    +0.010 C 
ATOM     12  C   LIG    1       -3.688  -1.150  -4.901  0.00  0.00    +0.210 C 
ATOM     13  O   LIG    1       -4.100  -2.518  -4.938  0.00  0.00    -0.380 OA
ATOM     14  C   LIG    1       -3.291  -3.392  -4.148  0.00  0.00    +0.210 C 
ATOM     15  C   LIG    1       -3.363  -2.963  -2.680  0.00  0.00    +0.030 C 
ENDBRANCH   2  10
BRANCH   9  16
ATOM     16  C   LIG    1       -4.197  -0.042   1.086  0.00  0.00    +0.190 A 
ATOM     17  N   LIG    1       -5.264  -0.333   0.402  0.00  0.00    -0.370 NA
ATOM     18  O   LIG    1       -6.079  -0.894   1.103  0.00  0.00    +0.090 OA
ATOM     19  C   LIG    1       -5.597  -1.012   2.350  0.00  0.00    +0.220 A 
ATOM     20  N   LIG    1       -4.393  -0.468   2.344  0.00  0.00    -0.460 NA
BRANCH  19  21
ATOM     21  C   LIG    1       -6.280  -1.629   3.506  0.00  0.00    -0.040 A 
ATOM     22  C   LIG    1       -5.645  -1.684   4.748  0.00  0.00    +0.120 A 
ATOM     23  C   LIG    1       -6.290  -2.256   5.824  0.00  0.00    -0.010 A 
ATOM     24  C   LIG    1       -7.561  -2.788   5.672  0.00  0.00    +0.130 A 
ATOM     25  C   LIG    1       -8.193  -2.742   4.439  0.00  0.00    +0.000 A 
ATOM     26  F   LIG    1       -8.185  -3.353   6.728  0.00  0.00    -0.130 F 
ATOM     27  C   LIG    1       -7.561  -2.166   3.358  0.00  0.00    +0.100 A 
ENDBRANCH  19  21
ENDBRANCH   9  16
TORSDOF 3
