REMARK  Name = ZINCrD000000Aq8K.0
REMARK                            x       y       z     vdW  Elec       q    Type
REMARK                         _______ _______ _______ _____ _____    ______ ____
ROOT
ATOM      1  O   LIG    1        1.897  -2.944  -0.032  0.00  0.00    -0.510 OA
ATOM      2  C   LIG    1        3.064  -2.615  -0.041  0.00  0.00    +0.520 C 
ATOM      3  N   LIG    1        4.029  -3.556  -0.056  0.00  0.00    -0.610 N 
ATOM      4  C   LIG    1        5.448  -3.174  -0.073  0.00  0.00    +0.280 C 
ATOM      5  C   LIG    1        6.136  -3.870  -1.246  0.00  0.00    +0.040 C 
ATOM      6  C   LIG    1        5.893  -5.378  -1.155  0.00  0.00    +0.100 C 
ATOM      7  C   LIG    1        4.391  -5.660  -1.238  0.00  0.00    +0.040 C 
ATOM      8  C   LIG    1        3.682  -4.984  -0.060  0.00  0.00    +0.290 C 
ENDROOT
BRANCH   6   9
ATOM      9  C   LIG    1        6.597  -6.070  -2.294  0.00  0.00    +0.140 A 
ATOM     10  N   LIG    1        6.386  -5.870  -3.569  0.00  0.00    -0.240 NA
ATOM     11  N   LIG    1        7.157  -6.623  -4.272  0.00  0.00    -0.290 NA
ATOM     12  C   LIG    1        7.911  -7.355  -3.469  0.00  0.00    +0.190 A 
ATOM     13  C   LIG    1        8.907  -8.325  -3.693  0.00  0.00    +0.080 A 
ATOM     14  C   LIG    1        9.525  -8.901  -2.626  0.00  0.00    +0.060 A 
ATOM     15  C   LIG    1        9.154  -8.531  -1.322  0.00  0.00    +0.030 A 
ATOM     16  C   LIG    1        8.194  -7.603  -1.123  0.00  0.00    +0.230 A 
ATOM     17  N   LIG    1        7.572  -7.012  -2.183  0.00  0.00    -0.390 N 
ENDBRANCH   6   9
BRANCH   2  18
ATOM     18  C   LIG    1        3.436  -1.155  -0.037  0.00  0.00    +0.200 C 
BRANCH  18  19
ATOM     19  O   LIG    1        2.248  -0.361  -0.021  0.00  0.00    -0.360 OA
BRANCH  19  20
ATOM     20  C   LIG    1        2.490   1.047  -0.016  0.00  0.00    +0.240 C 
BRANCH  20  21
ATOM     21  C   LIG    1        1.175   1.783   0.000  0.00  0.00    -0.080 A 
ATOM     22  C   LIG    1       -0.013   1.076   0.008  0.00  0.00    +0.070 A 
ATOM     23  C   LIG    1       -1.219   1.751   0.017  0.00  0.00    +0.020 A 
ATOM     24  C   LIG    1       -1.239   3.133   0.030  0.00  0.00    +0.020 A 
ATOM     25  C   LIG    1       -0.052   3.841   0.022  0.00  0.00    +0.030 A 
ATOM     26  C   LIG    1        1.156   3.166   0.008  0.00  0.00    -0.030 A 
ATOM     27 CL   LIG    1        2.647   4.055  -0.001  0.00  0.00    -0.070 Cl
ENDBRANCH  20  21
ENDBRANCH  19  20
ENDBRANCH  18  19
ENDBRANCH   2  18
TORSDOF 5
