REMARK  Name = ZINCqH0000034tzS.1
REMARK                            x       y       z     vdW  Elec       q    Type
REMARK                         _______ _______ _______ _____ _____    ______ ____
ROOT
ATOM      1  N   LIG    1        2.274   0.972  -0.184  0.00  0.00    -1.050 N 
ATOM      2  H   LIG    1        3.071   1.159   0.336  0.00  0.00    +0.420 HD
ENDROOT
BRANCH   1   8
ATOM      3  C   LIG    1        1.525   3.274  -0.236  0.00  0.00    +0.150 A 
ATOM      4  C   LIG    1        0.492   4.197  -0.286  0.00  0.00    +0.050 A 
ATOM      5  C   LIG    1       -0.821   3.764  -0.334  0.00  0.00    +0.020 A 
ATOM      6  C   LIG    1       -1.107   2.412  -0.339  0.00  0.00    +0.030 A 
ATOM      7  C   LIG    1       -0.083   1.484  -0.283  0.00  0.00    +0.000 A 
ATOM      8  C   LIG    1        1.236   1.909  -0.234  0.00  0.00    +0.120 A 
BRANCH   3  12
ATOM      9  C   LIG    1        4.799   6.447   1.314  0.00  0.00    +0.310 C 
ATOM     10  N   LIG    1        4.459   5.215   0.600  0.00  0.00    -0.630 N 
ATOM     11  C   LIG    1        3.169   4.845   0.471  0.00  0.00    +0.700 C 
ATOM     12  N   LIG    1        2.856   3.710  -0.186  0.00  0.00    -0.680 N 
ATOM     13  H   LIG    1        3.552   3.196  -0.625  0.00  0.00    +0.400 HD
ATOM     14  O   LIG    1        2.289   5.534   0.947  0.00  0.00    -0.570 OA
ATOM     15  C   LIG    1        5.520   4.384   0.026  0.00  0.00    +0.280 C 
ENDBRANCH   3  12
ENDBRANCH   1   8
BRANCH   1  16
ATOM     16  S   LIG    1        2.141  -0.456  -1.011  0.00  0.00    +2.690 S 
ATOM     17  O   LIG    1        0.914  -1.045  -0.601  0.00  0.00    -0.940 OA
ATOM     18  O   LIG    1        3.396  -1.110  -0.887  0.00  0.00    -0.950 OA
BRANCH  16  19
ATOM     19  C   LIG    1        1.955  -0.056  -2.717  0.00  0.00    -0.670 A 
ATOM     20  C   LIG    1        0.708   0.122  -3.231  0.00  0.00    +0.180 A 
ATOM     21  C   LIG    1        0.556   0.448  -4.590  0.00  0.00    -0.080 A 
ATOM     22  C   LIG    1       -0.715   0.644  -5.156  0.00  0.00    +0.050 A 
ATOM     23  C   LIG    1       -0.824   0.952  -6.477  0.00  0.00    +0.010 A 
ATOM     24  C   LIG    1        0.308   1.076  -7.280  0.00  0.00    +0.040 A 
ATOM     25  C   LIG    1        1.555   0.893  -6.767  0.00  0.00    +0.010 A 
ATOM     26  C   LIG    1        1.707   0.574  -5.407  0.00  0.00    -0.010 A 
ATOM     27  C   LIG    1        2.978   0.377  -4.841  0.00  0.00    +0.020 A 
ATOM     28  C   LIG    1        3.087   0.069  -3.520  0.00  0.00    +0.090 A 
ENDBRANCH  16  19
ENDBRANCH   1  16
TORSDOF 4
