REMARK  Name = ZINCpe000000UmVs.0
REMARK                            x       y       z     vdW  Elec       q    Type
REMARK                         _______ _______ _______ _____ _____    ______ ____
ROOT
ATOM      1  C   LIG    1        1.280   1.980   0.001  0.00  0.00    +0.220 C 
ATOM      2  C   LIG    1        1.373   2.837  -1.280  0.00  0.00    +0.060 C 
ATOM      3  C   LIG    1        2.871   2.726  -1.665  0.00  0.00    +0.040 C 
ATOM      4  C   LIG    1        3.192   1.268  -1.250  0.00  0.00    +0.250 C 
ATOM      5  N   LIG    1        2.417   1.048  -0.015  0.00  0.00    -0.610 N 
ATOM      6  C   LIG    1        2.704   0.142   0.941  0.00  0.00    +0.540 C 
ATOM      7  O   LIG    1        1.993   0.047   1.919  0.00  0.00    -0.510 OA
ENDROOT
BRANCH   1  10
ATOM      8  C   LIG    1       -1.210   3.331   0.026  0.00  0.00    +0.290 C 
ATOM      9  N   LIG    1       -1.191   1.867   0.018  0.00  0.00    -0.600 N 
ATOM     10  C   LIG    1       -0.014   1.209   0.009  0.00  0.00    +0.510 C 
ATOM     11  O   LIG    1        0.002  -0.004   0.002  0.00  0.00    -0.510 OA
BRANCH   9  12
ATOM     12  C   LIG    1       -2.449   1.117   0.020  0.00  0.00    +0.260 C 
ATOM     13  C   LIG    1       -3.309   1.527  -1.189  0.00  0.00    +0.070 C 
ATOM     14  C   LIG    1       -4.740   0.993  -0.982  0.00  0.00    -0.310 C 
ATOM     15  S   LIG    1       -4.958   0.908   0.832  0.00  0.00    +2.400 S 
ATOM     16  O   LIG    1       -5.903   1.889   1.239  0.00  0.00    -0.930 OA
ATOM     17  O   LIG    1       -5.129  -0.447   1.223  0.00  0.00    -0.930 OA
ATOM     18  C   LIG    1       -3.272   1.464   1.287  0.00  0.00    -0.330 C 
ENDBRANCH   9  12
ENDBRANCH   1  10
BRANCH   6  19
ATOM     19  C   LIG    1        3.907  -0.753   0.794  0.00  0.00    +0.110 C 
BRANCH  19  20
ATOM     20  C   LIG    1        4.002  -1.667   1.988  0.00  0.00    -0.070 A 
ATOM     21  C   LIG    1        4.723  -1.277   3.101  0.00  0.00    +0.010 A 
ATOM     22  C   LIG    1        4.807  -2.114   4.199  0.00  0.00    +0.000 A 
ATOM     23  C   LIG    1        4.176  -3.344   4.180  0.00  0.00    +0.000 A 
ATOM     24  C   LIG    1        3.459  -3.736   3.065  0.00  0.00    +0.000 A 
ATOM     25  C   LIG    1        3.373  -2.898   1.969  0.00  0.00    +0.020 A 
ENDBRANCH  19  20
ENDBRANCH   6  19
TORSDOF 4
