REMARK  Name = ZINCvU000000084d.0
REMARK                            x       y       z     vdW  Elec       q    Type
REMARK                         _______ _______ _______ _____ _____    ______ ____
ROOT
ATOM      1  C   LIG    1        4.205   5.954  -4.367  0.00  0.00    -0.210 A 
ATOM      2  C   LIG    1        3.574   5.521  -3.225  0.00  0.00    +0.070 A 
ATOM      3  S   LIG    1        4.601   4.494  -2.331  0.00  0.00    +0.350 S 
ATOM      4  C   LIG    1        5.893   4.660  -3.509  0.00  0.00    -0.230 A 
ATOM      5  C   LIG    1        5.507   5.467  -4.508  0.00  0.00    +0.100 A 
ENDROOT
BRANCH   4   6
ATOM      6  C   LIG    1        7.215   4.006  -3.413  0.00  0.00    -0.010 A 
ATOM      7  C   LIG    1        8.169   4.204  -4.412  0.00  0.00    +0.020 A 
ATOM      8  C   LIG    1        9.403   3.594  -4.314  0.00  0.00    +0.020 A 
ATOM      9  C   LIG    1        9.691   2.780  -3.233  0.00  0.00    +0.000 A 
ATOM     10  C   LIG    1        8.748   2.576  -2.241  0.00  0.00    +0.020 A 
ATOM     11  C   LIG    1        7.512   3.183  -2.325  0.00  0.00    +0.000 A 
ENDBRANCH   4   6
BRANCH   2  12
ATOM     12  N   LIG    1        2.285   5.866  -2.856  0.00  0.00    -0.620 N 
ATOM     13  H   LIG    1        1.760   6.457  -3.418  0.00  0.00    +0.430 HD
ATOM     14  C   LIG    1        1.758   5.380  -1.714  0.00  0.00    +0.510 C 
ATOM     15  O   LIG    1        2.413   4.640  -1.011  0.00  0.00    -0.480 OA
BRANCH  14  16
ATOM     16  C   LIG    1        0.355   5.755  -1.312  0.00  0.00    +0.160 C 
ATOM     17  C   LIG    1       -0.634   4.761  -1.925  0.00  0.00    +0.090 C 
BRANCH  16  18
ATOM     18  N   LIG    1        0.239   5.721   0.152  0.00  0.00    -0.470 N 
ATOM     19  C   LIG    1        1.243   6.584   0.778  0.00  0.00    +0.230 C 
ATOM     20  C   LIG    1        0.848   8.047   0.541  0.00  0.00    -0.020 C 
ATOM     21  C   LIG    1       -0.422   8.329   1.346  0.00  0.00    +0.080 C 
ATOM     22  C   LIG    1       -1.424   7.225   1.117  0.00  0.00    -0.110 A 
ATOM     23  C   LIG    1       -2.741   7.451   1.482  0.00  0.00    +0.010 A 
ATOM     24  C   LIG    1       -3.696   6.469   1.306  0.00  0.00    -0.010 A 
ATOM     25  C   LIG    1       -3.339   5.253   0.751  0.00  0.00    +0.020 A 
ATOM     26  C   LIG    1       -2.032   5.024   0.378  0.00  0.00    +0.010 A 
ATOM     27  C   LIG    1       -1.062   6.011   0.557  0.00  0.00    +0.100 A 
ENDBRANCH  16  18
ENDBRANCH  14  16
ENDBRANCH   2  12
BRANCH   1  28
ATOM     28  C   LIG    1        3.573   6.847  -5.342  0.00  0.00    +0.540 C 
ATOM     29  O   LIG    1        2.436   7.240  -5.160  0.00  0.00    -0.530 OA
BRANCH  28  30
ATOM     30  O   LIG    1        4.252   7.232  -6.442  0.00  0.00    -0.350 OA
BRANCH  30  32
ATOM     31  C   LIG    1        4.484   8.442  -8.543  0.00  0.00    +0.070 C 
ATOM     32  C   LIG    1        3.563   8.117  -7.365  0.00  0.00    +0.200 C 
ENDBRANCH  30  32
ENDBRANCH  28  30
ENDBRANCH   1  28
TORSDOF 7
