REMARK  Name = ZINCtV000002Ppbj.0
REMARK                            x       y       z     vdW  Elec       q    Type
REMARK                         _______ _______ _______ _____ _____    ______ ____
ROOT
ATOM      1  O   LIG    1       -1.113   5.960  -0.045  0.00  0.00    -0.520 OA
ATOM      2  C   LIG    1       -0.056   5.367   0.049  0.00  0.00    +0.580 C 
ATOM      3  N   LIG    1        1.099   6.058   0.124  0.00  0.00    -0.600 N 
ATOM      4  C   LIG    1        2.439   5.473   0.310  0.00  0.00    +0.260 C 
ATOM      5  C   LIG    1        3.415   6.524  -0.278  0.00  0.00    +0.040 C 
ATOM      6  C   LIG    1        2.733   7.852   0.144  0.00  0.00    +0.060 C 
ATOM      7  C   LIG    1        1.231   7.519   0.029  0.00  0.00    +0.310 C 
ENDROOT
BRANCH   7   8
ATOM      8  C   LIG    1        0.475   8.177   1.155  0.00  0.00    +0.090 A 
ATOM      9  N   LIG    1        0.516   7.788   2.373  0.00  0.00    -0.450 NA
ATOM     10  C   LIG    1       -0.210   8.474   3.277  0.00  0.00    +0.080 A 
ATOM     11  C   LIG    1       -0.345   8.269   4.664  0.00  0.00    +0.070 A 
ATOM     12  C   LIG    1       -1.145   9.083   5.407  0.00  0.00    +0.030 A 
ATOM     13  C   LIG    1       -1.840  10.128   4.815  0.00  0.00    +0.040 A 
ATOM     14  C   LIG    1       -1.727  10.352   3.461  0.00  0.00    +0.060 A 
ATOM     15  C   LIG    1       -0.914   9.529   2.686  0.00  0.00    -0.180 A 
ATOM     16  S   LIG    1       -0.548   9.530   0.963  0.00  0.00    +0.120 S 
ENDBRANCH   7   8
BRANCH   2  17
ATOM     17  C   LIG    1       -0.037   3.889   0.082  0.00  0.00    -0.110 A 
ATOM     18  C   LIG    1       -1.070   3.162  -0.511  0.00  0.00    +0.080 A 
ATOM     19  C   LIG    1       -1.049   1.783  -0.480  0.00  0.00    +0.030 A 
ATOM     20  C   LIG    1       -0.007   1.117   0.138  0.00  0.00    +0.040 A 
ATOM     21  C   LIG    1        1.023   1.832   0.736  0.00  0.00    +0.080 A 
ATOM     22  C   LIG    1        1.014   3.217   0.705  0.00  0.00    +0.040 A 
BRANCH  21  23
ATOM     23  O   LIG    1        2.042   1.173   1.348  0.00  0.00    -0.260 OA
BRANCH  23  24
ATOM     24  C   LIG    1        2.061   1.147   2.706  0.00  0.00    +0.120 A 
ATOM     25  C   LIG    1        1.008   1.693   3.426  0.00  0.00    -0.060 A 
ATOM     26  C   LIG    1        1.028   1.661   4.807  0.00  0.00    +0.050 A 
ATOM     27  C   LIG    1        2.100   1.095   5.472  0.00  0.00    -0.020 A 
ATOM     28  C   LIG    1        3.152   0.553   4.756  0.00  0.00    +0.050 A 
ATOM     29  C   LIG    1        3.135   0.578   3.376  0.00  0.00    -0.010 A 
ENDBRANCH  23  24
ENDBRANCH  21  23
ENDBRANCH   2  17
TORSDOF 4
