REMARK  Name = ZINCrH000004mA5Z.0
REMARK                            x       y       z     vdW  Elec       q    Type
REMARK                         _______ _______ _______ _____ _____    ______ ____
ROOT
ATOM      1  C   LIG    1        5.152  -2.182  -3.677  0.00  0.00    +0.510 C 
ATOM      2  N   LIG    1        6.035  -2.006  -2.674  0.00  0.00    -0.680 N 
ATOM      3  H   LIG    1        5.857  -1.352  -1.980  0.00  0.00    +0.420 HD
ATOM      4  O   LIG    1        5.412  -2.938  -4.589  0.00  0.00    -0.510 OA
ENDROOT
BRANCH   2   5
ATOM      5  C   LIG    1        7.209  -2.767  -2.634  0.00  0.00    +0.200 A 
ATOM      6  C   LIG    1        7.738  -3.167  -1.414  0.00  0.00    -0.030 A 
ATOM      7  C   LIG    1        8.893  -3.922  -1.378  0.00  0.00    +0.150 A 
ATOM      8  C   LIG    1        9.530  -4.271  -2.555  0.00  0.00    -0.690 A 
ATOM      9  C   LIG    1        9.008  -3.870  -3.772  0.00  0.00    +0.140 A 
ATOM     10  C   LIG    1        7.850  -3.119  -3.815  0.00  0.00    +0.010 A 
BRANCH   8  11
ATOM     11  S   LIG    1       11.007  -5.230  -2.505  0.00  0.00    +2.690 S 
ATOM     12  O   LIG    1       11.108  -5.878  -3.766  0.00  0.00    -0.960 OA
ATOM     13  O   LIG    1       10.988  -5.932  -1.270  0.00  0.00    -0.950 OA
BRANCH  11  14
ATOM     14  N   LIG    1       12.277  -4.170  -2.421  0.00  0.00    -1.110 NA
ATOM     15  H   LIG    1       12.912  -4.116  -3.152  0.00  0.00    +0.420 HD
BRANCH  14  16
ATOM     16  C   LIG    1       12.440  -3.314  -1.243  0.00  0.00    +0.230 C 
ATOM     17  C   LIG    1       13.003  -1.958  -1.673  0.00  0.00    +0.030 C 
ATOM     18  C   LIG    1       13.404  -3.979  -0.260  0.00  0.00    +0.020 C 
ENDBRANCH  14  16
ENDBRANCH  11  14
ENDBRANCH   8  11
ENDBRANCH   2   5
BRANCH   1  19
ATOM     19  C   LIG    1        3.841  -1.439  -3.665  0.00  0.00    +0.070 C 
BRANCH  19  20
ATOM     20  C   LIG    1        3.030  -1.815  -4.907  0.00  0.00    +0.110 C 
BRANCH  20  24
ATOM     21  C   LIG    1       -0.689   0.291  -4.873  0.00  0.00    +0.150 A 
ATOM     22  C   LIG    1       -0.591  -0.956  -4.274  0.00  0.00    -0.060 A 
ATOM     23  C   LIG    1        0.613  -1.635  -4.287  0.00  0.00    +0.070 A 
ATOM     24  C   LIG    1        1.719  -1.072  -4.895  0.00  0.00    -0.120 A 
ATOM     25  C   LIG    1        1.625   0.171  -5.494  0.00  0.00    +0.090 A 
ATOM     26  C   LIG    1        0.423   0.854  -5.485  0.00  0.00    -0.120 A 
ATOM     27 BR   LIG    1        0.295   2.554  -6.303  0.00  0.00    -0.030 Br
BRANCH  21  29
ATOM     28  C   LIG    1       -2.972   0.323  -4.211  0.00  0.00    +0.250 C 
ATOM     29  O   LIG    1       -1.870   0.963  -4.858  0.00  0.00    -0.300 OA
ENDBRANCH  21  29
ENDBRANCH  20  24
ENDBRANCH  19  20
ENDBRANCH   1  19
TORSDOF 8
