REMARK  Name = ZINCqH0000037B7O.0
REMARK                            x       y       z     vdW  Elec       q    Type
REMARK                         _______ _______ _______ _____ _____    ______ ____
ROOT
ATOM      1  C   LIG    1        0.944   1.594  -0.258  0.00  0.00    +0.600 C 
ATOM      2  N   LIG    1       -0.018   0.703   0.057  0.00  0.00    -0.670 N 
ATOM      3  H   LIG    1        0.223  -0.206   0.296  0.00  0.00    +0.420 HD
ATOM      4  O   LIG    1        0.639   2.705  -0.649  0.00  0.00    -0.520 OA
ENDROOT
BRANCH   2   5
ATOM      5  C   LIG    1       -1.364   1.088   0.033  0.00  0.00    +0.180 A 
ATOM      6  C   LIG    1       -2.340   0.175  -0.342  0.00  0.00    +0.020 A 
ATOM      7  C   LIG    1       -3.669   0.553  -0.366  0.00  0.00    +0.090 A 
ATOM      8  C   LIG    1       -4.031   1.844  -0.017  0.00  0.00    +0.010 A 
ATOM      9  O   LIG    1       -5.250   2.457   0.040  0.00  0.00    -0.290 OA
ATOM     10  C   LIG    1       -4.970   3.869   0.059  0.00  0.00    +0.570 C 
ATOM     11  O   LIG    1       -3.660   3.950   0.652  0.00  0.00    -0.280 OA
ATOM     12  F   LIG    1       -5.910   4.546   0.843  0.00  0.00    -0.120 F 
ATOM     13  F   LIG    1       -4.954   4.385  -1.241  0.00  0.00    -0.150 F 
ATOM     14  C   LIG    1       -3.053   2.763   0.359  0.00  0.00    +0.050 A 
ATOM     15  C   LIG    1       -1.723   2.381   0.389  0.00  0.00    +0.070 A 
ENDBRANCH   2   5
BRANCH   1  18
ATOM     16  C   LIG    1        3.404   3.446  -0.912  0.00  0.00    +0.170 C 
ATOM     17  C   LIG    1        3.451   2.026  -0.412  0.00  0.00    +0.180 A 
ATOM     18  C   LIG    1        2.364   1.222  -0.128  0.00  0.00    -0.300 A 
ATOM     19  C   LIG    1        2.869  -0.021   0.316  0.00  0.00    +0.290 A 
ATOM     20  N   LIG    1        4.172   0.037   0.287  0.00  0.00    -0.280 NA
ATOM     21  N   LIG    1        4.559   1.306  -0.160  0.00  0.00    -0.310 N 
BRANCH  21  22
ATOM     22  C   LIG    1        5.879   1.751  -0.318  0.00  0.00    +0.130 A 
ATOM     23  C   LIG    1        6.833   0.912  -0.878  0.00  0.00    +0.030 A 
ATOM     24  C   LIG    1        8.131   1.356  -1.038  0.00  0.00    +0.040 A 
ATOM     25  C   LIG    1        8.484   2.629  -0.631  0.00  0.00    +0.020 A 
ATOM     26  C   LIG    1        7.537   3.465  -0.067  0.00  0.00    +0.040 A 
ATOM     27  C   LIG    1        6.235   3.029   0.090  0.00  0.00    +0.010 A 
ENDBRANCH  21  22
ENDBRANCH   1  18
TORSDOF 3
