REMARK  Name = ZINCrD00000F5LFq.0
REMARK                            x       y       z     vdW  Elec       q    Type
REMARK                         _______ _______ _______ _____ _____    ______ ____
ROOT
ATOM      1  C   LIG    1       -1.488  -0.310  -2.479  0.00  0.00    -0.240 A 
ATOM      2  C   LIG    1       -0.371  -0.926  -3.057  0.00  0.00    +0.340 A 
ATOM      3  N   LIG    1        0.384  -1.963  -2.678  0.00  0.00    -0.540 NA
ATOM      4  C   LIG    1        1.401  -2.363  -3.420  0.00  0.00    +0.470 A 
ATOM      5  C   LIG    1        1.696  -1.700  -4.629  0.00  0.00    -0.090 A 
ATOM      6  C   LIG    1        0.931  -0.656  -5.017  0.00  0.00    +0.380 A 
ATOM      7  N   LIG    1       -0.115  -0.264  -4.228  0.00  0.00    -0.340 N 
ATOM      8  N   LIG    1       -1.063   0.756  -4.362  0.00  0.00    -0.320 NA
ATOM      9  C   LIG    1       -1.873   0.731  -3.332  0.00  0.00    +0.320 A 
ENDROOT
BRANCH   1  16
ATOM     10  C   LIG    1       -1.443  -0.553   0.001  0.00  0.00    -0.100 A 
ATOM     11  C   LIG    1       -2.050  -0.910   1.187  0.00  0.00    +0.040 A 
ATOM     12  C   LIG    1       -3.350  -1.388   1.187  0.00  0.00    -0.040 A 
ATOM     13  C   LIG    1       -4.043  -1.521  -0.004  0.00  0.00    +0.020 A 
ATOM     14  C   LIG    1       -3.444  -1.172  -1.197  0.00  0.00    +0.030 A 
ATOM     15 CL   LIG    1       -4.111  -1.828   2.684  0.00  0.00    -0.070 Cl
ATOM     16  C   LIG    1       -2.137  -0.685  -1.202  0.00  0.00    +0.030 A 
BRANCH  10  18
ATOM     17  C   LIG    1       -0.057   1.502   0.021  0.00  0.00    +0.050 C 
ATOM     18  C   LIG    1       -0.031  -0.027   0.004  0.00  0.00    +0.220 C 
BRANCH  18  19
ATOM     19  O   LIG    1        0.652  -0.505   1.165  0.00  0.00    -0.560 OA
ATOM     20  H   LIG    1        0.707  -1.469   1.220  0.00  0.00    +0.380 HD
ENDBRANCH  18  19
ENDBRANCH  10  18
ENDBRANCH   1  16
BRANCH   4  21
ATOM     21  N   LIG    1        2.176  -3.434  -3.010  0.00  0.00    -0.580 N 
ATOM     22  C   LIG    1        3.233  -3.969  -3.879  0.00  0.00    +0.280 C 
ATOM     23  C   LIG    1        3.015  -5.475  -4.050  0.00  0.00    +0.010 C 
ATOM     24  C   LIG    1        2.940  -6.136  -2.672  0.00  0.00    +0.030 C 
ATOM     25  C   LIG    1        1.755  -5.562  -1.893  0.00  0.00    -0.020 C 
ATOM     26  C   LIG    1        1.962  -4.053  -1.694  0.00  0.00    +0.290 C 
BRANCH  25  27
ATOM     27  C   LIG    1        1.662  -6.246  -0.527  0.00  0.00    +0.180 C 
BRANCH  27  28
ATOM     28  O   LIG    1        1.359  -7.631  -0.709  0.00  0.00    -0.570 OA
ATOM     29  H   LIG    1        1.285  -8.129   0.117  0.00  0.00    +0.380 HD
ENDBRANCH  27  28
ENDBRANCH  25  27
ENDBRANCH   4  21
TORSDOF 6
