REMARK  Name = ZINCvU0000000EyR.0
REMARK                            x       y       z     vdW  Elec       q    Type
REMARK                         _______ _______ _______ _____ _____    ______ ____
ROOT
ATOM      1  C   LIG    1       -9.118   9.914   1.400  0.00  0.00    +0.130 C 
ATOM      2  C   LIG    1       -7.680   9.494   1.238  0.00  0.00    -0.050 A 
ATOM      3  C   LIG    1       -6.692  10.428   1.216  0.00  0.00    +0.040 A 
ATOM      4  C   LIG    1       -5.354  10.024   1.065  0.00  0.00    +0.010 A 
ATOM      5  C   LIG    1       -5.046   8.717   0.943  0.00  0.00    +0.230 A 
ATOM      6  N   LIG    1       -6.029   7.765   0.964  0.00  0.00    -0.350 N 
ATOM      7  C   LIG    1       -5.993   6.401   0.862  0.00  0.00    +0.160 A 
ATOM      8  C   LIG    1       -7.298   5.961   0.943  0.00  0.00    +0.110 A 
ATOM      9  N   LIG    1       -8.091   7.035   1.098  0.00  0.00    -0.460 NA
ATOM     10  C   LIG    1       -7.347   8.130   1.110  0.00  0.00    +0.240 A 
ENDROOT
BRANCH   8  11
ATOM     11  C   LIG    1       -7.746   4.550   0.875  0.00  0.00    -0.010 A 
ATOM     12  C   LIG    1       -7.085   3.645   0.045  0.00  0.00    +0.020 A 
ATOM     13  C   LIG    1       -7.503   2.331  -0.010  0.00  0.00    +0.010 A 
ATOM     14  C   LIG    1       -8.585   1.914   0.746  0.00  0.00    +0.010 A 
ATOM     15  C   LIG    1       -9.248   2.809   1.566  0.00  0.00    +0.010 A 
ATOM     16  C   LIG    1       -8.835   4.124   1.634  0.00  0.00    +0.050 A 
ENDBRANCH   8  11
BRANCH   7  17
ATOM     17  N   LIG    1       -4.856   5.609   0.701  0.00  0.00    -0.630 N 
ATOM     18  H   LIG    1       -4.702   4.856   1.292  0.00  0.00    +0.420 HD
ATOM     19  C   LIG    1       -3.972   5.890  -0.277  0.00  0.00    +0.560 C 
ATOM     20  O   LIG    1       -4.110   6.893  -0.952  0.00  0.00    -0.500 OA
BRANCH  19  21
ATOM     21  C   LIG    1       -2.837   4.981  -0.529  0.00  0.00    -0.190 A 
ATOM     22  C   LIG    1       -2.640   3.865   0.277  0.00  0.00    +0.150 A 
ATOM     23  C   LIG    1       -1.545   3.032  -0.007  0.00  0.00    -0.130 A 
ATOM     24  C   LIG    1       -1.286   1.883   0.761  0.00  0.00    +0.100 A 
ATOM     25  C   LIG    1       -0.213   1.101   0.462  0.00  0.00    +0.000 A 
ATOM     26  C   LIG    1        0.628   1.420  -0.605  0.00  0.00    +0.140 A 
ATOM     27  C   LIG    1        0.402   2.524  -1.373  0.00  0.00    +0.010 A 
ATOM     28  F   LIG    1        1.683   0.622  -0.881  0.00  0.00    -0.130 F 
ATOM     29  C   LIG    1       -0.692   3.358  -1.092  0.00  0.00    +0.180 A 
ATOM     30  N   LIG    1       -0.932   4.447  -1.833  0.00  0.00    -0.480 NA
ATOM     31  C   LIG    1       -1.945   5.236  -1.587  0.00  0.00    +0.230 A 
ATOM     32  C   LIG    1       -2.163   6.447  -2.457  0.00  0.00    +0.160 C 
ENDBRANCH  19  21
ENDBRANCH   7  17
TORSDOF 3
