REMARK  Name = ZINCtV00000L6kA2.0
REMARK                            x       y       z     vdW  Elec       q    Type
REMARK                         _______ _______ _______ _____ _____    ______ ____
ROOT
ATOM      1  C   LIG    1       -2.926   4.218  -0.268  0.00  0.00    -0.290 A 
ATOM      2  C   LIG    1       -3.368   4.508   1.007  0.00  0.00    +0.140 A 
ATOM      3  N   LIG    1       -4.486   5.242   0.889  0.00  0.00    -0.350 N 
ATOM      4  N   LIG    1       -4.762   5.412  -0.472  0.00  0.00    -0.270 NA
ATOM      5  C   LIG    1       -2.713   4.082   2.296  0.00  0.00    +0.160 C 
ATOM      6  C   LIG    1       -3.841   4.807  -1.170  0.00  0.00    +0.120 A 
ATOM      7  C   LIG    1       -3.765   4.747  -2.674  0.00  0.00    +0.160 C 
ENDROOT
BRANCH   1  10
ATOM      8  N   LIG    1       -1.818   2.100  -0.779  0.00  0.00    -0.670 N 
ATOM      9  H   LIG    1       -2.680   1.661  -0.715  0.00  0.00    +0.410 HD
ATOM     10  C   LIG    1       -1.728   3.436  -0.623  0.00  0.00    +0.600 C 
ATOM     11  O   LIG    1       -0.659   3.996  -0.776  0.00  0.00    -0.510 OA
BRANCH   8  15
ATOM     12  C   LIG    1        1.608  -0.149  -1.525  0.00  0.00    -0.090 A 
ATOM     13  C   LIG    1        1.684   0.980  -0.729  0.00  0.00    +0.020 A 
ATOM     14  C   LIG    1        0.550   1.728  -0.481  0.00  0.00    +0.010 A 
ATOM     15  C   LIG    1       -0.666   1.347  -1.032  0.00  0.00    +0.140 A 
ATOM     16  C   LIG    1       -0.739   0.213  -1.831  0.00  0.00    -0.020 A 
ATOM     17  C   LIG    1        0.399  -0.531  -2.075  0.00  0.00    +0.030 A 
BRANCH  12  18
ATOM     18  C   LIG    1        2.847  -0.964  -1.793  0.00  0.00    +0.030 C 
ATOM     19  C   LIG    1        2.640  -2.390  -1.279  0.00  0.00    +0.030 C 
BRANCH  18  21
ATOM     20  C   LIG    1        4.443  -1.719  -3.561  0.00  0.00    +0.000 C 
ATOM     21  C   LIG    1        3.119  -0.998  -3.298  0.00  0.00    +0.000 C 
ENDBRANCH  18  21
ENDBRANCH  12  18
ENDBRANCH   8  15
ENDBRANCH   1  10
BRANCH   3  22
ATOM     22  C   LIG    1       -5.284   5.771   1.997  0.00  0.00    +0.400 C 
BRANCH  22  23
ATOM     23  C   LIG    1       -4.912   7.211   2.242  0.00  0.00    -0.110 A 
ATOM     24  C   LIG    1       -3.993   7.530   3.226  0.00  0.00    -0.010 A 
ATOM     25  C   LIG    1       -3.647   8.851   3.446  0.00  0.00    +0.040 A 
ATOM     26  C   LIG    1       -4.229   9.853   2.692  0.00  0.00    +0.070 A 
ATOM     27  C   LIG    1       -5.151   9.535   1.712  0.00  0.00    +0.030 A 
ATOM     28 CL   LIG    1       -3.269   6.273   4.179  0.00  0.00    -0.050 Cl
ATOM     29  C   LIG    1       -5.493   8.214   1.487  0.00  0.00    +0.000 A 
ATOM     30 CL   LIG    1       -6.650   7.814   0.257  0.00  0.00    -0.030 Cl
ENDBRANCH  22  23
ENDBRANCH   3  22
TORSDOF 6
