REMARK  Name = ZINCrg00001JduOs.0
REMARK                            x       y       z     vdW  Elec       q    Type
REMARK                         _______ _______ _______ _____ _____    ______ ____
ROOT
ATOM      1  C   LIG    1        2.424   0.737  -0.017  0.00  0.00    +0.050 C 
ENDROOT
BRANCH   1   2
ATOM      2  C   LIG    1        3.738   1.520  -0.025  0.00  0.00    -0.350 C 
BRANCH   2   3
ATOM      3  S   LIG    1        5.133   0.360  -0.045  0.00  0.00    +2.610 S 
ATOM      4  O   LIG    1        5.191  -0.329  -1.286  0.00  0.00    -0.950 OA
ATOM      5  O   LIG    1        5.214  -0.342   1.188  0.00  0.00    -0.950 OA
BRANCH   3   6
ATOM      6  N   LIG    1        6.476   1.329  -0.053  0.00  0.00    -1.120 NA
ATOM      7  H   LIG    1        7.070   1.329  -0.820  0.00  0.00    +0.420 HD
BRANCH   6   8
ATOM      8  C   LIG    1        6.767   2.186   1.099  0.00  0.00    +0.360 C 
BRANCH   8  13
ATOM      9  N   LIG    1        9.284   2.013   1.454  0.00  0.00    -0.360 N 
ATOM     10  N   LIG    1       10.405   2.809   1.186  0.00  0.00    -0.290 NA
ATOM     11  C   LIG    1        9.996   3.909   0.607  0.00  0.00    +0.230 A 
ATOM     12  C   LIG    1        8.604   3.846   0.483  0.00  0.00    -0.100 A 
ATOM     13  C   LIG    1        8.191   2.672   1.016  0.00  0.00    +0.060 A 
BRANCH   9  15
ATOM     14  C   LIG    1        9.438  -0.391   1.028  0.00  0.00    +0.040 C 
ATOM     15  C   LIG    1        9.296   0.696   2.096  0.00  0.00    +0.320 C 
ENDBRANCH   9  15
ENDBRANCH   8  13
ENDBRANCH   6   8
ENDBRANCH   3   6
ENDBRANCH   2   3
ENDBRANCH   1   2
BRANCH   1  16
ATOM     16  C   LIG    1        1.248   1.716  -0.001  0.00  0.00    +0.290 C 
BRANCH  16  17
ATOM     17  N   LIG    1       -0.011   0.966   0.007  0.00  0.00    -0.720 N 
ATOM     18  H   LIG    1        0.002  -0.004   0.002  0.00  0.00    +0.410 HD
ATOM     19  C   LIG    1       -1.187   1.624   0.017  0.00  0.00    +0.610 C 
ATOM     20  O   LIG    1       -1.204   2.840   0.023  0.00  0.00    -0.540 OA
BRANCH  19  21
ATOM     21  C   LIG    1       -2.453   0.870   0.018  0.00  0.00    -0.050 A 
ATOM     22  C   LIG    1       -3.709   1.403   0.027  0.00  0.00    +0.250 A 
ATOM     23  N   LIG    1       -4.577   0.363   0.025  0.00  0.00    -0.520 N 
ATOM     24  C   LIG    1       -3.848  -0.783   0.015  0.00  0.00    +0.240 A 
ATOM     25  C   LIG    1       -4.415  -2.180   0.009  0.00  0.00    +0.190 C 
ATOM     26  N   LIG    1       -2.582  -0.481   0.006  0.00  0.00    -0.450 NA
BRANCH  23  27
ATOM     27  C   LIG    1       -6.038   0.459   0.032  0.00  0.00    +0.640 C 
ATOM     28  F   LIG    1       -6.581  -0.647  -0.631  0.00  0.00    -0.170 F 
ATOM     29  F   LIG    1       -6.433   1.632  -0.619  0.00  0.00    -0.170 F 
ENDBRANCH  23  27
ENDBRANCH  19  21
ENDBRANCH  16  17
ENDBRANCH   1  16
TORSDOF 10
