REMARK  Name = ZINCvU0000000FZT.0
REMARK                            x       y       z     vdW  Elec       q    Type
REMARK                         _______ _______ _______ _____ _____    ______ ____
ROOT
ATOM      1  N   LIG    1        3.534   1.574  -0.024  0.00  0.00    -0.510 N 
ATOM      2  C   LIG    1        4.533   0.670  -0.039  0.00  0.00    +0.500 C 
ATOM      3  O   LIG    1        4.278  -0.516  -0.042  0.00  0.00    -0.470 OA
ENDROOT
BRANCH   1   4
ATOM      4  C   LIG    1        2.211   1.148  -0.013  0.00  0.00    +0.280 A 
ATOM      5  N   LIG    1        1.174   1.925   0.001  0.00  0.00    -0.500 NA
ATOM      6  C   LIG    1       -0.016   1.341   0.009  0.00  0.00    +0.130 A 
ATOM      7  C   LIG    1        0.002  -0.004   0.002  0.00  0.00    -0.120 A 
ATOM      8  S   LIG    1        1.683  -0.532  -0.017  0.00  0.00    +0.200 S 
BRANCH   6   9
ATOM      9  C   LIG    1       -1.280   2.117   0.020  0.00  0.00    -0.020 A 
ATOM     10  C   LIG    1       -2.507   1.455   0.016  0.00  0.00    +0.020 A 
ATOM     11  C   LIG    1       -3.680   2.182   0.031  0.00  0.00    +0.010 A 
ATOM     12  C   LIG    1       -3.640   3.564   0.038  0.00  0.00    +0.010 A 
ATOM     13  C   LIG    1       -2.425   4.226   0.036  0.00  0.00    +0.000 A 
ATOM     14  C   LIG    1       -1.246   3.510   0.027  0.00  0.00    +0.040 A 
ENDBRANCH   6   9
ENDBRANCH   1   4
BRANCH   1  15
ATOM     15  C   LIG    1        3.842   3.006  -0.020  0.00  0.00    +0.340 C 
BRANCH  15  17
ATOM     16  C   LIG    1        5.049   4.106   1.796  0.00  0.00    +0.040 C 
ATOM     17  C   LIG    1        3.962   3.490   1.403  0.00  0.00    -0.060 C 
ENDBRANCH  15  17
ENDBRANCH   1  15
BRANCH   2  18
ATOM     18  C   LIG    1        5.967   1.132  -0.051  0.00  0.00    +0.090 C 
BRANCH  18  19
ATOM     19  C   LIG    1        6.895  -0.085  -0.066  0.00  0.00    +0.320 C 
ATOM     20  C   LIG    1        8.329   0.373   0.035  0.00  0.00    -0.100 A 
ATOM     21  C   LIG    1        8.916   0.578   1.263  0.00  0.00    +0.030 A 
ATOM     22  C   LIG    1       10.229   1.012   1.338  0.00  0.00    +0.010 A 
ATOM     23  C   LIG    1       10.956   1.244   0.184  0.00  0.00    +0.020 A 
ATOM     24  C   LIG    1       10.380   1.037  -1.054  0.00  0.00    +0.020 A 
ATOM     25  C   LIG    1        9.061   0.592  -1.135  0.00  0.00    -0.030 A 
ATOM     26  C   LIG    1        8.427   0.346  -2.444  0.00  0.00    -0.030 C 
ATOM     27  C   LIG    1        7.277  -0.335  -2.495  0.00  0.00    +0.240 C 
ATOM     28  N   LIG    1        6.715  -0.823  -1.321  0.00  0.00    -0.560 N 
ATOM     29  C   LIG    1        6.009  -1.970  -1.335  0.00  0.00    +0.510 C 
ATOM     30  O   LIG    1        5.520  -2.394  -0.310  0.00  0.00    -0.480 OA
ATOM     31  C   LIG    1        5.826  -2.727  -2.626  0.00  0.00    +0.100 C 
ENDBRANCH  18  19
ENDBRANCH   2  18
TORSDOF 6
