REMARK  Name = ZINCnE000001Ub6v.1
REMARK                            x       y       z     vdW  Elec       q    Type
REMARK                         _______ _______ _______ _____ _____    ______ ____
ROOT
ATOM      1  C   LIG    1        1.155   3.180   0.008  0.00  0.00    +0.290 A 
ATOM      2  C   LIG    1       -0.060   3.849   0.022  0.00  0.00    -0.120 A 
ATOM      3  C   LIG    1       -1.243   3.135   0.029  0.00  0.00    +0.070 A 
ATOM      4  C   LIG    1       -1.220   1.751   0.017  0.00  0.00    -0.120 A 
ATOM      5  C   LIG    1       -0.013   1.076   0.008  0.00  0.00    +0.040 A 
ATOM      6 CL   LIG    1       -2.710   0.861   0.020  0.00  0.00    -0.100 Cl
ATOM      7  C   LIG    1        1.179   1.785   0.000  0.00  0.00    +0.080 A 
ENDROOT
BRANCH   7   8
ATOM      8  N   LIG    1        2.404   1.102  -0.015  0.00  0.00    -0.280 N 
ATOM      9  C   LIG    1        2.567  -0.239  -0.024  0.00  0.00    +0.180 A 
ATOM     10  C   LIG    1        3.896  -0.493  -0.039  0.00  0.00    -0.140 A 
ATOM     11  C   LIG    1        4.569   0.734  -0.039  0.00  0.00    +0.170 A 
ATOM     12  N   LIG    1        3.675   1.690  -0.030  0.00  0.00    -0.200 NA
ENDBRANCH   7   8
BRANCH   1  13
ATOM     13  N   LIG    1        2.353   3.901   0.001  0.00  0.00    -1.030 NA
BRANCH  13  15
ATOM     14  O   LIG    1        1.760   5.954  -1.234  0.00  0.00    -1.020 OA
ATOM     15  S   LIG    1        2.323   5.557   0.009  0.00  0.00    +2.600 S 
ATOM     16  O   LIG    1        1.782   5.942   1.266  0.00  0.00    -1.020 OA
BRANCH  15  17
ATOM     17  C   LIG    1        3.996   6.109  -0.003  0.00  0.00    -0.620 A 
ATOM     18  C   LIG    1        4.661   6.325   1.190  0.00  0.00    +0.160 A 
ATOM     19  C   LIG    1        5.975   6.753   1.181  0.00  0.00    -0.040 A 
ATOM     20  C   LIG    1        6.622   6.977  -0.022  0.00  0.00    +0.130 A 
ATOM     21  C   LIG    1        5.953   6.766  -1.216  0.00  0.00    -0.040 A 
ATOM     22  F   LIG    1        7.904   7.401  -0.032  0.00  0.00    -0.140 F 
ATOM     23  C   LIG    1        4.641   6.332  -1.205  0.00  0.00    +0.160 A 
ENDBRANCH  15  17
ENDBRANCH  13  15
ENDBRANCH   1  13
TORSDOF 4
