REMARK  Name = ZINCrH000004pjcu.0
REMARK                            x       y       z     vdW  Elec       q    Type
REMARK                         _______ _______ _______ _____ _____    ______ ____
ROOT
ATOM      1  N   LIG    1        1.008   6.070   1.210  0.00  0.00    -0.740 N 
ATOM      2  H   LIG    1        0.928   6.948   1.615  0.00  0.00    +0.390 HD
ATOM      3  C   LIG    1        2.094   5.311   1.457  0.00  0.00    +0.710 C 
ATOM      4  N   LIG    1        3.114   5.808   2.185  0.00  0.00    -0.630 N 
ATOM      5  C   LIG    1        4.348   5.034   2.372  0.00  0.00    +0.300 C 
ATOM      6  C   LIG    1        4.645   4.925   3.866  0.00  0.00    +0.010 C 
ATOM      7  C   LIG    1        4.683   6.326   4.480  0.00  0.00    +0.240 C 
ATOM      8  C   LIG    1        3.320   6.999   4.305  0.00  0.00    +0.010 C 
ATOM      9  C   LIG    1        3.009   7.133   2.811  0.00  0.00    +0.280 C 
ATOM     10  O   LIG    1        2.153   4.176   1.024  0.00  0.00    -0.580 OA
ENDROOT
BRANCH   7  11
ATOM     11  N   LIG    1        4.998   6.226   5.907  0.00  0.00    -0.730 N 
ATOM     12  H   LIG    1        4.283   6.211   6.562  0.00  0.00    +0.400 HD
ATOM     13  C   LIG    1        6.282   6.153   6.310  0.00  0.00    +0.520 C 
ATOM     14  O   LIG    1        7.177   6.171   5.492  0.00  0.00    -0.530 OA
BRANCH  13  15
ATOM     15  C   LIG    1        6.606   6.050   7.779  0.00  0.00    -0.010 C 
ATOM     16  C   LIG    1        6.058   7.277   8.510  0.00  0.00    +0.030 C 
ATOM     17  C   LIG    1        6.387   7.171  10.000  0.00  0.00    +0.010 C 
ATOM     18  C   LIG    1        7.904   7.104  10.184  0.00  0.00    +0.000 C 
ATOM     19  C   LIG    1        8.453   5.877   9.453  0.00  0.00    +0.010 C 
ATOM     20  C   LIG    1        8.124   5.982   7.962  0.00  0.00    +0.040 C 
ENDBRANCH  13  15
ENDBRANCH   7  11
BRANCH   1  22
ATOM     21  C   LIG    1       -1.021   4.707   1.139  0.00  0.00    +0.040 C 
ATOM     22  C   LIG    1       -0.051   5.570   0.330  0.00  0.00    +0.300 C 
BRANCH  22  23
ATOM     23  C   LIG    1       -0.796   6.734  -0.271  0.00  0.00    -0.060 A 
ATOM     24  C   LIG    1       -1.190   6.693  -1.595  0.00  0.00    +0.010 A 
ATOM     25  C   LIG    1       -1.874   7.760  -2.147  0.00  0.00    +0.060 A 
ATOM     26  C   LIG    1       -2.164   8.869  -1.376  0.00  0.00    -0.010 A 
ATOM     27  C   LIG    1       -1.770   8.912  -0.049  0.00  0.00    +0.100 A 
ATOM     28  F   LIG    1       -2.053   9.996   0.706  0.00  0.00    -0.140 F 
ATOM     29  C   LIG    1       -1.085   7.843   0.503  0.00  0.00    -0.020 A 
ENDBRANCH  22  23
ENDBRANCH   1  22
TORSDOF 4
