REMARK  Name = ZINCpe00000MJJFN.0
REMARK                            x       y       z     vdW  Elec       q    Type
REMARK                         _______ _______ _______ _____ _____    ______ ____
ROOT
ATOM      1  C   LIG    1       -0.048  -0.121   0.814  0.00  0.00    -0.100 C 
ATOM      2  C   LIG    1       -0.089   1.208   1.048  0.00  0.00    +0.140 C 
ENDROOT
BRANCH   1   9
ATOM      3  C   LIG    1        2.572  -2.794   0.175  0.00  0.00    +0.200 C 
ATOM      4  C   LIG    1        2.674  -3.936   1.193  0.00  0.00    +0.220 C 
ATOM      5  O   LIG    1        1.502  -4.750   1.106  0.00  0.00    -0.380 OA
ATOM      6  C   LIG    1        0.289  -4.065   1.430  0.00  0.00    +0.210 C 
ATOM      7  C   LIG    1        0.066  -2.931   0.429  0.00  0.00    +0.250 C 
ATOM      8  N   LIG    1        1.285  -2.109   0.372  0.00  0.00    -0.610 N 
ATOM      9  C   LIG    1        1.226  -0.769   0.502  0.00  0.00    +0.550 C 
ATOM     10  O   LIG    1        2.231  -0.098   0.361  0.00  0.00    -0.530 OA
BRANCH   3  11
ATOM     11  C   LIG    1        3.721  -1.807   0.392  0.00  0.00    +0.080 C 
BRANCH  11  12
ATOM     12  C   LIG    1        5.057  -2.537   0.242  0.00  0.00    +0.150 C 
BRANCH  12  14
ATOM     13  C   LIG    1        7.426  -2.176   0.200  0.00  0.00    +0.200 C 
ATOM     14  O   LIG    1        6.127  -1.594   0.328  0.00  0.00    -0.390 OA
ENDBRANCH  12  14
ENDBRANCH  11  12
ENDBRANCH   3  11
ENDBRANCH   1   9
BRANCH   2  15
ATOM     15  C   LIG    1       -1.370   1.861   1.355  0.00  0.00    -0.120 A 
ATOM     16  C   LIG    1       -2.549   1.108   1.399  0.00  0.00    +0.070 A 
ATOM     17  C   LIG    1       -3.745   1.723   1.692  0.00  0.00    -0.080 A 
ATOM     18  C   LIG    1       -3.785   3.091   1.933  0.00  0.00    +0.140 A 
ATOM     19  C   LIG    1       -2.618   3.845   1.884  0.00  0.00    -0.010 A 
ATOM     20  C   LIG    1       -1.416   3.238   1.598  0.00  0.00    +0.090 A 
BRANCH  18  21
ATOM     21  O   LIG    1       -4.968   3.694   2.215  0.00  0.00    -0.290 OA
BRANCH  21  22
ATOM     22  C   LIG    1       -6.129   2.862   2.249  0.00  0.00    +0.240 C 
BRANCH  22  23
ATOM     23  C   LIG    1       -7.338   3.699   2.576  0.00  0.00    +0.520 C 
ATOM     24  O   LIG    1       -7.218   4.891   2.761  0.00  0.00    -0.520 OA
ATOM     25  N   LIG    1       -8.554   3.123   2.662  0.00  0.00    -0.850 N 
ATOM     26  H   LIG    1       -9.332   3.662   2.872  0.00  0.00    +0.410 HD
ATOM     27  H   LIG    1       -8.650   2.169   2.513  0.00  0.00    +0.400 HD
ENDBRANCH  22  23
ENDBRANCH  21  22
ENDBRANCH  18  21
ENDBRANCH   2  15
TORSDOF 8
