REMARK  Name = ZINCrm000000KBXh.1
REMARK                            x       y       z     vdW  Elec       q    Type
REMARK                         _______ _______ _______ _____ _____    ______ ____
ROOT
ATOM      1  C   LIG    1       -1.042   7.798   0.964  0.00  0.00    +0.320 C 
ENDROOT
BRANCH   1   2
ATOM      2  C   LIG    1       -0.865   6.302   0.960  0.00  0.00    -0.080 A 
ATOM      3  C   LIG    1       -1.840   5.492   0.408  0.00  0.00    +0.050 A 
ATOM      4  C   LIG    1       -1.677   4.119   0.403  0.00  0.00    +0.050 A 
ATOM      5  C   LIG    1       -0.539   3.556   0.950  0.00  0.00    -0.150 A 
ATOM      6  C   LIG    1        0.433   4.366   1.506  0.00  0.00    +0.040 A 
ATOM      7  C   LIG    1        0.273   5.739   1.508  0.00  0.00    +0.040 A 
BRANCH   5   8
ATOM      8  C   LIG    1       -0.362   2.060   0.945  0.00  0.00    +0.320 C 
BRANCH   8   9
ATOM      9  N   LIG    1        0.328   1.652  -0.291  0.00  0.00    -0.380 N 
ATOM     10  C   LIG    1        1.697   2.180  -0.275  0.00  0.00    +0.230 C 
ATOM     11  C   LIG    1        2.445   1.776  -1.540  0.00  0.00    +0.220 C 
ATOM     12  O   LIG    1        2.285   0.412  -1.864  0.00  0.00    -0.350 OA
ATOM     13  C   LIG    1        1.065  -0.262  -1.638  0.00  0.00    +0.220 C 
ATOM     14  C   LIG    1        0.106  -0.104  -2.819  0.00  0.00    +0.030 C 
ATOM     15  C   LIG    1        2.032   2.679  -2.705  0.00  0.00    +0.030 C 
ATOM     16  C   LIG    1        0.390   0.185  -0.344  0.00  0.00    +0.240 C 
ATOM     17  H   LIG    1       -0.178   2.012  -1.081  0.00  0.00    +0.420 HD
ENDBRANCH   8   9
ENDBRANCH   5   8
ENDBRANCH   1   2
BRANCH   1  19
ATOM     18  C   LIG    1       -1.997   9.507   2.415  0.00  0.00    +0.530 C 
ATOM     19  N   LIG    1       -1.729   8.205   2.193  0.00  0.00    -0.730 N 
ATOM     20  H   LIG    1       -1.991   7.538   2.846  0.00  0.00    +0.400 HD
ATOM     21  O   LIG    1       -1.669  10.342   1.599  0.00  0.00    -0.510 OA
BRANCH  18  24
ATOM     22  C   LIG    1       -1.528  11.491   4.490  0.00  0.00    +0.050 C 
ATOM     23  C   LIG    1       -1.775  10.026   4.900  0.00  0.00    +0.060 C 
ATOM     24  C   LIG    1       -2.704   9.926   3.679  0.00  0.00    -0.010 C 
ATOM     25  C   LIG    1       -2.902  11.446   3.799  0.00  0.00    +0.110 C 
BRANCH  22  27
ATOM     26  C   LIG    1        0.850  11.576   4.199  0.00  0.00    +0.200 C 
ATOM     27  O   LIG    1       -0.437  11.657   3.582  0.00  0.00    -0.330 OA
ENDBRANCH  22  27
BRANCH  22  28
ATOM     28  C   LIG    1       -1.468  12.457   5.674  0.00  0.00    +0.260 C 
BRANCH  28  29
ATOM     29  N   LIG    1       -1.768  13.819   5.210  0.00  0.00    -0.630 N 
ATOM     30  H   LIG    1       -1.648  14.468   5.973  0.00  0.00    +0.440 HD
ATOM     31  H   LIG    1       -2.721  13.860   4.880  0.00  0.00    +0.440 HD
ATOM     32  H   LIG    1       -1.141  14.064   4.459  0.00  0.00    +0.440 HD
ENDBRANCH  28  29
ENDBRANCH  22  28
ENDBRANCH  18  24
ENDBRANCH   1  19
TORSDOF 8
