REMARK  Name = ZINCrm000000KBXh.0
REMARK                            x       y       z     vdW  Elec       q    Type
REMARK                         _______ _______ _______ _____ _____    ______ ____
ROOT
ATOM      1  C   LIG    1        0.856   4.778  -5.913  0.00  0.00    +0.330 C 
ENDROOT
BRANCH   1   2
ATOM      2  C   LIG    1        1.558   6.111  -5.921  0.00  0.00    -0.080 A 
ATOM      3  C   LIG    1        0.850   7.267  -5.652  0.00  0.00    +0.040 A 
ATOM      4  C   LIG    1        1.495   8.489  -5.655  0.00  0.00    +0.040 A 
ATOM      5  C   LIG    1        2.846   8.557  -5.937  0.00  0.00    -0.150 A 
ATOM      6  C   LIG    1        3.554   7.402  -6.211  0.00  0.00    +0.050 A 
ATOM      7  C   LIG    1        2.910   6.179  -6.203  0.00  0.00    +0.050 A 
BRANCH   5   8
ATOM      8  C   LIG    1        3.548   9.891  -5.946  0.00  0.00    +0.320 C 
BRANCH   8   9
ATOM      9  N   LIG    1        3.488  10.467  -7.296  0.00  0.00    -0.380 N 
ATOM     10  C   LIG    1        4.273  11.708  -7.335  0.00  0.00    +0.240 C 
ATOM     11  C   LIG    1        4.209  12.306  -8.742  0.00  0.00    +0.160 C 
ATOM     12  O   LIG    1        2.842  12.539  -9.093  0.00  0.00    -0.350 OA
ATOM     13  C   LIG    1        2.030  11.362  -9.047  0.00  0.00    +0.160 C 
ATOM     14  C   LIG    1        0.583  11.727  -9.385  0.00  0.00    +0.110 C 
ATOM     15  C   LIG    1        4.976  13.630  -8.771  0.00  0.00    +0.110 C 
ATOM     16  C   LIG    1        2.090  10.762  -7.640  0.00  0.00    +0.230 C 
ATOM     17  H   LIG    1        3.866   9.808  -7.960  0.00  0.00    +0.420 HD
ENDBRANCH   8   9
ENDBRANCH   5   8
ENDBRANCH   1   2
BRANCH   1  19
ATOM     18  C   LIG    1        0.350   3.004  -4.321  0.00  0.00    +0.520 C 
ATOM     19  N   LIG    1        0.916   4.202  -4.567  0.00  0.00    -0.730 N 
ATOM     20  H   LIG    1        1.363   4.683  -3.854  0.00  0.00    +0.400 HD
ATOM     21  O   LIG    1       -0.209   2.402  -5.213  0.00  0.00    -0.520 OA
BRANCH  18  24
ATOM     22  C   LIG    1       -0.810   1.516  -1.456  0.00  0.00    +0.050 C 
ATOM     23  C   LIG    1       -0.673   2.953  -1.985  0.00  0.00    +0.090 C 
ATOM     24  C   LIG    1        0.412   2.412  -2.936  0.00  0.00    -0.020 C 
ATOM     25  C   LIG    1       -0.280   1.044  -2.820  0.00  0.00    +0.100 C 
BRANCH  22  27
ATOM     26  C   LIG    1       -2.338  -0.282  -1.033  0.00  0.00    +0.220 C 
ATOM     27  O   LIG    1       -2.161   1.126  -1.201  0.00  0.00    -0.360 OA
ENDBRANCH  22  27
BRANCH  22  28
ATOM     28  C   LIG    1        0.130   1.199  -0.290  0.00  0.00    +0.270 C 
BRANCH  28  29
ATOM     29  N   LIG    1       -0.317   1.921   0.909  0.00  0.00    -0.630 N 
ATOM     30  H   LIG    1       -1.240   1.604   1.168  0.00  0.00    +0.440 HD
ATOM     31  H   LIG    1       -0.344   2.911   0.715  0.00  0.00    +0.430 HD
ATOM     32  H   LIG    1        0.325   1.744   1.667  0.00  0.00    +0.440 HD
ENDBRANCH  28  29
ENDBRANCH  22  28
ENDBRANCH  18  24
ENDBRANCH   1  19
TORSDOF 8
