REMARK  Name = ZINCpk00000ebEqo.1
REMARK                            x       y       z     vdW  Elec       q    Type
REMARK                         _______ _______ _______ _____ _____    ______ ____
ROOT
ATOM      1  O   LIG    1        7.192   5.710   2.503  0.00  0.00    -0.510 OA
ATOM      2  C   LIG    1        6.317   6.032   3.283  0.00  0.00    +0.600 C 
ATOM      3  N   LIG    1        5.023   5.818   2.970  0.00  0.00    -0.700 N 
ATOM      4  H   LIG    1        4.325   6.075   3.592  0.00  0.00    +0.410 HD
ENDROOT
BRANCH   2   5
ATOM      5  C   LIG    1        6.671   6.656   4.575  0.00  0.00    +0.240 A 
ATOM      6  N   LIG    1        5.814   7.040   5.487  0.00  0.00    -0.440 NA
ATOM      7  C   LIG    1        6.470   7.566   6.536  0.00  0.00    +0.030 A 
ATOM      8  C   LIG    1        6.051   8.116   7.755  0.00  0.00    +0.130 A 
ATOM      9  C   LIG    1        6.975   8.581   8.645  0.00  0.00    -0.010 A 
ATOM     10  C   LIG    1        8.335   8.515   8.357  0.00  0.00    +0.130 A 
ATOM     11  C   LIG    1        8.772   7.978   7.163  0.00  0.00    -0.010 A 
ATOM     12  F   LIG    1        9.233   8.981   9.252  0.00  0.00    -0.130 F 
ATOM     13  C   LIG    1        7.847   7.500   6.244  0.00  0.00    +0.090 A 
ATOM     14  N   LIG    1        7.948   6.916   5.002  0.00  0.00    -0.560 N 
ATOM     15  H   LIG    1        8.768   6.726   4.519  0.00  0.00    +0.440 HD
ENDBRANCH   2   5
BRANCH   3  16
ATOM     16  C   LIG    1        4.672   5.199   1.689  0.00  0.00    +0.260 C 
ATOM     17  C   LIG    1        3.247   5.609   1.279  0.00  0.00    +0.050 C 
ATOM     18  C   LIG    1        2.424   4.308   1.184  0.00  0.00    -0.010 C 
ATOM     19  C   LIG    1        3.484   3.205   0.938  0.00  0.00    +0.020 C 
ATOM     20  C   LIG    1        4.665   3.663   1.829  0.00  0.00    +0.150 C 
BRANCH  20  21
ATOM     21  O   LIG    1        5.894   3.112   1.352  0.00  0.00    -0.550 OA
ATOM     22  H   LIG    1        5.944   2.148   1.416  0.00  0.00    +0.380 HD
ENDBRANCH  20  21
BRANCH  18  23
ATOM     23  C   LIG    1        1.444   4.379   0.011  0.00  0.00    +0.330 C 
BRANCH  23  24
ATOM     24  N   LIG    1        0.593   3.186   0.013  0.00  0.00    -0.370 N 
ATOM     25  C   LIG    1       -0.756   3.173   0.025  0.00  0.00    +0.220 A 
ATOM     26  C   LIG    1       -1.157   1.881   0.017  0.00  0.00    -0.120 A 
ATOM     27  C   LIG    1       -0.013   1.076   0.008  0.00  0.00    +0.220 A 
ATOM     28  N   LIG    1        1.037   1.857   0.002  0.00  0.00    -0.290 NA
ENDBRANCH  23  24
ENDBRANCH  18  23
ENDBRANCH   3  16
TORSDOF 5
