REMARK  Name = ZINCvU0000000Deq.0
REMARK                            x       y       z     vdW  Elec       q    Type
REMARK                         _______ _______ _______ _____ _____    ______ ____
ROOT
ATOM      1  N   LIG    1       -6.121   3.247  -0.333  0.00  0.00    -0.360 N 
ATOM      2  N   LIG    1       -7.103   4.226  -0.114  0.00  0.00    -0.280 NA
ATOM      3  C   LIG    1       -6.482   5.301   0.321  0.00  0.00    +0.270 A 
ATOM      4  N   LIG    1       -5.171   5.046   0.391  0.00  0.00    -0.510 NA
ATOM      5  C   LIG    1       -4.937   3.810   0.003  0.00  0.00    +0.320 A 
ENDROOT
BRANCH   5   6
ATOM      6  C   LIG    1       -3.612   3.155  -0.061  0.00  0.00    -0.070 A 
ATOM      7  C   LIG    1       -3.344   2.214  -1.047  0.00  0.00    +0.100 A 
ATOM      8  C   LIG    1       -2.071   1.618  -1.059  0.00  0.00    -0.080 A 
ATOM      9  C   LIG    1       -1.732   0.646  -2.016  0.00  0.00    +0.010 A 
ATOM     10  C   LIG    1       -0.488   0.088  -1.998  0.00  0.00    +0.110 A 
ATOM     11  C   LIG    1        0.452   0.471  -1.040  0.00  0.00    +0.030 A 
ATOM     12  C   LIG    1        0.155   1.409  -0.100  0.00  0.00    +0.090 A 
ATOM     13  F   LIG    1       -0.162  -0.846  -2.917  0.00  0.00    -0.130 F 
ATOM     14  C   LIG    1       -1.118   2.003  -0.083  0.00  0.00    +0.130 A 
ATOM     15  N   LIG    1       -1.432   2.923   0.836  0.00  0.00    -0.460 NA
ATOM     16  C   LIG    1       -2.612   3.487   0.869  0.00  0.00    +0.360 A 
ENDBRANCH   5   6
BRANCH   1  20
ATOM     17  C   LIG    1       -6.404  -1.045  -0.460  0.00  0.00    +0.010 C 
ATOM     18  C   LIG    1       -7.678  -0.202  -0.541  0.00  0.00    +0.210 C 
ATOM     19  C   LIG    1       -7.404   1.193   0.028  0.00  0.00    +0.010 C 
ATOM     20  C   LIG    1       -6.335   1.883  -0.825  0.00  0.00    +0.260 C 
ATOM     21  C   LIG    1       -6.809   1.932  -2.280  0.00  0.00    +0.010 C 
ATOM     22  C   LIG    1       -7.108   0.509  -2.760  0.00  0.00    +0.160 C 
ATOM     23  C   LIG    1       -7.641   0.554  -4.193  0.00  0.00    +0.060 C 
ATOM     24  O   LIG    1       -8.087  -0.086  -1.906  0.00  0.00    -0.360 OA
ENDBRANCH   1  20
BRANCH   3  25
ATOM     25  C   LIG    1       -7.131   6.587   0.677  0.00  0.00    -0.060 A 
ATOM     26  C   LIG    1       -8.510   6.740   0.559  0.00  0.00    +0.320 A 
ATOM     27  N   LIG    1       -9.089   7.880   0.879  0.00  0.00    -0.470 NA
ATOM     28  C   LIG    1       -8.396   8.915   1.310  0.00  0.00    +0.320 A 
ATOM     29  C   LIG    1       -7.021   8.845   1.450  0.00  0.00    -0.150 A 
ATOM     30 BR   LIG    1       -6.044  10.341   2.070  0.00  0.00    -0.020 Br
ATOM     31  C   LIG    1       -6.367   7.666   1.131  0.00  0.00    +0.160 A 
ENDBRANCH   3  25
TORSDOF 3
