REMARK  Name = ZINCqH0000035YSE.0
REMARK                            x       y       z     vdW  Elec       q    Type
REMARK                         _______ _______ _______ _____ _____    ______ ____
ROOT
ATOM      1  N   LIG    1       -1.474   3.103  -0.040  0.00  0.00    -0.450 N 
ATOM      2  C   LIG    1       -1.875   3.975   1.085  0.00  0.00    +0.200 C 
ATOM      3  C   LIG    1       -3.356   3.674   1.384  0.00  0.00    +0.010 C 
ATOM      4  C   LIG    1       -3.752   2.563   0.384  0.00  0.00    +0.270 C 
ATOM      5  C   LIG    1       -2.387   1.933   0.009  0.00  0.00    +0.180 C 
ENDROOT
BRANCH   1  12
ATOM      6  C   LIG    1        0.866   3.658   0.236  0.00  0.00    +0.120 A 
ATOM      7  C   LIG    1        2.184   3.257   0.367  0.00  0.00    -0.040 A 
ATOM      8  C   LIG    1        2.503   1.911   0.350  0.00  0.00    +0.050 A 
ATOM      9  C   LIG    1        1.508   0.962   0.203  0.00  0.00    -0.050 A 
ATOM     10  C   LIG    1        0.188   1.355   0.072  0.00  0.00    +0.010 A 
ATOM     11 CL   LIG    1        1.915  -0.725   0.184  0.00  0.00    -0.070 Cl
ATOM     12  C   LIG    1       -0.139   2.703   0.087  0.00  0.00    +0.090 A 
BRANCH   6  14
ATOM     13  C   LIG    1        1.632   5.903   0.407  0.00  0.00    +0.240 C 
ATOM     14  O   LIG    1        0.551   4.981   0.251  0.00  0.00    -0.300 OA
ENDBRANCH   6  14
ENDBRANCH   1  12
BRANCH   4  15
ATOM     15  N   LIG    1       -4.621   1.574   1.026  0.00  0.00    -0.740 N 
ATOM     16  H   LIG    1       -4.237   0.775   1.421  0.00  0.00    +0.400 HD
ATOM     17  C   LIG    1       -5.953   1.774   1.067  0.00  0.00    +0.710 C 
ATOM     18  N   LIG    1       -6.753   0.863   1.657  0.00  0.00    -0.620 N 
ATOM     19  C   LIG    1       -6.174  -0.343   2.254  0.00  0.00    +0.280 C 
ATOM     20  O   LIG    1       -6.434   2.775   0.572  0.00  0.00    -0.580 OA
BRANCH  18  21
ATOM     21  C   LIG    1       -8.201   1.080   1.702  0.00  0.00    +0.320 C 
BRANCH  21  22
ATOM     22  C   LIG    1       -8.683   1.003   3.152  0.00  0.00    -0.050 C 
ATOM     23  C   LIG    1       -9.543   2.157   3.673  0.00  0.00    +0.030 C 
ATOM     24  C   LIG    1       -8.095   2.006   4.147  0.00  0.00    +0.010 C 
ENDBRANCH  21  22
BRANCH  21  25
ATOM     25  C   LIG    1       -8.904   0.004   0.873  0.00  0.00    -0.070 C 
ATOM     26  C   LIG    1       -9.607   0.448  -0.411  0.00  0.00    +0.020 C 
ATOM     27  C   LIG    1      -10.432   0.044   0.813  0.00  0.00    +0.030 C 
ENDBRANCH  21  25
ENDBRANCH  18  21
ENDBRANCH   4  15
TORSDOF 6
