REMARK  Name = ZINCnE000001F9zB.0
REMARK                            x       y       z     vdW  Elec       q    Type
REMARK                         _______ _______ _______ _____ _____    ______ ____
ROOT
ATOM      1  C   LIG    1       -2.530   4.043   0.042  0.00  0.00    +0.180 C 
ENDROOT
BRANCH   1   2
ATOM      2  C   LIG    1       -1.231   3.279   0.028  0.00  0.00    +0.230 A 
ATOM      3  C   LIG    1       -1.231   1.901   0.018  0.00  0.00    -0.120 A 
ATOM      4  C   LIG    1       -0.015   1.217   0.009  0.00  0.00    +0.530 A 
ATOM      5  N   LIG    1        1.157   1.918   0.001  0.00  0.00    -0.470 N 
ATOM      6  C   LIG    1        2.429   1.402  -0.013  0.00  0.00    +0.090 A 
ATOM      7  C   LIG    1        3.457   2.232  -0.018  0.00  0.00    -0.010 A 
ATOM      8  S   LIG    1        2.753   3.858  -0.003  0.00  0.00    +0.170 S 
ATOM      9  C   LIG    1        2.649  -0.089  -0.022  0.00  0.00    +0.150 C 
ATOM     10  C   LIG    1        1.079   3.277   0.009  0.00  0.00    +0.320 A 
ATOM     11  O   LIG    1        0.002  -0.004   0.002  0.00  0.00    -0.520 OA
ATOM     12  N   LIG    1       -0.071   3.925   0.022  0.00  0.00    -0.490 NA
ENDBRANCH   1   2
BRANCH   1  13
ATOM     13  S   LIG    1       -2.813   4.723   1.700  0.00  0.00    -0.010 S 
BRANCH  13  18
ATOM     14  N   LIG    1       -7.626   7.632   2.017  0.00  0.00    -0.640 NA
ATOM     15  C   LIG    1       -6.567   6.920   1.714  0.00  0.00    +0.340 A 
ATOM     16  N   LIG    1       -6.253   6.362   0.508  0.00  0.00    -0.510 NA
ATOM     17  N   LIG    1       -5.073   5.656   0.453  0.00  0.00    -0.250 NA
ATOM     18  C   LIG    1       -4.350   5.567   1.524  0.00  0.00    -0.070 A 
ATOM     19  S   LIG    1       -5.226   6.460   2.780  0.00  0.00    -0.100 S 
BRANCH  14  20
ATOM     20  C   LIG    1       -8.640   7.908   0.997  0.00  0.00    +0.170 C 
BRANCH  20  21
ATOM     21  C   LIG    1       -9.954   7.229   1.387  0.00  0.00    +0.000 C 
BRANCH  21  23
ATOM     22  C   LIG    1      -12.328   6.839   0.712  0.00  0.00    +0.000 C 
ATOM     23  C   LIG    1      -11.014   7.518   0.322  0.00  0.00    +0.000 C 
ENDBRANCH  21  23
ENDBRANCH  20  21
ENDBRANCH  14  20
ENDBRANCH  13  18
ENDBRANCH   1  13
TORSDOF 6
