REMARK  Name = ZINCkj000005lmvN.0
REMARK                            x       y       z     vdW  Elec       q    Type
REMARK                         _______ _______ _______ _____ _____    ______ ____
ROOT
ATOM      1  N   LIG    1        1.356   2.033   0.000  0.00  0.00    -0.730 N 
ATOM      2  H   LIG    1        1.793   2.265   0.834  0.00  0.00    +0.420 HD
ATOM      3  C   LIG    1        2.012   2.177  -1.168  0.00  0.00    +0.570 C 
ATOM      4  O   LIG    1        1.464   1.886  -2.214  0.00  0.00    -0.550 OA
ENDROOT
BRANCH   3   5
ATOM      5  C   LIG    1        3.397   2.688  -1.179  0.00  0.00    -0.160 A 
ATOM      6  C   LIG    1        4.028   3.022   0.021  0.00  0.00    +0.070 A 
ATOM      7  C   LIG    1        5.322   3.499   0.012  0.00  0.00    +0.030 A 
ATOM      8  C   LIG    1        5.996   3.647  -1.191  0.00  0.00    +0.120 A 
ATOM      9  O   LIG    1        7.275   4.120  -1.206  0.00  0.00    -0.320 OA
ATOM     10  C   LIG    1        8.283   3.183  -1.593  0.00  0.00    +0.230 C 
ATOM     11  C   LIG    1        8.409   3.121  -3.107  0.00  0.00    +0.000 C 
ATOM     12  C   LIG    1        7.152   2.581  -3.771  0.00  0.00    +0.230 C 
ATOM     13  O   LIG    1        6.050   3.468  -3.565  0.00  0.00    -0.310 OA
ATOM     14  C   LIG    1        5.373   3.316  -2.389  0.00  0.00    +0.060 A 
ATOM     15  C   LIG    1        4.081   2.832  -2.390  0.00  0.00    +0.100 A 
ENDBRANCH   3   5
BRANCH   1  16
ATOM     16  C   LIG    1       -0.019   1.526   0.010  0.00  0.00    +0.270 C 
BRANCH  16  17
ATOM     17  C   LIG    1       -0.735   2.019   1.269  0.00  0.00    -0.070 C 
ATOM     18  C   LIG    1       -2.092   2.701   1.088  0.00  0.00    +0.050 C 
ATOM     19  C   LIG    1       -0.862   3.532   1.463  0.00  0.00    +0.050 C 
ENDBRANCH  16  17
BRANCH  16  20
ATOM     20  C   LIG    1        0.002  -0.004   0.002  0.00  0.00    +0.270 C 
BRANCH  20  21
ATOM     21  N   LIG    1        0.792  -0.477  -1.143  0.00  0.00    -0.630 N 
ATOM     22  H   LIG    1        1.736  -0.128  -1.067  0.00  0.00    +0.430 HD
ATOM     23  H   LIG    1        0.377  -0.141  -1.999  0.00  0.00    +0.440 HD
ATOM     24  H   LIG    1        0.806  -1.486  -1.148  0.00  0.00    +0.440 HD
ENDBRANCH  20  21
ENDBRANCH  16  20
ENDBRANCH   1  16
TORSDOF 5
