REMARK  Name = ZINCrH000004ttkh.0
REMARK                            x       y       z     vdW  Elec       q    Type
REMARK                         _______ _______ _______ _____ _____    ______ ____
ROOT
ATOM      1  N   LIG    1        1.163   3.495   0.010  0.00  0.00    -0.670 N 
ATOM      2  H   LIG    1        0.321   3.972  -0.057  0.00  0.00    +0.420 HD
ATOM      3  C   LIG    1        2.320   4.179   0.104  0.00  0.00    +0.510 C 
ATOM      4  O   LIG    1        3.378   3.587   0.091  0.00  0.00    -0.480 OA
ENDROOT
BRANCH   1   9
ATOM      5  C   LIG    1        2.139   0.015   0.739  0.00  0.00    -0.120 A 
ATOM      6  C   LIG    1        1.187  -0.681  -0.008  0.00  0.00    +0.030 A 
ATOM      7  C   LIG    1        0.242   0.010  -0.738  0.00  0.00    +0.030 A 
ATOM      8  C   LIG    1        0.233   1.393  -0.733  0.00  0.00    +0.010 A 
ATOM      9  C   LIG    1        1.176   2.095   0.008  0.00  0.00    +0.140 A 
ATOM     10  C   LIG    1        2.130   1.410   0.744  0.00  0.00    +0.090 A 
BRANCH   5  14
ATOM     11  N   LIG    1        3.159  -2.071   1.516  0.00  0.00    -0.850 N 
ATOM     12  H   LIG    1        3.824  -2.555   2.030  0.00  0.00    +0.410 HD
ATOM     13  H   LIG    1        2.498  -2.556   0.997  0.00  0.00    +0.400 HD
ATOM     14  C   LIG    1        3.152  -0.723   1.523  0.00  0.00    +0.560 C 
ATOM     15  O   LIG    1        3.980  -0.114   2.173  0.00  0.00    -0.530 OA
ENDBRANCH   5  14
ENDBRANCH   1   9
BRANCH   3  16
ATOM     16  C   LIG    1        2.299   5.681   0.226  0.00  0.00    +0.240 C 
BRANCH  16  17
ATOM     17  O   LIG    1        3.639   6.171   0.310  0.00  0.00    -0.290 OA
BRANCH  17  18
ATOM     18  C   LIG    1        3.798   7.517   0.425  0.00  0.00    +0.110 A 
ATOM     19  C   LIG    1        5.068   8.057   0.518  0.00  0.00    +0.050 A 
ATOM     20  C   LIG    1        5.224   9.435   0.631  0.00  0.00    -0.080 A 
ATOM     21  C   LIG    1        4.102  10.273   0.662  0.00  0.00    +0.050 A 
ATOM     22  O   LIG    1        4.525  11.552   0.782  0.00  0.00    -0.200 OA
ATOM     23  C   LIG    1        5.873  11.626   0.834  0.00  0.00    +0.090 A 
ATOM     24  C   LIG    1        6.747  12.700   0.951  0.00  0.00    +0.020 A 
ATOM     25  C   LIG    1        8.108  12.484   0.979  0.00  0.00    +0.060 A 
ATOM     26  C   LIG    1        8.620  11.199   0.891  0.00  0.00    +0.000 A 
ATOM     27  C   LIG    1        7.769  10.121   0.773  0.00  0.00    +0.070 A 
ATOM     28  C   LIG    1        2.833   9.714   0.573  0.00  0.00    +0.070 A 
ATOM     29  C   LIG    1        6.394  10.328   0.744  0.00  0.00    -0.130 A 
ATOM     30  C   LIG    1        2.685   8.348   0.456  0.00  0.00    -0.030 A 
ENDBRANCH  17  18
ENDBRANCH  16  17
ENDBRANCH   3  16
TORSDOF 5
