REMARK  Name = ZINCrD00000hQ5va.0
REMARK                            x       y       z     vdW  Elec       q    Type
REMARK                         _______ _______ _______ _____ _____    ______ ____
ROOT
ATOM      1  C   LIG    1       -4.904   0.880  -0.081  0.00  0.00    +0.220 C 
ATOM      2  C   LIG    1       -4.514   0.048  -1.327  0.00  0.00    +0.040 C 
ATOM      3  C   LIG    1       -4.961   0.964  -2.498  0.00  0.00    +0.010 C 
ATOM      4  C   LIG    1       -6.279   1.596  -2.005  0.00  0.00    +0.020 C 
ATOM      5  C   LIG    1       -6.243   1.543  -0.468  0.00  0.00    +0.040 C 
ENDROOT
BRANCH   1   6
ATOM      6  C   LIG    1       -5.086  -0.017   1.117  0.00  0.00    -0.070 A 
ATOM      7  C   LIG    1       -5.696  -1.248   0.970  0.00  0.00    +0.020 A 
ATOM      8  C   LIG    1       -5.861  -2.076   2.065  0.00  0.00    +0.030 A 
ATOM      9  C   LIG    1       -5.425  -1.667   3.316  0.00  0.00    +0.050 A 
ATOM     10  O   LIG    1       -5.602  -2.489   4.386  0.00  0.00    -0.310 OA
ATOM     11  C   LIG    1       -4.817  -2.207   5.551  0.00  0.00    +0.220 C 
ATOM     12  C   LIG    1       -4.891  -0.699   5.826  0.00  0.00    +0.220 C 
ATOM     13  O   LIG    1       -4.374  -0.009   4.683  0.00  0.00    -0.310 OA
ATOM     14  C   LIG    1       -4.815  -0.427   3.465  0.00  0.00    +0.050 A 
ATOM     15  C   LIG    1       -4.648   0.396   2.361  0.00  0.00    +0.030 A 
ENDBRANCH   1   6
BRANCH   1  18
ATOM     16  O   LIG    1       -2.309   0.357   0.447  0.00  0.00    -0.520 OA
ATOM     17  C   LIG    1       -2.607   1.536   0.397  0.00  0.00    +0.570 C 
ATOM     18  N   LIG    1       -3.888   1.899   0.194  0.00  0.00    -0.710 N 
ATOM     19  H   LIG    1       -4.138   2.836   0.229  0.00  0.00    +0.400 HD
BRANCH  17  20
ATOM     20  C   LIG    1       -1.564   2.567   0.560  0.00  0.00    -0.170 A 
ATOM     21  C   LIG    1       -0.266   2.199   0.766  0.00  0.00    +0.320 A 
ATOM     22  N   LIG    1        0.704   3.140   0.912  0.00  0.00    -0.370 N 
ATOM     23  C   LIG    1        2.055   3.052   1.120  0.00  0.00    +0.100 A 
ATOM     24  C   LIG    1        2.531   4.313   1.189  0.00  0.00    +0.230 A 
ATOM     25  N   LIG    1        1.513   5.163   1.029  0.00  0.00    -0.490 NA
ATOM     26  C   LIG    1        0.393   4.476   0.860  0.00  0.00    +0.230 A 
ATOM     27  C   LIG    1       -0.944   4.880   0.653  0.00  0.00    +0.080 A 
ATOM     28  C   LIG    1       -1.910   3.940   0.507  0.00  0.00    +0.060 A 
ENDBRANCH  17  20
ENDBRANCH   1  18
TORSDOF 3
