REMARK  Name = ZINCrD00000hQ5Va.1
REMARK                            x       y       z     vdW  Elec       q    Type
REMARK                         _______ _______ _______ _____ _____    ______ ____
ROOT
ATOM      1  C   LIG    1        2.350   1.388  -0.014  0.00  0.00    +0.460 A 
ATOM      2  C   LIG    1        2.348   0.016   0.130  0.00  0.00    -0.230 A 
ATOM      3  C   LIG    1        3.487  -0.965   0.296  0.00  0.00    +0.110 C 
ATOM      4  C   LIG    1        2.835  -2.253   0.840  0.00  0.00    +0.050 C 
ATOM      5  C   LIG    1        1.391  -2.151   0.305  0.00  0.00    +0.130 C 
ATOM      6  C   LIG    1        1.134  -0.668   0.135  0.00  0.00    +0.220 A 
ATOM      7  N   LIG    1        0.002  -0.004   0.002  0.00  0.00    -0.480 NA
ATOM      8  C   LIG    1       -0.013   1.325  -0.138  0.00  0.00    +0.300 A 
ATOM      9  C   LIG    1       -1.055   2.248  -0.287  0.00  0.00    -0.210 A 
ATOM     10  C   LIG    1       -0.472   3.517  -0.392  0.00  0.00    +0.130 A 
ATOM     11  N   LIG    1        0.830   3.393  -0.307  0.00  0.00    -0.310 NA
ATOM     12  C   LIG    1       -1.220   4.814  -0.569  0.00  0.00    +0.160 C 
ATOM     13  N   LIG    1        1.154   2.042  -0.148  0.00  0.00    -0.320 N 
ENDROOT
BRANCH   1  17
ATOM     14  N   LIG    1        5.358   4.118  -0.600  0.00  0.00    -0.540 NA
ATOM     15  C   LIG    1        4.252   4.394   0.326  0.00  0.00    +0.170 C 
ATOM     16  C   LIG    1        3.828   3.092   1.013  0.00  0.00    +0.290 C 
ATOM     17  N   LIG    1        3.536   2.090  -0.023  0.00  0.00    -0.640 N 
ATOM     18  C   LIG    1        4.547   1.851  -1.065  0.00  0.00    +0.300 C 
ATOM     19  C   LIG    1        4.939   3.207  -1.674  0.00  0.00    +0.160 C 
BRANCH  14  21
ATOM     20  C   LIG    1        6.877   5.035  -2.288  0.00  0.00    +0.030 C 
ATOM     21  C   LIG    1        5.907   5.364  -1.151  0.00  0.00    +0.160 C 
ENDBRANCH  14  21
ENDBRANCH   1  17
BRANCH   9  22
ATOM     22  C   LIG    1       -2.503   1.940  -0.330  0.00  0.00    +0.020 A 
ATOM     23  C   LIG    1       -3.029   1.191  -1.382  0.00  0.00    +0.020 A 
ATOM     24  C   LIG    1       -4.378   0.903  -1.413  0.00  0.00    +0.000 A 
ATOM     25  C   LIG    1       -5.210   1.365  -0.409  0.00  0.00    +0.000 A 
ATOM     26  C   LIG    1       -4.695   2.113   0.635  0.00  0.00    +0.000 A 
ATOM     27  C   LIG    1       -3.347   2.404   0.680  0.00  0.00    +0.010 A 
ENDBRANCH   9  22
TORSDOF 3
