REMARK  Name = ZINCqH000003245p.0
REMARK                            x       y       z     vdW  Elec       q    Type
REMARK                         _______ _______ _______ _____ _____    ______ ____
ROOT
ATOM      1  C   LIG    1       -0.006   1.520   2.490  0.00  0.00    +0.530 C 
ATOM      2  N   LIG    1       -0.459   1.833   3.720  0.00  0.00    -0.620 N 
ATOM      3  C   LIG    1       -1.650   2.650   4.015  0.00  0.00    +0.260 C 
ATOM      4  C   LIG    1       -1.398   3.221   5.433  0.00  0.00    +0.060 C 
ATOM      5  C   LIG    1       -0.692   2.027   6.128  0.00  0.00    -0.010 C 
ATOM      6  C   LIG    1        0.149   1.410   4.990  0.00  0.00    +0.280 C 
ATOM      7  O   LIG    1        0.988   0.837   2.366  0.00  0.00    -0.520 OA
ENDROOT
BRANCH   5   8
ATOM      8  C   LIG    1        0.191   2.510   7.251  0.00  0.00    +0.540 C 
ATOM      9  N   LIG    1       -0.348   3.168   8.296  0.00  0.00    -0.620 N 
ATOM     10  C   LIG    1       -1.773   3.487   8.465  0.00  0.00    +0.230 C 
ATOM     11  C   LIG    1       -1.915   4.264   9.791  0.00  0.00    +0.040 C 
ATOM     12  C   LIG    1       -0.490   4.838  10.008  0.00  0.00    +0.040 C 
ATOM     13  C   LIG    1        0.395   3.692   9.456  0.00  0.00    +0.250 C 
ATOM     14  O   LIG    1        1.386   2.306   7.213  0.00  0.00    -0.530 OA
ENDBRANCH   5   8
BRANCH   1  15
ATOM     15  C   LIG    1       -0.735   2.019   1.269  0.00  0.00    +0.050 C 
BRANCH  15  17
ATOM     16  C   LIG    1        0.002  -0.004   0.002  0.00  0.00    +0.030 C 
ATOM     17  C   LIG    1       -0.019   1.526   0.010  0.00  0.00    -0.040 C 
ATOM     18  C   LIG    1        1.417   2.055  -0.000  0.00  0.00    +0.030 C 
BRANCH  17  19
ATOM     19  C   LIG    1       -0.759   2.033  -1.229  0.00  0.00    +0.090 C 
BRANCH  19  20
ATOM     20  C   LIG    1       -0.053   1.547  -2.469  0.00  0.00    -0.070 A 
ATOM     21  C   LIG    1        0.944   2.313  -3.042  0.00  0.00    +0.030 A 
ATOM     22  C   LIG    1        1.595   1.865  -4.176  0.00  0.00    +0.020 A 
ATOM     23  C   LIG    1        1.241   0.655  -4.744  0.00  0.00    -0.040 A 
ATOM     24  C   LIG    1        0.239  -0.109  -4.173  0.00  0.00    +0.020 A 
ATOM     25 CL   LIG    1        2.054   0.095  -6.172  0.00  0.00    -0.070 Cl
ATOM     26  C   LIG    1       -0.408   0.337  -3.036  0.00  0.00    +0.030 A 
ENDBRANCH  19  20
ENDBRANCH  17  19
ENDBRANCH  15  17
ENDBRANCH   1  15
TORSDOF 5
