REMARK  Name = ZINCqH0000034FBq.0
REMARK                            x       y       z     vdW  Elec       q    Type
REMARK                         _______ _______ _______ _____ _____    ______ ____
ROOT
ATOM      1  C   LIG    1       -1.050  -2.351  -2.072  0.00  0.00    +0.280 C 
ATOM      2  N   LIG    1       -1.609  -1.193  -1.370  0.00  0.00    -0.610 N 
ATOM      3  C   LIG    1       -2.494  -0.390  -1.992  0.00  0.00    +0.520 C 
ATOM      4  O   LIG    1       -2.956   0.569  -1.411  0.00  0.00    -0.510 OA
ENDROOT
BRANCH   3   5
ATOM      5  C   LIG    1       -2.910  -0.684  -3.411  0.00  0.00    +0.220 C 
BRANCH   5   6
ATOM      6  O   LIG    1       -3.849   0.302  -3.846  0.00  0.00    -0.290 OA
BRANCH   6   7
ATOM      7  C   LIG    1       -4.327   0.181  -5.112  0.00  0.00    +0.140 A 
ATOM      8  C   LIG    1       -3.897  -0.860  -5.921  0.00  0.00    -0.070 A 
ATOM      9  C   LIG    1       -4.390  -0.985  -7.206  0.00  0.00    +0.070 A 
ATOM     10  C   LIG    1       -5.301  -0.065  -7.691  0.00  0.00    +0.010 A 
ATOM     11  C   LIG    1       -5.727   0.979  -6.888  0.00  0.00    -0.050 A 
ATOM     12 BR   LIG    1       -6.973   2.236  -7.554  0.00  0.00    -0.040 Br
ATOM     13  C   LIG    1       -5.242   1.104  -5.600  0.00  0.00    +0.020 A 
ENDBRANCH   6   7
ENDBRANCH   5   6
ENDBRANCH   3   5
BRANCH   2  14
ATOM     14  C   LIG    1       -1.204  -0.907   0.009  0.00  0.00    +0.380 C 
BRANCH  14  15
ATOM     15  C   LIG    1        0.002  -0.004   0.002  0.00  0.00    -0.260 A 
ATOM     16  C   LIG    1        1.295  -0.403  -0.013  0.00  0.00    +0.240 A 
ATOM     17  N   LIG    1        2.067   0.704  -0.014  0.00  0.00    -0.370 N 
ATOM     18  N   LIG    1        1.220   1.820   0.000  0.00  0.00    -0.290 NA
ATOM     19  C   LIG    1       -0.017   1.395   0.010  0.00  0.00    +0.250 A 
BRANCH  17  20
ATOM     20  C   LIG    1        3.532   0.734  -0.028  0.00  0.00    +0.370 C 
BRANCH  20  21
ATOM     21  C   LIG    1        4.006   1.565  -1.192  0.00  0.00    -0.110 A 
ATOM     22  C   LIG    1        4.243   0.968  -2.416  0.00  0.00    +0.020 A 
ATOM     23  C   LIG    1        4.673   1.731  -3.485  0.00  0.00    +0.000 A 
ATOM     24  C   LIG    1        4.878   3.089  -3.327  0.00  0.00    +0.010 A 
ATOM     25  C   LIG    1        4.647   3.685  -2.101  0.00  0.00    +0.010 A 
ATOM     26  C   LIG    1        4.211   2.922  -1.034  0.00  0.00    +0.040 A 
ENDBRANCH  20  21
ENDBRANCH  17  20
ENDBRANCH  14  15
ENDBRANCH   2  14
TORSDOF 7
