REMARK  Name = ZINCAx00000009Dd.0
REMARK                            x       y       z     vdW  Elec       q    Type
REMARK                         _______ _______ _______ _____ _____    ______ ____
ROOT
ATOM      1  N   LIG    1       -2.707  -4.021   0.009  0.00  0.00    -0.620 N 
ATOM      2  H   LIG    1       -1.961  -4.640  -0.001  0.00  0.00    +0.430 HD
ATOM      3  C   LIG    1       -3.971  -4.488   0.020  0.00  0.00    +0.520 C 
ATOM      4  O   LIG    1       -4.904  -3.713   0.033  0.00  0.00    -0.480 OA
ENDROOT
BRANCH   1   8
ATOM      5  C   LIG    1       -1.270  -0.766   0.011  0.00  0.00    +0.140 A 
ATOM      6  C   LIG    1       -2.471  -0.160   0.031  0.00  0.00    -0.110 A 
ATOM      7  S   LIG    1       -3.717  -1.405   0.032  0.00  0.00    +0.200 S 
ATOM      8  C   LIG    1       -2.473  -2.651   0.013  0.00  0.00    +0.270 A 
ATOM      9  N   LIG    1       -1.303  -2.091   0.004  0.00  0.00    -0.470 NA
BRANCH   5  14
ATOM     10  C   LIG    1        1.175   2.095   0.002  0.00  0.00    +0.090 A 
ATOM     11  C   LIG    1        2.385   1.417  -0.014  0.00  0.00    -0.030 A 
ATOM     12  C   LIG    1        2.410   0.035  -0.021  0.00  0.00    -0.040 A 
ATOM     13  C   LIG    1        1.225  -0.681  -0.013  0.00  0.00    +0.120 A 
ATOM     14  C   LIG    1        0.002  -0.004   0.002  0.00  0.00    -0.020 A 
ATOM     15  C   LIG    1       -0.017   1.388   0.010  0.00  0.00    +0.040 A 
BRANCH  10  17
ATOM     16  C   LIG    1        2.423   4.119   0.001  0.00  0.00    +0.250 C 
ATOM     17  O   LIG    1        1.158   3.454   0.010  0.00  0.00    -0.320 OA
ENDBRANCH  10  17
BRANCH  13  18
ATOM     18  O   LIG    1        1.251  -2.041  -0.020  0.00  0.00    -0.280 OA
ATOM     19  C   LIG    1        2.536  -2.665  -0.036  0.00  0.00    +0.220 C 
ENDBRANCH  13  18
ENDBRANCH   5  14
ENDBRANCH   1   8
BRANCH   3  20
ATOM     20  C   LIG    1       -4.225  -5.973   0.015  0.00  0.00    +0.300 C 
BRANCH  20  21
ATOM     21  O   LIG    1       -5.656  -6.220   0.028  0.00  0.00    -0.320 OA
BRANCH  21  22
ATOM     22  C   LIG    1       -6.054  -7.502   0.026  0.00  0.00    +0.470 C 
ATOM     23  O   LIG    1       -5.234  -8.389   0.014  0.00  0.00    -0.500 OA
BRANCH  22  24
ATOM     24  C   LIG    1       -7.524  -7.834   0.039  0.00  0.00    +0.370 C 
BRANCH  24  25
ATOM     25  N   LIG    1       -7.695  -9.289   0.034  0.00  0.00    -0.720 N 
ATOM     26  H   LIG    1       -6.918  -9.869   0.024  0.00  0.00    +0.410 HD
ATOM     27  C   LIG    1       -8.933  -9.822   0.044  0.00  0.00    +0.570 C 
ATOM     28  O   LIG    1       -9.908  -9.095   0.057  0.00  0.00    -0.530 OA
BRANCH  27  29
ATOM     29  C   LIG    1       -9.105 -11.288   0.039  0.00  0.00    -0.140 A 
ATOM     30  C   LIG    1       -7.987 -12.124   0.024  0.00  0.00    +0.050 A 
ATOM     31  C   LIG    1       -8.150 -13.493   0.019  0.00  0.00    -0.040 A 
ATOM     32  C   LIG    1       -9.424 -14.044   0.029  0.00  0.00    +0.130 A 
ATOM     33  C   LIG    1      -10.545 -13.214   0.044  0.00  0.00    +0.090 A 
ATOM     34  C   LIG    1      -10.389 -11.842   0.055  0.00  0.00    +0.040 A 
BRANCH  33  35
ATOM     35  O   LIG    1      -11.792 -13.757   0.054  0.00  0.00    -0.300 OA
ATOM     36  C   LIG    1      -12.895 -12.848   0.069  0.00  0.00    +0.240 C 
ENDBRANCH  33  35
BRANCH  32  37
ATOM     37  O   LIG    1       -9.579 -15.393   0.024  0.00  0.00    -0.300 OA
ATOM     38  C   LIG    1       -8.388 -16.183   0.009  0.00  0.00    +0.240 C 
ENDBRANCH  32  37
ENDBRANCH  27  29
ENDBRANCH  24  25
ENDBRANCH  22  24
ENDBRANCH  21  22
ENDBRANCH  20  21
ENDBRANCH   3  20
TORSDOF 12
