REMARK  Name = ZINCpk00000y6vFb.0
REMARK                            x       y       z     vdW  Elec       q    Type
REMARK                         _______ _______ _______ _____ _____    ______ ____
ROOT
ATOM      1  N   LIG    1        2.083   2.829   2.529  0.00  0.00    -0.530 NA
ATOM      2  C   LIG    1        1.379   4.014   3.040  0.00  0.00    +0.200 C 
ATOM      3  C   LIG    1        2.146   5.274   2.634  0.00  0.00    +0.200 C 
ATOM      4  N   LIG    1        3.513   5.207   3.168  0.00  0.00    -0.540 NA
ATOM      5  C   LIG    1        4.217   4.022   2.657  0.00  0.00    +0.280 C 
ATOM      6  C   LIG    1        4.259   6.435   2.863  0.00  0.00    +0.200 C 
ATOM      7  C   LIG    1        3.451   2.762   3.064  0.00  0.00    +0.200 C 
ENDROOT
BRANCH   5   8
ATOM      8  C   LIG    1        5.607   3.974   3.237  0.00  0.00    +0.190 A 
ATOM      9  N   LIG    1        6.717   3.718   2.587  0.00  0.00    -0.470 NA
ATOM     10  C   LIG    1        7.698   3.783   3.504  0.00  0.00    +0.200 A 
ATOM     11  N   LIG    1        7.146   4.071   4.645  0.00  0.00    -0.380 NA
ATOM     12  O   LIG    1        5.946   4.190   4.512  0.00  0.00    +0.100 OA
BRANCH  10  13
ATOM     13  C   LIG    1        9.168   3.564   3.255  0.00  0.00    +0.060 C 
ATOM     14  C   LIG    1       10.088   3.487   4.475  0.00  0.00    +0.050 C 
ATOM     15  C   LIG    1       10.118   4.721   3.571  0.00  0.00    +0.050 C 
ENDBRANCH  10  13
ENDBRANCH   5   8
BRANCH   1  16
ATOM     16  C   LIG    1        1.337   1.601   2.835  0.00  0.00    +0.270 C 
BRANCH  16  18
ATOM     17  C   LIG    1       -1.078   2.272   3.331  0.00  0.00    +0.260 A 
ATOM     18  C   LIG    1       -0.117   1.799   2.494  0.00  0.00    -0.240 A 
ATOM     19  C   LIG    1       -0.718   1.529   1.261  0.00  0.00    +0.100 A 
ATOM     20  N   LIG    1       -1.988   1.831   1.349  0.00  0.00    -0.280 NA
ATOM     21  C   LIG    1       -0.022   0.989   0.039  0.00  0.00    +0.160 C 
ATOM     22  N   LIG    1       -2.242   2.297   2.645  0.00  0.00    -0.380 N 
ATOM     23  C   LIG    1       -3.539   2.737   3.164  0.00  0.00    +0.350 C 
BRANCH  17  25
ATOM     24  C   LIG    1       -1.109   1.654   5.626  0.00  0.00    +0.240 C 
ATOM     25  O   LIG    1       -0.901   2.651   4.623  0.00  0.00    -0.310 OA
ENDBRANCH  17  25
ENDBRANCH  16  18
ENDBRANCH   1  16
TORSDOF 5
