REMARK  Name = ZINCtj00000nxLkC.1
REMARK                            x       y       z     vdW  Elec       q    Type
REMARK                         _______ _______ _______ _____ _____    ______ ____
ROOT
ATOM      1  C   LIG    1        1.344   4.002  -0.205  0.00  0.00    +0.140 C 
ATOM      2  C   LIG    1        0.713   5.003   0.781  0.00  0.00    +0.290 C 
ATOM      3  N   LIG    1        0.736   6.330   0.127  0.00  0.00    -0.390 N 
ATOM      4  C   LIG    1        1.853   6.279  -0.851  0.00  0.00    +0.310 C 
ATOM      5  H   LIG    1       -0.137   6.498  -0.351  0.00  0.00    +0.420 HD
ATOM      6  C   LIG    1        1.750   4.847  -1.434  0.00  0.00    -0.010 C 
ENDROOT
BRANCH   6   7
ATOM      7  C   LIG    1        3.081   4.395  -1.976  0.00  0.00    +0.530 C 
ATOM      8  N   LIG    1        3.410   4.653  -3.257  0.00  0.00    -0.610 N 
ATOM      9  C   LIG    1        4.656   4.129  -3.839  0.00  0.00    +0.270 C 
ATOM     10  C   LIG    1        4.309   3.431  -5.165  0.00  0.00    +0.230 C 
ATOM     11  O   LIG    1        3.554   4.328  -5.983  0.00  0.00    -0.370 OA
ATOM     12  C   LIG    1        2.296   4.713  -5.423  0.00  0.00    +0.220 C 
ATOM     13  C   LIG    1        2.537   5.471  -4.113  0.00  0.00    +0.250 C 
ATOM     14  O   LIG    1        3.857   3.799  -1.258  0.00  0.00    -0.510 OA
ENDBRANCH   6   7
BRANCH   1  19
ATOM     15  C   LIG    1       -2.944   1.641  -1.315  0.00  0.00    +0.340 C 
ATOM     16  N   LIG    1       -1.527   1.929  -1.082  0.00  0.00    -0.450 N 
ATOM     17  C   LIG    1       -0.501   1.061  -1.214  0.00  0.00    +0.410 A 
ATOM     18  N   LIG    1        0.611   1.681  -0.928  0.00  0.00    -0.470 NA
ATOM     19  C   LIG    1        0.337   2.953  -0.601  0.00  0.00    -0.010 A 
ATOM     20  C   LIG    1       -0.996   3.127  -0.687  0.00  0.00    +0.110 A 
ENDBRANCH   1  19
BRANCH   3  21
ATOM     21  C   LIG    1        0.981   7.381   1.122  0.00  0.00    +0.360 C 
BRANCH  21  22
ATOM     22  C   LIG    1        0.933   8.730   0.451  0.00  0.00    +0.050 A 
ATOM     23  C   LIG    1       -0.244   9.454   0.457  0.00  0.00    +0.010 A 
ATOM     24  C   LIG    1       -0.275  10.693  -0.165  0.00  0.00    +0.090 A 
ATOM     25  C   LIG    1        0.883  11.159  -0.770  0.00  0.00    -0.110 A 
ATOM     26  C   LIG    1        1.157  12.447  -1.513  0.00  0.00    +0.100 C 
ATOM     27  C   LIG    1        2.695  12.569  -1.553  0.00  0.00    +0.050 C 
ATOM     28  C   LIG    1        3.147  11.096  -1.462  0.00  0.00    +0.110 C 
ATOM     29  C   LIG    1        2.025  10.381  -0.739  0.00  0.00    +0.130 A 
ATOM     30  N   LIG    1        2.014   9.206  -0.131  0.00  0.00    -0.460 NA
ENDBRANCH  21  22
ENDBRANCH   3  21
TORSDOF 4
