REMARK  Name = ZINCtj00000nxLkC.0
REMARK                            x       y       z     vdW  Elec       q    Type
REMARK                         _______ _______ _______ _____ _____    ______ ____
ROOT
ATOM      1  C   LIG    1        5.585  -0.857   1.906  0.00  0.00    +0.130 C 
ATOM      2  C   LIG    1        6.505  -0.637   0.686  0.00  0.00    +0.290 C 
ATOM      3  N   LIG    1        5.626  -0.023  -0.342  0.00  0.00    -0.390 N 
ATOM      4  C   LIG    1        4.769   0.917   0.426  0.00  0.00    +0.270 C 
ATOM      5  H   LIG    1        5.061  -0.729  -0.790  0.00  0.00    +0.430 HD
ATOM      6  C   LIG    1        4.442   0.166   1.735  0.00  0.00    +0.030 C 
ENDROOT
BRANCH   6   7
ATOM      7  C   LIG    1        3.119  -0.544   1.615  0.00  0.00    +0.510 C 
ATOM      8  N   LIG    1        1.992   0.164   1.399  0.00  0.00    -0.610 N 
ATOM      9  C   LIG    1        0.688  -0.507   1.278  0.00  0.00    +0.270 C 
ATOM     10  C   LIG    1        0.002  -0.004   0.002  0.00  0.00    +0.230 C 
ATOM     11  O   LIG    1       -0.017   1.425   0.010  0.00  0.00    -0.370 OA
ATOM     12  C   LIG    1        1.279   2.028   0.001  0.00  0.00    +0.210 C 
ATOM     13  C   LIG    1        2.030   1.630   1.276  0.00  0.00    +0.240 C 
ATOM     14  O   LIG    1        3.067  -1.751   1.712  0.00  0.00    -0.510 OA
ENDBRANCH   6   7
BRANCH   1  19
ATOM     15  C   LIG    1        8.812   0.980   5.283  0.00  0.00    +0.340 C 
ATOM     16  N   LIG    1        7.740   0.208   4.650  0.00  0.00    -0.450 N 
ATOM     17  C   LIG    1        6.954  -0.712   5.249  0.00  0.00    +0.410 A 
ATOM     18  N   LIG    1        6.114  -1.182   4.367  0.00  0.00    -0.470 NA
ATOM     19  C   LIG    1        6.338  -0.592   3.184  0.00  0.00    -0.010 A 
ATOM     20  C   LIG    1        7.349   0.284   3.340  0.00  0.00    +0.120 A 
ENDBRANCH   1  19
BRANCH   3  21
ATOM     21  C   LIG    1        6.426   0.705  -1.335  0.00  0.00    +0.360 C 
BRANCH  21  22
ATOM     22  C   LIG    1        5.515   1.293  -2.381  0.00  0.00    +0.060 A 
ATOM     23  C   LIG    1        5.079   2.598  -2.251  0.00  0.00    +0.000 A 
ATOM     24  C   LIG    1        4.245   3.128  -3.223  0.00  0.00    +0.090 A 
ATOM     25  C   LIG    1        3.871   2.321  -4.287  0.00  0.00    -0.110 A 
ATOM     26  C   LIG    1        2.983   2.607  -5.478  0.00  0.00    +0.100 C 
ATOM     27  C   LIG    1        2.610   1.220  -6.044  0.00  0.00    +0.050 C 
ATOM     28  C   LIG    1        3.801   0.347  -5.595  0.00  0.00    +0.110 C 
ATOM     29  C   LIG    1        4.342   1.023  -4.351  0.00  0.00    +0.130 A 
ATOM     30  N   LIG    1        5.140   0.556  -3.406  0.00  0.00    -0.460 NA
ENDBRANCH  21  22
ENDBRANCH   3  21
TORSDOF 4
