REMARK  Name = ZINCqH000000511D.0
REMARK                            x       y       z     vdW  Elec       q    Type
REMARK                         _______ _______ _______ _____ _____    ______ ____
ROOT
ATOM      1  N   LIG    1       -0.900   1.767  -6.550  0.00  0.00    -0.670 N 
ATOM      2  H   LIG    1       -1.336   2.624  -6.418  0.00  0.00    +0.420 HD
ATOM      3  C   LIG    1       -0.870   0.866  -5.548  0.00  0.00    +0.530 C 
ATOM      4  O   LIG    1       -0.399  -0.236  -5.737  0.00  0.00    -0.490 OA
ENDROOT
BRANCH   1   8
ATOM      5  C   LIG    1        0.880   0.875 -10.209  0.00  0.00    -0.150 A 
ATOM      6  C   LIG    1       -0.266   1.674 -10.164  0.00  0.00    +0.100 A 
ATOM      7  C   LIG    1       -0.852   1.966  -8.953  0.00  0.00    -0.020 A 
ATOM      8  C   LIG    1       -0.304   1.468  -7.774  0.00  0.00    +0.170 A 
ATOM      9  C   LIG    1        0.840   0.677  -7.816  0.00  0.00    +0.010 A 
ATOM     10  C   LIG    1        1.427   0.376  -9.024  0.00  0.00    +0.070 A 
BRANCH   5  13
ATOM     11  C   LIG    1        3.423  -0.170 -12.827  0.00  0.00    +0.290 C 
ATOM     12  N   LIG    1        2.821   0.248 -11.559  0.00  0.00    -0.620 N 
ATOM     13  C   LIG    1        1.511   0.560 -11.505  0.00  0.00    +0.560 C 
ATOM     14  O   LIG    1        0.849   0.582 -12.525  0.00  0.00    -0.530 OA
ATOM     15  C   LIG    1        3.643   0.327 -10.348  0.00  0.00    +0.280 C 
ENDBRANCH   5  13
ENDBRANCH   1   8
BRANCH   3  16
ATOM     16  C   LIG    1       -1.420   1.227  -4.192  0.00  0.00    +0.110 C 
BRANCH  16  17
ATOM     17  S   LIG    1       -1.236  -0.185  -3.069  0.00  0.00    -0.150 S 
BRANCH  17  18
ATOM     18  C   LIG    1       -1.944   0.433  -1.517  0.00  0.00    +0.090 C 
BRANCH  18  19
ATOM     19  C   LIG    1       -1.862  -0.659  -0.449  0.00  0.00    +0.240 C 
BRANCH  19  20
ATOM     20  O   LIG    1       -2.419  -0.172   0.774  0.00  0.00    -0.310 OA
BRANCH  20  21
ATOM     21  C   LIG    1       -2.425  -1.024   1.832  0.00  0.00    +0.140 A 
ATOM     22  C   LIG    1       -1.910  -2.305   1.695  0.00  0.00    -0.060 A 
ATOM     23  C   LIG    1       -1.911  -3.168   2.774  0.00  0.00    +0.080 A 
ATOM     24  C   LIG    1       -2.436  -2.761   3.986  0.00  0.00    -0.010 A 
ATOM     25  C   LIG    1       -2.955  -1.486   4.125  0.00  0.00    +0.000 A 
ATOM     26 CL   LIG    1       -3.612  -0.977   5.649  0.00  0.00    -0.060 Cl
ATOM     27  C   LIG    1       -2.950  -0.617   3.050  0.00  0.00    -0.010 A 
ENDBRANCH  20  21
ENDBRANCH  19  20
ENDBRANCH  18  19
ENDBRANCH  17  18
ENDBRANCH  16  17
ENDBRANCH   3  16
TORSDOF 8
