REMARK  Name = ZINCrD000000CIRi.0
REMARK                            x       y       z     vdW  Elec       q    Type
REMARK                         _______ _______ _______ _____ _____    ______ ____
ROOT
ATOM      1  C   LIG    1       -2.482   2.386  -0.935  0.00  0.00    +0.190 A 
ATOM      2  N   LIG    1       -1.632   1.653  -1.624  0.00  0.00    -0.230 NA
ATOM      3  N   LIG    1       -0.358   1.881  -1.080  0.00  0.00    -0.320 N 
ATOM      4  C   LIG    1       -0.532   2.768  -0.055  0.00  0.00    +0.370 A 
ATOM      5  N   LIG    1       -1.815   3.061   0.010  0.00  0.00    -0.490 NA
ENDROOT
BRANCH   1   7
ATOM      6  O   LIG    1       -4.466   1.694  -1.959  0.00  0.00    -0.500 OA
ATOM      7  C   LIG    1       -3.941   2.452  -1.167  0.00  0.00    +0.610 C 
ATOM      8  N   LIG    1       -4.689   3.354  -0.500  0.00  0.00    -0.580 N 
ATOM      9  C   LIG    1       -4.056   4.361   0.362  0.00  0.00    +0.280 C 
ATOM     10  C   LIG    1       -4.550   5.751  -0.066  0.00  0.00    +0.010 C 
ATOM     11  C   LIG    1       -6.080   5.774  -0.039  0.00  0.00    +0.020 C 
ATOM     12  C   LIG    1       -6.624   4.743  -1.031  0.00  0.00    +0.020 C 
ATOM     13  C   LIG    1       -6.154   3.345  -0.618  0.00  0.00    +0.230 C 
BRANCH  13  14
ATOM     14  C   LIG    1       -6.577   2.324  -1.676  0.00  0.00    +0.060 C 
BRANCH  14  15
ATOM     15  C   LIG    1       -8.104   2.272  -1.752  0.00  0.00    +0.150 C 
BRANCH  15  16
ATOM     16  O   LIG    1       -8.501   1.236  -2.654  0.00  0.00    -0.570 OA
ATOM     17  H   LIG    1       -9.459   1.145  -2.751  0.00  0.00    +0.380 HD
ENDBRANCH  15  16
ENDBRANCH  14  15
ENDBRANCH  13  14
ENDBRANCH   1   7
BRANCH   3  18
ATOM     18  C   LIG    1        0.849   1.310  -1.500  0.00  0.00    +0.120 A 
ATOM     19  C   LIG    1        1.980   2.102  -1.646  0.00  0.00    +0.020 A 
ATOM     20  C   LIG    1        3.168   1.536  -2.066  0.00  0.00    +0.040 A 
ATOM     21  C   LIG    1        3.232   0.182  -2.340  0.00  0.00    +0.040 A 
ATOM     22  C   LIG    1        2.108  -0.609  -2.196  0.00  0.00    +0.040 A 
ATOM     23  C   LIG    1        0.917  -0.050  -1.776  0.00  0.00    +0.050 A 
ENDBRANCH   3  18
BRANCH   4  24
ATOM     24  C   LIG    1        0.524   3.302   0.818  0.00  0.00    -0.170 A 
ATOM     25  C   LIG    1        0.411   4.398   1.601  0.00  0.00    +0.110 A 
ATOM     26  C   LIG    1        1.538   4.703   2.331  0.00  0.00    +0.000 A 
ATOM     27  C   LIG    1        2.570   3.871   2.155  0.00  0.00    -0.030 A 
ATOM     28  S   LIG    1        2.130   2.609   1.012  0.00  0.00    +0.170 S 
ENDBRANCH   4  24
TORSDOF 6
