REMARK  Name = ZINCpe00000MJJLw.0
REMARK                            x       y       z     vdW  Elec       q    Type
REMARK                         _______ _______ _______ _____ _____    ______ ____
ROOT
ATOM      1  O   LIG    1       -8.382   4.390  -2.627  0.00  0.00    -0.520 OA
ATOM      2  C   LIG    1       -8.320   3.242  -2.240  0.00  0.00    +0.500 C 
ATOM      3  N   LIG    1       -7.220   2.808  -1.593  0.00  0.00    -0.730 N 
ATOM      4  H   LIG    1       -7.170   1.890  -1.284  0.00  0.00    +0.400 HD
ENDROOT
BRANCH   3   5
ATOM      5  C   LIG    1       -6.100   3.722  -1.358  0.00  0.00    +0.330 C 
BRANCH   5   6
ATOM      6  C   LIG    1       -5.004   2.995  -0.622  0.00  0.00    -0.100 A 
ATOM      7  C   LIG    1       -4.989   2.989   0.760  0.00  0.00    +0.050 A 
ATOM      8  C   LIG    1       -3.986   2.323   1.443  0.00  0.00    +0.020 A 
ATOM      9  C   LIG    1       -2.997   1.662   0.735  0.00  0.00    +0.080 A 
ATOM     10  O   LIG    1       -2.003   1.000   1.396  0.00  0.00    -0.320 OA
ATOM     11  C   LIG    1       -0.696   1.562   1.280  0.00  0.00    +0.230 C 
ATOM     12  C   LIG    1       -0.013   1.086   0.008  0.00  0.00    -0.010 C 
ATOM     13  C   LIG    1       -0.720   1.576  -1.246  0.00  0.00    +0.230 C 
ATOM     14  O   LIG    1       -2.031   1.014  -1.340  0.00  0.00    -0.320 OA
ATOM     15  C   LIG    1       -3.011   1.669  -0.652  0.00  0.00    +0.060 A 
ATOM     16  C   LIG    1       -4.016   2.335  -1.332  0.00  0.00    +0.040 A 
ENDBRANCH   5   6
ENDBRANCH   3   5
BRANCH   2  17
ATOM     17  C   LIG    1       -9.472   2.301  -2.482  0.00  0.00    +0.320 C 
BRANCH  17  18
ATOM     18  N   LIG    1      -10.537   3.008  -3.197  0.00  0.00    -0.590 N 
ATOM     19  C   LIG    1      -10.551   3.013  -4.669  0.00  0.00    +0.280 C 
ATOM     20  C   LIG    1      -10.166   4.411  -5.158  0.00  0.00    +0.020 C 
ATOM     21  C   LIG    1      -11.385   5.312  -5.234  0.00  0.00    +0.010 C 
ATOM     22  C   LIG    1      -11.992   5.637  -3.881  0.00  0.00    +0.060 C 
ATOM     23  C   LIG    1      -12.591   4.382  -3.241  0.00  0.00    +0.180 C 
ATOM     24  C   LIG    1      -11.492   3.639  -2.511  0.00  0.00    +0.490 C 
ATOM     25  O   LIG    1      -11.476   3.620  -1.298  0.00  0.00    -0.530 OA
BRANCH  23  26
ATOM     26  O   LIG    1      -13.613   4.756  -2.314  0.00  0.00    -0.540 OA
ATOM     27  H   LIG    1      -14.035   4.008  -1.871  0.00  0.00    +0.380 HD
ENDBRANCH  23  26
ENDBRANCH  17  18
ENDBRANCH   2  17
TORSDOF 5
