REMARK  Name = ZINCrD0000073CMh.0
REMARK                            x       y       z     vdW  Elec       q    Type
REMARK                         _______ _______ _______ _____ _____    ______ ____
ROOT
ATOM      1  C   LIG    1       -3.579   8.852   1.897  0.00  0.00    +0.560 C 
ATOM      2  N   LIG    1       -2.556   9.001   2.762  0.00  0.00    -0.600 N 
ATOM      3  C   LIG    1       -2.860   9.289   4.177  0.00  0.00    +0.270 C 
ATOM      4  C   LIG    1       -1.950   8.484   5.119  0.00  0.00    +0.040 C 
ATOM      5  C   LIG    1       -1.767   7.083   4.576  0.00  0.00    +0.200 C 
ATOM      6  N   LIG    1       -0.570   7.047   3.738  0.00  0.00    -0.560 NA
ATOM      7  C   LIG    1       -0.743   7.397   2.379  0.00  0.00    +0.180 C 
ATOM      8  C   LIG    1       -1.201   8.871   2.267  0.00  0.00    +0.290 C 
ATOM      9  O   LIG    1       -4.720   8.780   2.311  0.00  0.00    -0.530 OA
ENDROOT
BRANCH   1  14
ATOM     10  C   LIG    1       -3.729   9.555  -1.794  0.00  0.00    +0.130 A 
ATOM     11  C   LIG    1       -2.812   8.633  -2.279  0.00  0.00    -0.060 A 
ATOM     12  C   LIG    1       -2.148   7.787  -1.409  0.00  0.00    +0.050 A 
ATOM     13  C   LIG    1       -2.393   7.854  -0.053  0.00  0.00    -0.010 A 
ATOM     14  C   LIG    1       -3.314   8.778   0.444  0.00  0.00    -0.090 A 
ATOM     15  C   LIG    1       -3.987   9.626  -0.435  0.00  0.00    +0.040 A 
BRANCH  10  17
ATOM     16  C   LIG    1       -4.068  10.250  -4.042  0.00  0.00    +0.250 C 
ATOM     17  O   LIG    1       -4.378  10.383  -2.653  0.00  0.00    -0.310 OA
ENDBRANCH  10  17
ENDBRANCH   1  14
BRANCH   6  18
ATOM     18  C   LIG    1        0.123   5.758   3.866  0.00  0.00    +0.340 C 
BRANCH  18  19
ATOM     19  C   LIG    1        1.532   5.891   3.347  0.00  0.00    +0.190 A 
ATOM     20  N   LIG    1        2.571   6.230   4.054  0.00  0.00    -0.460 NA
ATOM     21  C   LIG    1        3.653   6.237   3.254  0.00  0.00    +0.140 A 
ATOM     22  C   LIG    1        3.249   5.898   2.019  0.00  0.00    -0.030 A 
ATOM     23  O   LIG    1        1.921   5.679   2.083  0.00  0.00    -0.200 OA
BRANCH  22  24
ATOM     24  C   LIG    1        4.118   5.779   0.794  0.00  0.00    +0.020 C 
ATOM     25  C   LIG    1        3.260   5.362  -0.402  0.00  0.00    +0.050 C 
ATOM     26  C   LIG    1        4.778   7.128   0.503  0.00  0.00    +0.050 C 
ATOM     27  C   LIG    1        5.200   4.724   1.037  0.00  0.00    +0.050 C 
ENDBRANCH  22  24
ENDBRANCH  18  19
ENDBRANCH   6  18
TORSDOF 5
