REMARK  Name = ZINCpk00000dFiWD.0
REMARK                            x       y       z     vdW  Elec       q    Type
REMARK                         _______ _______ _______ _____ _____    ______ ____
ROOT
ATOM      1  C   LIG    1       -0.020   1.317   0.000  0.00  0.00    +0.190 A 
ATOM      2  N   LIG    1       -0.007   0.009  -0.012  0.00  0.00    -0.290 NA
ATOM      3  N   LIG    1        1.211  -0.414  -0.024  0.00  0.00    -0.270 NA
ATOM      4  C   LIG    1        2.020   0.599  -0.017  0.00  0.00    +0.150 A 
ATOM      5  C   LIG    1        3.530   0.602  -0.014  0.00  0.00    +0.430 C 
ATOM      6  N   LIG    1        3.958   1.990  -0.266  0.00  0.00    -0.620 N 
ATOM      7  C   LIG    1        3.253   3.072   0.437  0.00  0.00    +0.310 C 
ATOM      8  C   LIG    1        1.786   3.092  -0.009  0.00  0.00    +0.300 C 
ATOM      9  C   LIG    1        4.968   2.260  -1.117  0.00  0.00    +0.540 C 
ATOM     10  O   LIG    1        5.245   3.410  -1.385  0.00  0.00    -0.520 OA
ATOM     11  N   LIG    1        1.264   1.727  -0.007  0.00  0.00    -0.470 N 
ENDROOT
BRANCH   9  12
ATOM     12  C   LIG    1        5.754   1.133  -1.736  0.00  0.00    -0.040 C 
ATOM     13  C   LIG    1        5.190   0.811  -3.125  0.00  0.00    +0.270 C 
ATOM     14  O   LIG    1        5.886  -0.325  -3.641  0.00  0.00    -0.290 OA
ATOM     15  C   LIG    1        7.244  -0.312  -3.593  0.00  0.00    +0.100 A 
ATOM     16  C   LIG    1        7.937   0.558  -2.774  0.00  0.00    -0.120 A 
ATOM     17  C   LIG    1        9.323   0.529  -2.750  0.00  0.00    +0.010 A 
ATOM     18  C   LIG    1       10.017  -0.364  -3.541  0.00  0.00    +0.020 A 
ATOM     19  C   LIG    1        9.330  -1.237  -4.366  0.00  0.00    -0.040 A 
ATOM     20  C   LIG    1        7.947  -1.214  -4.395  0.00  0.00    +0.110 A 
ATOM     21  C   LIG    1        7.218   1.552  -1.897  0.00  0.00    +0.130 C 
BRANCH  20  22
ATOM     22  O   LIG    1        7.271  -2.071  -5.206  0.00  0.00    -0.310 OA
ATOM     23  C   LIG    1        8.052  -2.966  -5.999  0.00  0.00    +0.250 C 
ENDBRANCH  20  22
ENDBRANCH   9  12
BRANCH   1  25
ATOM     24  C   LIG    1       -1.649   2.485   1.461  0.00  0.00    +0.040 C 
ATOM     25  C   LIG    1       -1.241   2.200   0.014  0.00  0.00    +0.140 C 
ENDBRANCH   1  25
TORSDOF 3
