REMARK  Name = ZINCqH0000036sYq.0
REMARK                            x       y       z     vdW  Elec       q    Type
REMARK                         _______ _______ _______ _____ _____    ______ ____
ROOT
ATOM      1  C   LIG    1       -0.079   6.005   0.035  0.00  0.00    +0.560 C 
ATOM      2  N   LIG    1       -1.256   6.662   0.049  0.00  0.00    -0.620 N 
ATOM      3  H   LIG    1       -2.089   6.166   0.055  0.00  0.00    +0.430 HD
ATOM      4  O   LIG    1        0.965   6.627   0.028  0.00  0.00    -0.490 OA
ENDROOT
BRANCH   1   8
ATOM      5  C   LIG    1       -0.022   1.758   0.012  0.00  0.00    -0.630 A 
ATOM      6  C   LIG    1       -1.231   2.430   0.021  0.00  0.00    +0.120 A 
ATOM      7  C   LIG    1       -1.257   3.809   0.035  0.00  0.00    +0.040 A 
ATOM      8  C   LIG    1       -0.059   4.527   0.026  0.00  0.00    -0.080 A 
ATOM      9  C   LIG    1        1.157   3.842   0.011  0.00  0.00    +0.080 A 
ATOM     10  C   LIG    1        1.169   2.463   0.004  0.00  0.00    +0.130 A 
BRANCH   5  12
ATOM     11  C   LIG    1        0.025  -0.466   1.756  0.00  0.00    -0.250 C 
ATOM     12  S   LIG    1        0.002  -0.004   0.002  0.00  0.00    +2.500 S 
ATOM     13  O   LIG    1        1.238  -0.334  -0.617  0.00  0.00    -0.930 OA
ATOM     14  O   LIG    1       -1.236  -0.368  -0.593  0.00  0.00    -0.930 OA
ENDBRANCH   5  12
ENDBRANCH   1   8
BRANCH   2  15
ATOM     15  C   LIG    1       -1.274   8.051   0.057  0.00  0.00    +0.270 A 
ATOM     16  N   LIG    1       -2.343   8.786   0.071  0.00  0.00    -0.500 NA
ATOM     17  C   LIG    1       -2.169  10.100   0.076  0.00  0.00    +0.120 A 
ATOM     18  C   LIG    1       -0.889  10.512   0.067  0.00  0.00    -0.100 A 
ATOM     19  S   LIG    1        0.149   9.088   0.057  0.00  0.00    +0.220 S 
BRANCH  17  20
ATOM     20  C   LIG    1       -3.308  11.050   0.093  0.00  0.00    -0.000 A 
ATOM     21  C   LIG    1       -3.072  12.424   0.104  0.00  0.00    +0.060 A 
ATOM     22  C   LIG    1       -4.134  13.305   0.114  0.00  0.00    +0.030 A 
ATOM     23  C   LIG    1       -5.434  12.827   0.124  0.00  0.00    +0.070 A 
ATOM     24  C   LIG    1       -5.675  11.461   0.118  0.00  0.00    +0.070 A 
ATOM     25  F   LIG    1       -6.944  10.999   0.127  0.00  0.00    -0.130 F 
ATOM     26  F   LIG    1       -6.470  13.694   0.138  0.00  0.00    -0.130 F 
ATOM     27  C   LIG    1       -4.617  10.572   0.103  0.00  0.00    +0.060 A 
ENDBRANCH  17  20
ENDBRANCH   2  15
TORSDOF 4
