REMARK  Name = ZINCvU0000000Gxp.0
REMARK                            x       y       z     vdW  Elec       q    Type
REMARK                         _______ _______ _______ _____ _____    ______ ____
ROOT
ATOM      1  C   LIG    1        4.811   4.280  -0.105  0.00  0.00    -0.080 A 
ATOM      2  C   LIG    1        3.624   3.561  -0.115  0.00  0.00    +0.080 A 
ATOM      3  C   LIG    1        3.667   2.162  -0.011  0.00  0.00    +0.180 A 
ATOM      4  N   LIG    1        4.798   1.498   0.102  0.00  0.00    -0.420 NA
ATOM      5  C   LIG    1        5.984   2.108   0.116  0.00  0.00    +0.120 A 
ATOM      6  C   LIG    1        7.178   1.372   0.232  0.00  0.00    +0.060 A 
ATOM      7  C   LIG    1        8.373   2.023   0.248  0.00  0.00    +0.030 A 
ATOM      8  C   LIG    1        8.438   3.411   0.150  0.00  0.00    +0.030 A 
ATOM      9  C   LIG    1        7.302   4.157   0.035  0.00  0.00    +0.050 A 
ATOM     10  C   LIG    1        6.056   3.521   0.016  0.00  0.00    -0.050 A 
ENDROOT
BRANCH   3  11
ATOM     11  C   LIG    1        2.392   1.405  -0.022  0.00  0.00    -0.050 A 
ATOM     12  C   LIG    1        1.340   1.792   0.806  0.00  0.00    +0.060 A 
ATOM     13  C   LIG    1        0.156   1.084   0.791  0.00  0.00    +0.030 A 
ATOM     14  C   LIG    1        0.010  -0.008  -0.045  0.00  0.00    +0.050 A 
ATOM     15  C   LIG    1        1.049  -0.399  -0.870  0.00  0.00    +0.030 A 
ATOM     16  C   LIG    1        2.240   0.301  -0.863  0.00  0.00    -0.000 A 
ATOM     17 CL   LIG    1        3.543  -0.189  -1.899  0.00  0.00    -0.050 Cl
ENDBRANCH   3  11
BRANCH   1  18
ATOM     18  C   LIG    1        4.817   5.754  -0.213  0.00  0.00    +0.520 C 
ATOM     19  O   LIG    1        5.870   6.352  -0.309  0.00  0.00    -0.490 OA
BRANCH  18  20
ATOM     20  O   LIG    1        3.654   6.435  -0.205  0.00  0.00    -0.320 OA
BRANCH  20  21
ATOM     21  C   LIG    1        3.736   7.880  -0.315  0.00  0.00    +0.270 C 
BRANCH  21  23
ATOM     22  O   LIG    1        1.384   7.736  -0.187  0.00  0.00    -0.440 OA
ATOM     23  C   LIG    1        2.348   8.466  -0.288  0.00  0.00    +0.510 C 
ATOM     24  N   LIG    1        2.176   9.799  -0.377  0.00  0.00    -0.660 N 
ATOM     25  H   LIG    1        2.940  10.377  -0.534  0.00  0.00    +0.420 HD
BRANCH  24  26
ATOM     26  C   LIG    1        0.902  10.349  -0.244  0.00  0.00    +0.360 A 
ATOM     27  C   LIG    1        0.746  11.730  -0.228  0.00  0.00    -0.040 A 
ATOM     28  C   LIG    1       -0.524  12.264  -0.095  0.00  0.00    +0.110 A 
ATOM     29  C   LIG    1       -1.600  11.392   0.017  0.00  0.00    -0.120 A 
ATOM     30  C   LIG    1       -1.371  10.029  -0.007  0.00  0.00    +0.320 A 
ATOM     31 CL   LIG    1       -3.214  12.008   0.186  0.00  0.00    -0.050 Cl
ATOM     32  N   LIG    1       -0.149   9.551  -0.140  0.00  0.00    -0.460 NA
ENDBRANCH  24  26
ENDBRANCH  21  23
ENDBRANCH  20  21
ENDBRANCH  18  20
ENDBRANCH   1  18
TORSDOF 6
