REMARK  Name = ZINCkj000005h633.0
REMARK                            x       y       z     vdW  Elec       q    Type
REMARK                         _______ _______ _______ _____ _____    ______ ____
ROOT
ATOM      1  C   LIG    1       -1.532  -1.327  -1.428  0.00  0.00    +0.260 C 
ENDROOT
BRANCH   1   3
ATOM      2  C   LIG    1       -3.175  -2.706  -2.583  0.00  0.00    +0.530 C 
ATOM      3  N   LIG    1       -2.693  -2.221  -1.422  0.00  0.00    -0.710 N 
ATOM      4  H   LIG    1       -3.114  -2.464  -0.583  0.00  0.00    +0.400 HD
ATOM      5  O   LIG    1       -2.647  -2.402  -3.636  0.00  0.00    -0.530 OA
BRANCH   2   7
ATOM      6  C   LIG    1       -4.817  -4.083  -3.723  0.00  0.00    -0.010 C 
ATOM      7  C   LIG    1       -4.340  -3.604  -2.578  0.00  0.00    +0.020 C 
BRANCH   6   8
ATOM      8  C   LIG    1       -6.010  -5.003  -3.717  0.00  0.00    +0.310 C 
BRANCH   8  10
ATOM      9  C   LIG    1       -6.574  -4.452  -5.983  0.00  0.00    +0.330 C 
ATOM     10  N   LIG    1       -7.054  -4.457  -4.595  0.00  0.00    -0.390 N 
ATOM     11  C   LIG    1       -8.261  -5.288  -4.497  0.00  0.00    +0.320 C 
ATOM     12  H   LIG    1       -7.272  -3.513  -4.311  0.00  0.00    +0.430 HD
ENDBRANCH   8  10
ENDBRANCH   6   8
ENDBRANCH   2   7
ENDBRANCH   1   3
BRANCH   1  13
ATOM     13  C   LIG    1       -1.192  -0.924   0.008  0.00  0.00    +0.100 C 
BRANCH  13  14
ATOM     14  C   LIG    1        0.002  -0.004   0.002  0.00  0.00    -0.220 A 
ATOM     15  C   LIG    1       -0.016   1.355   0.009  0.00  0.00    +0.240 A 
ATOM     16  N   LIG    1        1.232   1.825   0.000  0.00  0.00    -0.540 NA
ATOM     17  C   LIG    1        2.105   0.832  -0.014  0.00  0.00    +0.250 A 
ATOM     18  N   LIG    1        3.475   0.776  -0.027  0.00  0.00    -0.490 N 
ATOM     19  H   LIG    1        3.989   1.599  -0.027  0.00  0.00    +0.430 HD
ATOM     20  C   LIG    1        4.113  -0.405  -0.040  0.00  0.00    +0.330 A 
ATOM     21  C   LIG    1        3.434  -1.586  -0.040  0.00  0.00    -0.070 A 
ATOM     22  C   LIG    1        2.044  -1.598  -0.026  0.00  0.00    +0.180 A 
ATOM     23  C   LIG    1        1.363  -0.383  -0.013  0.00  0.00    -0.160 A 
ENDBRANCH  13  14
ENDBRANCH   1  13
TORSDOF 6
