REMARK  Name = ZINCtV00000bM9H3.0
REMARK                            x       y       z     vdW  Elec       q    Type
REMARK                         _______ _______ _______ _____ _____    ______ ____
ROOT
ATOM      1  C   LIG    1       -4.400   0.894   1.952  0.00  0.00    +0.090 A 
ATOM      2  C   LIG    1       -3.119   1.226   2.279  0.00  0.00    -0.120 A 
ATOM      3  C   LIG    1       -2.212   1.239   1.149  0.00  0.00    -0.060 A 
ATOM      4  C   LIG    1       -2.804   0.920  -0.009  0.00  0.00    -0.220 A 
ATOM      5  C   LIG    1       -2.092   0.856  -1.347  0.00  0.00    +0.120 C 
ATOM      6  C   LIG    1       -0.756   1.595  -1.231  0.00  0.00    +0.020 C 
ATOM      7  C   LIG    1       -0.013   1.086   0.008  0.00  0.00    +0.020 C 
ATOM      8  C   LIG    1       -0.731   1.581   1.265  0.00  0.00    +0.100 C 
ATOM      9  S   LIG    1       -4.513   0.588   0.228  0.00  0.00    +0.250 S 
ENDROOT
BRANCH   2  10
ATOM     10  C   LIG    1       -2.696   1.542   3.654  0.00  0.00    +0.200 A 
ATOM     11  N   LIG    1       -3.475   1.541   4.686  0.00  0.00    -0.500 NA
ATOM     12  C   LIG    1       -2.939   1.853   5.880  0.00  0.00    +0.090 A 
ATOM     13  C   LIG    1       -3.570   1.921   7.141  0.00  0.00    +0.060 A 
ATOM     14  C   LIG    1       -2.851   2.259   8.260  0.00  0.00    +0.040 A 
ATOM     15  C   LIG    1       -1.496   2.540   8.171  0.00  0.00    +0.040 A 
ATOM     16  C   LIG    1       -0.859   2.479   6.951  0.00  0.00    +0.060 A 
ATOM     17  C   LIG    1       -1.571   2.138   5.804  0.00  0.00    -0.190 A 
ATOM     18  S   LIG    1       -1.057   1.968   4.128  0.00  0.00    +0.100 S 
ENDBRANCH   2  10
BRANCH   1  21
ATOM     19  O   LIG    1       -6.870   0.239   1.233  0.00  0.00    -0.480 OA
ATOM     20  C   LIG    1       -6.687   0.471   2.413  0.00  0.00    +0.560 C 
ATOM     21  N   LIG    1       -5.458   0.810   2.849  0.00  0.00    -0.610 N 
ATOM     22  H   LIG    1       -5.312   0.996   3.790  0.00  0.00    +0.430 HD
BRANCH  20  23
ATOM     23  C   LIG    1       -7.810   0.383   3.365  0.00  0.00    -0.210 A 
ATOM     24  C   LIG    1       -8.596   1.509   3.633  0.00  0.00    +0.170 A 
ATOM     25  C   LIG    1       -9.650   1.415   4.522  0.00  0.00    -0.010 A 
ATOM     26  C   LIG    1       -9.921   0.216   5.156  0.00  0.00    +0.110 A 
ATOM     27  C   LIG    1       -9.145  -0.901   4.901  0.00  0.00    -0.010 A 
ATOM     28  F   LIG    1       -8.329   2.683   3.020  0.00  0.00    -0.120 F 
ATOM     29  C   LIG    1       -8.091  -0.827   4.010  0.00  0.00    +0.170 A 
ATOM     30  F   LIG    1       -7.335  -1.919   3.763  0.00  0.00    -0.120 F 
ENDBRANCH  20  23
ENDBRANCH   1  21
TORSDOF 3
