REMARK  Name = ZINCvU0000000JAl.0
REMARK                            x       y       z     vdW  Elec       q    Type
REMARK                         _______ _______ _______ _____ _____    ______ ____
ROOT
ATOM      1  C   LIG    1        1.508   3.693  -0.170  0.00  0.00    +0.130 A 
ATOM      2  N   LIG    1        2.670   3.846  -0.766  0.00  0.00    -0.280 NA
ATOM      3  N   LIG    1        2.495   4.237  -1.978  0.00  0.00    -0.260 NA
ATOM      4  C   LIG    1        1.213   4.353  -2.231  0.00  0.00    +0.220 A 
ATOM      5  N   LIG    1        0.541   4.013  -1.080  0.00  0.00    -0.440 N 
ENDROOT
BRANCH   5   6
ATOM      6  C   LIG    1       -0.909   3.994  -0.874  0.00  0.00    +0.230 C 
ATOM      7  C   LIG    1       -1.353   2.578  -0.501  0.00  0.00    +0.030 C 
ATOM      8  C   LIG    1       -0.649   2.146   0.787  0.00  0.00    +0.020 C 
ATOM      9  C   LIG    1       -1.016   3.109   1.917  0.00  0.00    +0.040 C 
ATOM     10  C   LIG    1       -0.573   4.525   1.544  0.00  0.00    +0.020 C 
ATOM     11  C   LIG    1       -1.277   4.958   0.257  0.00  0.00    +0.010 C 
ATOM     12  C   LIG    1       -0.833   6.374  -0.116  0.00  0.00    +0.030 C 
ENDBRANCH   5   6
BRANCH   4  13
ATOM     13  C   LIG    1        0.605   4.771  -3.512  0.00  0.00    -0.070 A 
ATOM     14  C   LIG    1        1.264   5.678  -4.350  0.00  0.00    +0.120 A 
ATOM     15  C   LIG    1        0.652   6.037  -5.538  0.00  0.00    -0.010 A 
ATOM     16  C   LIG    1       -0.580   5.495  -5.857  0.00  0.00    +0.270 A 
ATOM     17  N   LIG    1       -1.178   4.642  -5.047  0.00  0.00    -0.480 NA
ATOM     18  C   LIG    1       -0.634   4.265  -3.909  0.00  0.00    +0.270 A 
ENDBRANCH   4  13
BRANCH   1  19
ATOM     19  S   LIG    1        1.247   3.172   1.493  0.00  0.00    +0.180 S 
BRANCH  19  20
ATOM     20  C   LIG    1        2.963   2.948   2.025  0.00  0.00    +0.020 C 
BRANCH  20  26
ATOM     21  C   LIG    1        2.962   1.131   3.755  0.00  0.00    +0.170 A 
ATOM     22  C   LIG    1        2.985   0.701   5.077  0.00  0.00    -0.080 A 
ATOM     23  C   LIG    1        3.034   1.621   6.100  0.00  0.00    +0.110 A 
ATOM     24  C   LIG    1        3.060   2.989   5.803  0.00  0.00    -0.210 A 
ATOM     25  C   LIG    1        3.041   3.411   4.467  0.00  0.00    +0.130 A 
ATOM     26  C   LIG    1        2.988   2.490   3.460  0.00  0.00    -0.110 A 
BRANCH  24  27
ATOM     27  C   LIG    1        3.111   3.978   6.887  0.00  0.00    +0.400 C 
ATOM     28  O   LIG    1        3.134   5.162   6.628  0.00  0.00    -0.460 OA
ATOM     29  C   LIG    1        3.136   3.521   8.323  0.00  0.00    +0.070 C 
ENDBRANCH  24  27
BRANCH  21  31
ATOM     30  C   LIG    1        2.891  -1.157   3.121  0.00  0.00    +0.240 C 
ATOM     31  O   LIG    1        2.915   0.222   2.749  0.00  0.00    -0.300 OA
ENDBRANCH  21  31
ENDBRANCH  20  26
ENDBRANCH  19  20
ENDBRANCH   1  19
TORSDOF 7
