REMARK  Name = ZINCvU0000000J2e.0
REMARK                            x       y       z     vdW  Elec       q    Type
REMARK                         _______ _______ _______ _____ _____    ______ ____
ROOT
ATOM      1  C   LIG    1       -3.294   2.514   0.045  0.00  0.00    +0.290 A 
ATOM      2  N   LIG    1       -2.536   3.571   0.030  0.00  0.00    -0.480 NA
ATOM      3  C   LIG    1       -1.231   3.196   0.012  0.00  0.00    +0.050 A 
ATOM      4  C   LIG    1       -0.026   3.902  -0.008  0.00  0.00    +0.070 A 
ATOM      5  C   LIG    1        1.161   3.224  -0.022  0.00  0.00    +0.000 A 
ATOM      6  C   LIG    1        1.183   1.837  -0.016  0.00  0.00    +0.030 A 
ATOM      7  C   LIG    1        0.006   1.119   0.003  0.00  0.00    +0.010 A 
ATOM      8  C   LIG    1       -1.209   1.790   0.012  0.00  0.00    +0.060 A 
ATOM      9  N   LIG    1       -2.529   1.389   0.039  0.00  0.00    -0.480 N 
ENDROOT
BRANCH   1  12
ATOM     10  N   LIG    1       -6.527   3.986   0.878  0.00  0.00    -0.560 N 
ATOM     11  C   LIG    1       -5.327   3.266   1.320  0.00  0.00    +0.300 C 
ATOM     12  C   LIG    1       -4.801   2.533   0.067  0.00  0.00    +0.090 C 
ATOM     13  C   LIG    1       -5.359   3.416  -1.073  0.00  0.00    +0.100 C 
ATOM     14  C   LIG    1       -6.568   4.090  -0.461  0.00  0.00    +0.520 C 
ATOM     15  O   LIG    1       -7.446   4.644  -1.088  0.00  0.00    -0.500 OA
BRANCH  10  21
ATOM     16  C   LIG    1      -10.630   6.613   1.542  0.00  0.00    +0.090 C 
ATOM     17  C   LIG    1       -9.502   5.776   2.089  0.00  0.00    -0.050 A 
ATOM     18  C   LIG    1       -9.430   5.515   3.445  0.00  0.00    -0.030 A 
ATOM     19  C   LIG    1       -8.397   4.748   3.951  0.00  0.00    -0.060 A 
ATOM     20  C   LIG    1       -7.433   4.240   3.103  0.00  0.00    -0.050 A 
ATOM     21  C   LIG    1       -7.502   4.500   1.740  0.00  0.00    +0.170 A 
ATOM     22  C   LIG    1       -8.322   4.466   5.430  0.00  0.00    +0.100 C 
ATOM     23  C   LIG    1       -8.538   5.275   1.236  0.00  0.00    -0.010 A 
ENDBRANCH  10  21
ENDBRANCH   1  12
BRANCH   9  24
ATOM     24  C   LIG    1       -3.017   0.007   0.052  0.00  0.00    +0.370 C 
BRANCH  24  25
ATOM     25  C   LIG    1       -3.204  -0.473  -1.365  0.00  0.00    -0.120 A 
ATOM     26  C   LIG    1       -4.421  -0.299  -1.997  0.00  0.00    +0.040 A 
ATOM     27  C   LIG    1       -4.592  -0.734  -3.298  0.00  0.00    +0.030 A 
ATOM     28  C   LIG    1       -3.549  -1.353  -3.963  0.00  0.00    -0.020 A 
ATOM     29  C   LIG    1       -2.333  -1.531  -3.327  0.00  0.00    +0.030 A 
ATOM     30 CL   LIG    1       -3.765  -1.905  -5.595  0.00  0.00    -0.060 Cl
ATOM     31  C   LIG    1       -2.161  -1.091  -2.029  0.00  0.00    +0.050 A 
ENDBRANCH  24  25
ENDBRANCH   9  24
TORSDOF 4
