REMARK  Name = ZINCrD000000BgH7.0
REMARK                            x       y       z     vdW  Elec       q    Type
REMARK                         _______ _______ _______ _____ _____    ______ ____
ROOT
ATOM      1  O   LIG    1        4.087   5.645  -3.349  0.00  0.00    -0.530 OA
ATOM      2  C   LIG    1        4.413   5.981  -2.225  0.00  0.00    +0.560 C 
ATOM      3  N   LIG    1        3.717   5.536  -1.160  0.00  0.00    -0.720 N 
ATOM      4  H   LIG    1        3.977   5.804  -0.265  0.00  0.00    +0.410 HD
ENDROOT
BRANCH   2   5
ATOM      5  C   LIG    1        5.559   6.868  -2.031  0.00  0.00    -0.230 C 
ATOM      6  C   LIG    1        6.264   7.313  -3.100  0.00  0.00    +0.160 C 
ATOM      7  C   LIG    1        7.417   8.191  -2.847  0.00  0.00    -0.140 A 
ATOM      8  C   LIG    1        7.987   8.959  -3.861  0.00  0.00    +0.100 A 
ATOM      9  C   LIG    1        9.070   9.766  -3.577  0.00  0.00    -0.070 A 
ATOM     10  C   LIG    1        9.589   9.814  -2.293  0.00  0.00    +0.090 A 
ATOM     11  C   LIG    1        9.032   9.056  -1.279  0.00  0.00    +0.020 A 
ATOM     12 CL   LIG    1        9.787  10.725  -4.835  0.00  0.00    -0.060 Cl
ATOM     13  C   LIG    1        7.946   8.242  -1.545  0.00  0.00    +0.150 A 
ATOM     14  O   LIG    1        7.377   7.487  -0.573  0.00  0.00    -0.300 OA
ATOM     15  C   LIG    1        5.965   7.287  -0.642  0.00  0.00    +0.310 C 
ENDBRANCH   2   5
BRANCH   3  16
ATOM     16  C   LIG    1        2.569   4.647  -1.355  0.00  0.00    +0.280 C 
BRANCH  16  17
ATOM     17  C   LIG    1        2.035   4.198   0.007  0.00  0.00    +0.250 C 
BRANCH  17  18
ATOM     18  N   LIG    1        1.729   5.378   0.827  0.00  0.00    -0.520 NA
ATOM     19  C   LIG    1        0.980   5.001   2.034  0.00  0.00    +0.160 C 
ATOM     20  C   LIG    1        0.735   6.249   2.887  0.00  0.00    +0.220 C 
ATOM     21  O   LIG    1        0.045   7.226   2.104  0.00  0.00    -0.380 OA
ATOM     22  C   LIG    1        0.746   7.617   0.921  0.00  0.00    +0.230 C 
ATOM     23  C   LIG    1        0.991   6.383   0.049  0.00  0.00    +0.150 C 
ENDBRANCH  17  18
BRANCH  17  24
ATOM     24  C   LIG    1        0.782   3.384  -0.189  0.00  0.00    -0.220 A 
ATOM     25  C   LIG    1        0.694   2.061  -0.041  0.00  0.00    +0.030 A 
ATOM     26  C   LIG    1       -0.564   1.531  -0.273  0.00  0.00    +0.000 A 
ATOM     27  C   LIG    1       -1.495   2.422  -0.614  0.00  0.00    -0.060 A 
ATOM     28  S   LIG    1       -0.788   4.032  -0.645  0.00  0.00    +0.120 S 
ENDBRANCH  17  24
ENDBRANCH  16  17
ENDBRANCH   3  16
TORSDOF 5
