REMARK  Name = ZINCpe00000MEw0C.0
REMARK                            x       y       z     vdW  Elec       q    Type
REMARK                         _______ _______ _______ _____ _____    ______ ____
ROOT
ATOM      1  N   LIG    1        1.269   1.655   2.506  0.00  0.00    -0.540 N 
ATOM      2  C   LIG    1        1.779   1.719   3.870  0.00  0.00    +0.270 C 
ATOM      3  C   LIG    1        3.168   1.084   3.952  0.00  0.00    +0.050 C 
ATOM      4  C   LIG    1        4.052   1.692   2.857  0.00  0.00    +0.050 C 
ATOM      5  C   LIG    1        3.517   1.238   1.496  0.00  0.00    +0.280 C 
ATOM      6  C   LIG    1        2.033   1.457   1.431  0.00  0.00    +0.500 C 
ATOM      7  O   LIG    1        1.500   1.458   0.341  0.00  0.00    -0.500 OA
ENDROOT
BRANCH   1  12
ATOM      8  C   LIG    1       -3.603   0.658   2.088  0.00  0.00    +0.160 C 
ATOM      9  C   LIG    1       -2.286   1.390   2.121  0.00  0.00    +0.080 A 
ATOM     10  N   LIG    1       -2.117   2.673   1.927  0.00  0.00    -0.280 NA
ATOM     11  N   LIG    1       -0.751   2.960   2.037  0.00  0.00    -0.370 N 
ATOM     12  C   LIG    1       -0.104   1.805   2.314  0.00  0.00    +0.300 A 
ATOM     13  C   LIG    1       -0.133   4.280   1.886  0.00  0.00    +0.340 C 
ATOM     14  C   LIG    1       -1.037   0.815   2.371  0.00  0.00    -0.100 A 
ENDBRANCH   1  12
BRANCH   5  15
ATOM     15  N   LIG    1        4.173   2.006   0.435  0.00  0.00    -1.100 NA
ATOM     16  H   LIG    1        4.406   2.936   0.582  0.00  0.00    +0.420 HD
BRANCH  15  17
ATOM     17  S   LIG    1        4.516   1.286  -1.016  0.00  0.00    +2.730 S 
ATOM     18  O   LIG    1        5.154   0.053  -0.712  0.00  0.00    -0.950 OA
ATOM     19  O   LIG    1        5.110   2.288  -1.831  0.00  0.00    -0.950 OA
BRANCH  17  20
ATOM     20  C   LIG    1        2.978   0.876  -1.773  0.00  0.00    -0.770 A 
ATOM     21  C   LIG    1        2.231   1.637  -2.608  0.00  0.00    +0.120 A 
ATOM     22  O   LIG    1        1.152   0.907  -2.924  0.00  0.00    +0.100 OA
ATOM     23  N   LIG    1        1.174  -0.174  -2.382  0.00  0.00    -0.360 NA
ATOM     24  C   LIG    1        2.550   3.029  -3.089  0.00  0.00    +0.200 C 
ATOM     25  C   LIG    1        2.241  -0.324  -1.652  0.00  0.00    +0.120 A 
ATOM     26  C   LIG    1        2.615  -1.535  -0.838  0.00  0.00    +0.180 C 
ENDBRANCH  17  20
ENDBRANCH  15  17
ENDBRANCH   5  15
TORSDOF 4
