REMARK  Name = ZINCkj000005guuc.0
REMARK                            x       y       z     vdW  Elec       q    Type
REMARK                         _______ _______ _______ _____ _____    ______ ____
ROOT
ATOM      1  C   LIG    1        3.231   0.581  -1.289  0.00  0.00    +0.500 C 
ATOM      2  N   LIG    1        2.057   1.242  -1.275  0.00  0.00    -0.580 N 
ATOM      3  C   LIG    1        1.385   1.603  -2.531  0.00  0.00    +0.280 C 
ATOM      4  C   LIG    1       -0.051   1.072  -2.492  0.00  0.00    +0.040 C 
ATOM      5  C   LIG    1       -0.749   1.593  -1.234  0.00  0.00    +0.050 C 
ATOM      6  C   LIG    1       -0.013   1.086   0.008  0.00  0.00    +0.090 C 
ATOM      7  C   LIG    1        1.424   1.617  -0.003  0.00  0.00    +0.320 C 
ATOM      8  O   LIG    1        3.776   0.289  -0.246  0.00  0.00    -0.520 OA
ENDROOT
BRANCH   6   9
ATOM      9  C   LIG    1       -0.719   1.573   1.247  0.00  0.00    +0.160 A 
ATOM     10  N   LIG    1       -0.918   2.817   1.586  0.00  0.00    -0.280 NA
ATOM     11  N   LIG    1       -1.556   2.866   2.701  0.00  0.00    -0.290 NA
ATOM     12  C   LIG    1       -1.786   1.654   3.129  0.00  0.00    +0.380 A 
ATOM     13  N   LIG    1       -1.261   0.799   2.218  0.00  0.00    -0.460 N 
BRANCH  13  14
ATOM     14  C   LIG    1       -1.277  -0.665   2.273  0.00  0.00    +0.230 C 
ATOM     15  C   LIG    1       -2.725  -1.159   2.304  0.00  0.00    +0.060 C 
ATOM     16  C   LIG    1       -0.551  -1.136   3.535  0.00  0.00    +0.040 C 
ENDBRANCH  13  14
ENDBRANCH   6   9
BRANCH   1  17
ATOM     17  C   LIG    1        3.868   0.204  -2.602  0.00  0.00    +0.180 C 
BRANCH  17  18
ATOM     18  N   LIG    1        4.834  -0.881  -2.385  0.00  0.00    -0.620 N 
ATOM     19  H   LIG    1        4.358  -1.683  -1.999  0.00  0.00    +0.440 HD
ATOM     20  H   LIG    1        5.547  -0.572  -1.742  0.00  0.00    +0.440 HD
ATOM     21  H   LIG    1        5.260  -1.133  -3.264  0.00  0.00    +0.440 HD
ENDBRANCH  17  18
BRANCH  17  23
ATOM     22  C   LIG    1        5.129   1.074  -4.576  0.00  0.00    +0.060 C 
ATOM     23  C   LIG    1        4.589   1.420  -3.187  0.00  0.00    +0.070 C 
ENDBRANCH  17  23
ENDBRANCH   1  17
TORSDOF 5
