REMARK  Name = ZINCkj000005lcp4.0
REMARK                            x       y       z     vdW  Elec       q    Type
REMARK                         _______ _______ _______ _____ _____    ______ ____
ROOT
ATOM      1  N   LIG    1       -0.900   1.880  -1.312  0.00  0.00    -1.120 NA
ATOM      2  H   LIG    1       -1.261   1.209  -1.914  0.00  0.00    +0.420 HD
ENDROOT
BRANCH   1   3
ATOM      3  C   LIG    1       -1.137   3.302  -1.574  0.00  0.00    +0.270 C 
ATOM      4  C   LIG    1       -2.488   3.711  -0.984  0.00  0.00    +0.020 C 
ATOM      5  C   LIG    1       -2.735   5.196  -1.257  0.00  0.00    +0.030 C 
ATOM      6  C   LIG    1       -2.742   5.442  -2.768  0.00  0.00    +0.030 C 
ATOM      7  C   LIG    1       -1.391   5.033  -3.357  0.00  0.00    +0.030 C 
ATOM      8  C   LIG    1       -1.144   3.548  -3.084  0.00  0.00    -0.010 C 
BRANCH   8   9
ATOM      9  C   LIG    1        0.207   3.139  -3.674  0.00  0.00    +0.270 C 
BRANCH   9  10
ATOM     10  N   LIG    1        0.161   3.262  -5.137  0.00  0.00    -0.640 N 
ATOM     11  H   LIG    1       -0.562   2.660  -5.502  0.00  0.00    +0.440 HD
ATOM     12  H   LIG    1        1.052   2.992  -5.526  0.00  0.00    +0.440 HD
ATOM     13  H   LIG    1       -0.040   4.219  -5.388  0.00  0.00    +0.430 HD
ENDBRANCH   9  10
ENDBRANCH   8   9
ENDBRANCH   1   3
BRANCH   1  14
ATOM     14  S   LIG    1       -0.017   1.417   0.010  0.00  0.00    +2.690 S 
ATOM     15  O   LIG    1        1.162   2.210   0.003  0.00  0.00    -0.950 OA
ATOM     16  O   LIG    1        0.002  -0.004   0.002  0.00  0.00    -0.940 OA
BRANCH  14  20
ATOM     17  C   LIG    1       -2.363   2.644   3.688  0.00  0.00    +0.050 A 
ATOM     18  C   LIG    1       -2.560   1.385   3.118  0.00  0.00    +0.060 A 
ATOM     19  C   LIG    1       -1.843   1.018   1.998  0.00  0.00    +0.140 A 
ATOM     20  C   LIG    1       -0.930   1.894   1.440  0.00  0.00    -0.660 A 
ATOM     21  C   LIG    1       -0.725   3.142   2.002  0.00  0.00    +0.130 A 
ATOM     22  C   LIG    1       -1.440   3.524   3.119  0.00  0.00    +0.060 A 
BRANCH  17  24
ATOM     23  N   LIG    1       -3.691   3.339   5.773  0.00  0.00    -0.380 NA
ATOM     24  C   LIG    1       -3.103   3.031   4.850  0.00  0.00    +0.230 C 
ENDBRANCH  17  24
ENDBRANCH  14  20
ENDBRANCH   1  14
TORSDOF 6
