REMARK  Name = ZINCpk00000FLTda.0
REMARK                            x       y       z     vdW  Elec       q    Type
REMARK                         _______ _______ _______ _____ _____    ______ ____
ROOT
ATOM      1  CA  LIG    1        3.047   1.410   1.419  0.00  0.00    +0.250 C 
ATOM      2  N   LIG    1        3.041   2.760   1.966  0.00  0.00    -0.710 N 
ATOM      3  H   LIG    1        2.203   3.127   2.287  0.00  0.00    +0.410 HD
ATOM      4  C   LIG    1        4.139   3.517   2.043  0.00  0.00    +0.520 C 
ATOM      5  CA  LIG    1        5.482   3.045   1.575  0.00  0.00    +0.250 C 
ATOM      6  N   LIG    1        5.530   1.592   1.482  0.00  0.00    -0.710 N 
ATOM      7  H   LIG    1        6.396   1.156   1.473  0.00  0.00    +0.410 HD
ATOM      8  O   LIG    1        4.045   4.632   2.511  0.00  0.00    -0.520 OA
ATOM      9  C   LIG    1        4.431   0.834   1.410  0.00  0.00    +0.520 C 
ATOM     10  O   LIG    1        4.559  -0.370   1.333  0.00  0.00    -0.530 OA
ENDROOT
BRANCH   1  11
ATOM     11  C   LIG    1        2.510   1.446  -0.013  0.00  0.00    +0.130 C 
BRANCH  11  18
ATOM     12  C   LIG    1        1.481   4.444   0.010  0.00  0.00    +0.160 C 
ATOM     13  C   LIG    1        0.614   3.211   0.013  0.00  0.00    +0.080 A 
ATOM     14  N   LIG    1       -0.694   3.193   0.025  0.00  0.00    -0.290 NA
ATOM     15  N   LIG    1       -1.113   1.857   0.017  0.00  0.00    -0.370 N 
ATOM     16  C   LIG    1       -0.013   1.076   0.008  0.00  0.00    +0.250 A 
ATOM     17  C   LIG    1       -2.502   1.389   0.021  0.00  0.00    +0.360 C 
ATOM     18  C   LIG    1        1.069   1.888   0.002  0.00  0.00    -0.250 A 
ENDBRANCH  11  18
ENDBRANCH   1  11
BRANCH   5  19
ATOM     19  C   LIG    1        5.772   3.644   0.197  0.00  0.00    +0.040 C 
BRANCH  19  20
ATOM     20  C   LIG    1        7.206   3.307  -0.214  0.00  0.00    -0.010 C 
ATOM     21  C   LIG    1        8.185   3.994   0.740  0.00  0.00    +0.040 C 
ATOM     22  C   LIG    1        9.620   3.657   0.329  0.00  0.00    +0.020 C 
ATOM     23  C   LIG    1        9.870   4.148  -1.099  0.00  0.00    +0.290 C 
ATOM     24  C   LIG    1        8.891   3.461  -2.053  0.00  0.00    +0.020 C 
ATOM     25  F   LIG    1        9.682   5.533  -1.155  0.00  0.00    -0.200 F 
ATOM     26  F   LIG    1       11.181   3.840  -1.475  0.00  0.00    -0.200 F 
ATOM     27  C   LIG    1        7.456   3.798  -1.642  0.00  0.00    +0.050 C 
ENDBRANCH  19  20
ENDBRANCH   5  19
TORSDOF 4
