REMARK  Name = ZINCvU00000009j6.0
REMARK                            x       y       z     vdW  Elec       q    Type
REMARK                         _______ _______ _______ _____ _____    ______ ____
ROOT
ATOM      1  C   LIG    1        7.882  -3.406  -0.492  0.00  0.00    +0.110 C 
ATOM      2  C   LIG    1        6.633  -2.563  -0.449  0.00  0.00    +0.020 A 
ATOM      3  C   LIG    1        6.733  -1.185  -0.390  0.00  0.00    +0.020 A 
ATOM      4  C   LIG    1        5.590  -0.410  -0.356  0.00  0.00    +0.100 A 
ATOM      5  C   LIG    1        4.341  -1.016  -0.369  0.00  0.00    +0.120 A 
ATOM      6  C   LIG    1        4.245  -2.401  -0.428  0.00  0.00    +0.120 A 
ATOM      7  C   LIG    1        5.391  -3.170  -0.467  0.00  0.00    -0.660 A 
ENDROOT
BRANCH   5   8
ATOM      8  N   LIG    1        3.182  -0.234  -0.330  0.00  0.00    -0.660 N 
ATOM      9  H   LIG    1        2.401  -0.498  -0.840  0.00  0.00    +0.410 HD
ATOM     10  C   LIG    1        3.151   0.886   0.419  0.00  0.00    +0.560 C 
ATOM     11  O   LIG    1        4.157   1.268   0.985  0.00  0.00    -0.470 OA
BRANCH  10  12
ATOM     12  C   LIG    1        1.893   1.652   0.551  0.00  0.00    -0.070 A 
ATOM     13  C   LIG    1        1.253   2.148  -0.586  0.00  0.00    +0.100 A 
ATOM     14  C   LIG    1        0.083   2.867  -0.456  0.00  0.00    +0.100 A 
ATOM     15  C   LIG    1       -0.463   3.086   0.798  0.00  0.00    -0.020 A 
ATOM     16  C   LIG    1        0.169   2.596   1.930  0.00  0.00    +0.120 A 
ATOM     17 CL   LIG    1       -1.940   3.985   0.954  0.00  0.00    -0.020 Cl
ATOM     18  C   LIG    1        1.342   1.881   1.813  0.00  0.00    +0.010 A 
BRANCH  18  19
ATOM     19  N   LIG    1        2.015   1.358   3.023  0.00  0.00    +0.020 N 
ATOM     20  O   LIG    1        3.072   0.761   2.922  0.00  0.00    -0.120 OA
ATOM     21  O   LIG    1        1.512   1.524   4.120  0.00  0.00    -0.150 OA
ENDBRANCH  18  19
ENDBRANCH  10  12
ENDBRANCH   5   8
BRANCH   7  22
ATOM     22  S   LIG    1        5.270  -4.926  -0.542  0.00  0.00    +2.700 S 
ATOM     23  O   LIG    1        3.884  -5.230  -0.627  0.00  0.00    -0.950 OA
ATOM     24  O   LIG    1        6.115  -5.430   0.483  0.00  0.00    -0.940 OA
BRANCH  22  25
ATOM     25  N   LIG    1        5.941  -5.403  -1.979  0.00  0.00    -1.060 N 
ATOM     26  H   LIG    1        6.724  -5.976  -1.982  0.00  0.00    +0.430 HD
BRANCH  25  27
ATOM     27  C   LIG    1        5.381  -4.980  -3.186  0.00  0.00    +0.160 A 
ATOM     28  C   LIG    1        4.008  -5.055  -3.380  0.00  0.00    +0.020 A 
ATOM     29  C   LIG    1        3.455  -4.632  -4.573  0.00  0.00    +0.060 A 
ATOM     30  C   LIG    1        4.269  -4.143  -5.579  0.00  0.00    +0.020 A 
ATOM     31  C   LIG    1        5.638  -4.072  -5.391  0.00  0.00    -0.020 A 
ATOM     32 CL   LIG    1        6.656  -3.458  -6.657  0.00  0.00    -0.060 Cl
ATOM     33  C   LIG    1        6.196  -4.489  -4.198  0.00  0.00    +0.020 A 
ENDBRANCH  25  27
ENDBRANCH  22  25
ENDBRANCH   7  22
TORSDOF 6
