REMARK  Name = ZINCpe00000TWofE.0
REMARK                            x       y       z     vdW  Elec       q    Type
REMARK                         _______ _______ _______ _____ _____    ______ ____
ROOT
ATOM      1  N   LIG    1       -0.815   1.764   1.132  0.00  0.00    -0.500 NA
ATOM      2  C   LIG    1       -0.051   1.294  -0.052  0.00  0.00    +0.170 C 
ATOM      3  C   LIG    1       -0.882   1.762  -1.266  0.00  0.00    +0.020 C 
ATOM      4  C   LIG    1       -2.320   1.918  -0.731  0.00  0.00    +0.260 C 
ATOM      5  C   LIG    1       -2.237   1.531   0.762  0.00  0.00    +0.170 C 
ENDROOT
BRANCH   4   6
ATOM      6  N   LIG    1       -3.229   1.016  -1.443  0.00  0.00    -0.610 N 
ATOM      7  C   LIG    1       -4.287   1.516  -2.111  0.00  0.00    +0.600 C 
ATOM      8  O   LIG    1       -4.533   2.705  -2.059  0.00  0.00    -0.530 OA
ATOM      9  C   LIG    1       -2.987  -0.429  -1.428  0.00  0.00    +0.290 C 
BRANCH   7  10
ATOM     10  C   LIG    1       -5.147   0.619  -2.906  0.00  0.00    -0.290 A 
ATOM     11  C   LIG    1       -5.479  -0.684  -2.597  0.00  0.00    +0.270 A 
ATOM     12  N   LIG    1       -6.279  -1.138  -3.575  0.00  0.00    -0.360 N 
ATOM     13  N   LIG    1       -6.449  -0.118  -4.518  0.00  0.00    -0.300 NA
ATOM     14  C   LIG    1       -6.869  -2.477  -3.646  0.00  0.00    +0.350 C 
ATOM     15  C   LIG    1       -5.780   0.932  -4.130  0.00  0.00    +0.130 A 
ATOM     16  C   LIG    1       -5.696   2.248  -4.860  0.00  0.00    +0.170 C 
ENDBRANCH   7  10
ENDBRANCH   4   6
BRANCH   1  17
ATOM     17  C   LIG    1       -0.448   1.002   2.333  0.00  0.00    +0.260 C 
BRANCH  17  21
ATOM     18  C   LIG    1        3.495   1.938   3.424  0.00  0.00    +0.260 A 
ATOM     19  C   LIG    1        2.473   2.639   4.059  0.00  0.00    +0.030 A 
ATOM     20  C   LIG    1        1.165   2.344   3.704  0.00  0.00    +0.100 A 
ATOM     21  C   LIG    1        0.956   1.362   2.748  0.00  0.00    +0.040 A 
ATOM     22  N   LIG    1        1.984   0.748   2.197  0.00  0.00    -0.200 NA
ATOM     23  N   LIG    1        3.197   1.021   2.518  0.00  0.00    -0.300 NA
BRANCH  18  25
ATOM     24  C   LIG    1        5.785   1.436   3.041  0.00  0.00    +0.250 C 
ATOM     25  O   LIG    1        4.791   2.195   3.732  0.00  0.00    -0.300 OA
ENDBRANCH  18  25
ENDBRANCH  17  21
ENDBRANCH   1  17
TORSDOF 5
