REMARK  Name = ZINCrH000004rRoA.0
REMARK                            x       y       z     vdW  Elec       q    Type
REMARK                         _______ _______ _______ _____ _____    ______ ____
ROOT
ATOM      1  N   LIG    1        1.077   1.994   0.003  0.00  0.00    -0.570 N 
ATOM      2  C   LIG    1        0.711   3.415   0.003  0.00  0.00    +0.310 C 
ATOM      3  C   LIG    1       -0.768   3.460   0.446  0.00  0.00    +0.000 C 
ATOM      4  C   LIG    1       -1.266   2.058   0.019  0.00  0.00    +0.090 C 
ATOM      5  C   LIG    1       -0.014   1.209   0.009  0.00  0.00    +0.520 C 
ATOM      6  O   LIG    1        0.002  -0.004   0.002  0.00  0.00    -0.520 OA
ENDROOT
BRANCH   1  12
ATOM      7  C   LIG    1        5.069   0.554   2.484  0.00  0.00    +0.090 C 
ATOM      8  C   LIG    1        4.352   0.810   1.184  0.00  0.00    -0.080 A 
ATOM      9  C   LIG    1        4.994   0.574  -0.017  0.00  0.00    +0.020 A 
ATOM     10  C   LIG    1        4.338   0.807  -1.212  0.00  0.00    +0.010 A 
ATOM     11  C   LIG    1        3.040   1.278  -1.209  0.00  0.00    +0.010 A 
ATOM     12  C   LIG    1        2.392   1.516  -0.004  0.00  0.00    +0.140 A 
ATOM     13  C   LIG    1        3.055   1.286   1.194  0.00  0.00    -0.070 A 
ATOM     14  C   LIG    1        2.358   1.549   2.504  0.00  0.00    +0.100 C 
ENDBRANCH   1  12
BRANCH   3  15
ATOM     15  C   LIG    1       -0.879   3.645   1.938  0.00  0.00    +0.520 C 
ATOM     16  N   LIG    1       -2.092   3.710   2.520  0.00  0.00    -0.720 N 
ATOM     17  H   LIG    1       -2.894   3.637   1.980  0.00  0.00    +0.400 HD
ATOM     18  O   LIG    1        0.124   3.737   2.613  0.00  0.00    -0.520 OA
BRANCH  16  19
ATOM     19  C   LIG    1       -2.200   3.890   3.970  0.00  0.00    +0.230 C 
ATOM     20  C   LIG    1       -2.102   2.529   4.662  0.00  0.00    +0.020 C 
BRANCH  19  21
ATOM     21  C   LIG    1       -3.546   4.537   4.305  0.00  0.00    +0.030 C 
BRANCH  21  22
ATOM     22  C   LIG    1       -3.593   5.949   3.717  0.00  0.00    +0.060 C 
BRANCH  22  23
ATOM     23  C   LIG    1       -4.918   6.586   4.047  0.00  0.00    -0.080 A 
ATOM     24  C   LIG    1       -5.987   6.445   3.182  0.00  0.00    +0.000 A 
ATOM     25  C   LIG    1       -7.205   7.025   3.486  0.00  0.00    +0.000 A 
ATOM     26  C   LIG    1       -7.350   7.755   4.652  0.00  0.00    +0.000 A 
ATOM     27  C   LIG    1       -6.279   7.901   5.514  0.00  0.00    +0.000 A 
ATOM     28  C   LIG    1       -5.064   7.316   5.211  0.00  0.00    +0.000 A 
ENDBRANCH  22  23
ENDBRANCH  21  22
ENDBRANCH  19  21
ENDBRANCH  16  19
ENDBRANCH   3  15
TORSDOF 6
