REMARK  Name = ZINCrH000004l1j5.0
REMARK                            x       y       z     vdW  Elec       q    Type
REMARK                         _______ _______ _______ _____ _____    ______ ____
ROOT
ATOM      1  C   LIG    1        0.015   1.488  -0.809  0.00  0.00    +0.570 C 
ATOM      2  N   LIG    1        0.931   1.574   0.177  0.00  0.00    -0.590 N 
ATOM      3  C   LIG    1        0.583   2.220   1.445  0.00  0.00    +0.310 C 
ATOM      4  O   LIG    1        0.316   0.991  -1.876  0.00  0.00    -0.510 OA
ENDROOT
BRANCH   1   9
ATOM      5  C   LIG    1       -2.852   3.148   0.748  0.00  0.00    +0.080 A 
ATOM      6  C   LIG    1       -3.879   2.967  -0.180  0.00  0.00    +0.080 A 
ATOM      7  C   LIG    1       -3.617   2.277  -1.353  0.00  0.00    +0.080 A 
ATOM      8  C   LIG    1       -2.337   1.793  -1.565  0.00  0.00    +0.080 A 
ATOM      9  C   LIG    1       -1.357   2.006  -0.593  0.00  0.00    +0.080 A 
ATOM     10  N   LIG    1       -1.639   2.669   0.517  0.00  0.00    -0.400 NA
BRANCH   5  11
ATOM     11  C   LIG    1       -3.121   3.884   2.005  0.00  0.00    +0.520 C 
ATOM     12  O   LIG    1       -4.231   4.326   2.224  0.00  0.00    -0.490 OA
BRANCH  11  14
ATOM     13  C   LIG    1       -2.472   4.793   4.115  0.00  0.00    +0.280 C 
ATOM     14  O   LIG    1       -2.136   4.063   2.906  0.00  0.00    -0.340 OA
ENDBRANCH  11  14
ENDBRANCH   5  11
ENDBRANCH   1   9
BRANCH   2  15
ATOM     15  C   LIG    1        2.273   1.022  -0.021  0.00  0.00    +0.320 C 
BRANCH  15  16
ATOM     16  C   LIG    1        3.151   1.407   1.142  0.00  0.00    -0.090 A 
ATOM     17  C   LIG    1        3.216   2.726   1.551  0.00  0.00    +0.020 A 
ATOM     18  C   LIG    1        4.018   3.079   2.621  0.00  0.00    +0.000 A 
ATOM     19  C   LIG    1        4.761   2.115   3.275  0.00  0.00    +0.010 A 
ATOM     20  C   LIG    1        4.700   0.797   2.863  0.00  0.00    +0.000 A 
ATOM     21  C   LIG    1        3.895   0.443   1.796  0.00  0.00    +0.020 A 
ENDBRANCH  15  16
BRANCH  15  22
ATOM     22  C   LIG    1        2.859   1.570  -1.296  0.00  0.00    -0.070 A 
ATOM     23  C   LIG    1        2.748   2.917  -1.585  0.00  0.00    +0.010 A 
ATOM     24  C   LIG    1        3.290   3.421  -2.753  0.00  0.00    +0.000 A 
ATOM     25  C   LIG    1        3.934   2.575  -3.636  0.00  0.00    +0.000 A 
ATOM     26  C   LIG    1        4.042   1.227  -3.350  0.00  0.00    +0.000 A 
ATOM     27  C   LIG    1        3.504   0.725  -2.180  0.00  0.00    +0.020 A 
ENDBRANCH  15  22
ENDBRANCH   2  15
TORSDOF 6
