REMARK  Name = ZINCrD00000F5Lrj.0
REMARK                            x       y       z     vdW  Elec       q    Type
REMARK                         _______ _______ _______ _____ _____    ______ ____
ROOT
ATOM      1  N   LIG    1        1.333   1.974  -0.021  0.00  0.00    -0.600 N 
ATOM      2  C   LIG    1        1.961   2.158   1.158  0.00  0.00    +0.510 C 
ATOM      3  O   LIG    1        1.403   1.867   2.194  0.00  0.00    -0.490 OA
ENDROOT
BRANCH   1   4
ATOM      4  C   LIG    1        2.040   2.237  -1.276  0.00  0.00    +0.300 C 
ATOM      5  C   LIG    1        2.419   3.730  -1.376  0.00  0.00    +0.050 C 
ATOM      6  C   LIG    1        3.774   3.679  -2.113  0.00  0.00    +0.110 C 
ATOM      7  C   LIG    1        4.354   2.320  -1.784  0.00  0.00    -0.070 A 
ATOM      8  C   LIG    1        5.651   1.847  -1.896  0.00  0.00    +0.060 A 
ATOM      9  C   LIG    1        5.954   0.550  -1.530  0.00  0.00    +0.040 A 
ATOM     10  C   LIG    1        4.958  -0.282  -1.049  0.00  0.00    +0.070 A 
ATOM     11  C   LIG    1        3.660   0.190  -0.935  0.00  0.00    +0.090 A 
ATOM     12  F   LIG    1        2.687  -0.622  -0.465  0.00  0.00    -0.110 F 
ATOM     13  F   LIG    1        5.252  -1.551  -0.690  0.00  0.00    -0.120 F 
ATOM     14  C   LIG    1        3.357   1.491  -1.303  0.00  0.00    -0.150 A 
ENDBRANCH   1   4
BRANCH   2  15
ATOM     15  C   LIG    1        3.357   2.724   1.187  0.00  0.00    +0.170 C 
ATOM     16 CL   LIG    1        3.985   2.688   2.877  0.00  0.00    -0.130 Cl
ENDBRANCH   2  15
BRANCH   1  17
ATOM     17  C   LIG    1       -0.057   1.513  -0.045  0.00  0.00    +0.390 C 
BRANCH  17  21
ATOM     18  C   LIG    1       -0.057  -2.079  -0.833  0.00  0.00    -0.040 A 
ATOM     19  C   LIG    1       -0.192  -2.127   0.540  0.00  0.00    +0.060 A 
ATOM     20  C   LIG    1       -0.208  -0.805   0.995  0.00  0.00    -0.030 A 
ATOM     21  C   LIG    1       -0.086   0.006  -0.083  0.00  0.00    +0.040 A 
ATOM     22  N   LIG    1        0.000  -0.752  -1.196  0.00  0.00    -0.400 N 
ATOM     23  C   LIG    1        0.137  -0.246  -2.564  0.00  0.00    +0.310 C 
BRANCH  18  24
ATOM     24  C   LIG    1        0.007  -3.228  -1.738  0.00  0.00    +0.540 C 
ATOM     25  O   LIG    1       -0.061  -4.358  -1.293  0.00  0.00    -0.500 OA
BRANCH  24  27
ATOM     26  C   LIG    1        0.197  -4.220  -3.904  0.00  0.00    +0.270 C 
ATOM     27  O   LIG    1        0.140  -3.034  -3.067  0.00  0.00    -0.370 OA
ENDBRANCH  24  27
ENDBRANCH  18  24
ENDBRANCH  17  21
ENDBRANCH   1  17
TORSDOF 6
