REMARK  Name = ZINCnE000007MDri.1
REMARK                            x       y       z     vdW  Elec       q    Type
REMARK                         _______ _______ _______ _____ _____    ______ ____
ROOT
ATOM      1  O   LIG    1        3.827   2.556  -0.919  0.00  0.00    -0.960 OA
ATOM      2  S   LIG    1        3.545   3.493   0.112  0.00  0.00    +2.710 S 
ATOM      3  O   LIG    1        4.260   4.710   0.272  0.00  0.00    -0.950 OA
ENDROOT
BRANCH   2   4
ATOM      4  C   LIG    1        3.702   2.620   1.634  0.00  0.00    -0.790 A 
ATOM      5  C   LIG    1        4.081   1.291   1.633  0.00  0.00    +0.190 A 
ATOM      6  C   LIG    1        4.205   0.605   2.829  0.00  0.00    -0.170 A 
ATOM      7  C   LIG    1        3.949   1.247   4.027  0.00  0.00    +0.100 A 
ATOM      8  C   LIG    1        3.569   2.577   4.032  0.00  0.00    -0.150 A 
ATOM      9 CL   LIG    1        3.248   3.383   5.536  0.00  0.00    -0.090 Cl
ATOM     10 CL   LIG    1        4.681  -1.064   2.824  0.00  0.00    -0.100 Cl
ATOM     11  C   LIG    1        3.450   3.268   2.834  0.00  0.00    +0.350 A 
ATOM     12  O   LIG    1        3.083   4.577   2.837  0.00  0.00    -0.660 OA
ENDBRANCH   2   4
BRANCH   2  13
ATOM     13  N   LIG    1        1.950   3.905  -0.055  0.00  0.00    -1.000 N 
ATOM     14  H   LIG    1        1.690   4.840  -0.070  0.00  0.00    +0.440 HD
BRANCH  13  15
ATOM     15  C   LIG    1        0.987   2.916  -0.173  0.00  0.00    +0.310 A 
ATOM     16  N   LIG    1        1.234   1.646  -0.265  0.00  0.00    -0.510 NA
ATOM     17  C   LIG    1        0.192   0.841  -0.372  0.00  0.00    +0.270 A 
ATOM     18  C   LIG    1       -0.989   1.460  -0.374  0.00  0.00    -0.260 A 
ATOM     19  S   LIG    1       -0.700   3.191  -0.218  0.00  0.00    +0.140 S 
BRANCH  18  20
ATOM     20  C   LIG    1       -2.337   0.795  -0.488  0.00  0.00    +0.070 C 
ATOM     21  C   LIG    1       -3.107   1.339  -1.716  0.00  0.00    +0.020 C 
ATOM     22  C   LIG    1       -4.551   1.464  -1.160  0.00  0.00    +0.190 C 
ATOM     23  O   LIG    1       -4.354   1.895   0.203  0.00  0.00    -0.380 OA
ATOM     24  C   LIG    1       -3.225   1.167   0.715  0.00  0.00    +0.210 C 
ENDBRANCH  18  20
ENDBRANCH  13  15
ENDBRANCH   2  13
TORSDOF 4
