REMARK  Name = ZINCpe000000WvFm.0
REMARK                            x       y       z     vdW  Elec       q    Type
REMARK                         _______ _______ _______ _____ _____    ______ ____
ROOT
ATOM      1  C   LIG    1       -1.741   2.022  -5.869  0.00  0.00    +0.100 C 
ENDROOT
BRANCH   1   2
ATOM      2  C   LIG    1       -1.530   1.048  -4.739  0.00  0.00    +0.520 C 
ATOM      3  N   LIG    1       -1.038   1.479  -3.561  0.00  0.00    -0.620 N 
ATOM      4  C   LIG    1       -0.667   2.868  -3.244  0.00  0.00    +0.250 C 
ATOM      5  C   LIG    1       -0.177   2.891  -1.777  0.00  0.00    +0.060 C 
ATOM      6  C   LIG    1       -0.793   1.612  -1.195  0.00  0.00    -0.090 C 
ATOM      7  C   LIG    1       -0.013   1.086   0.008  0.00  0.00    +0.290 C 
ATOM      8  N   LIG    1       -0.742   1.581   1.187  0.00  0.00    -0.730 N 
ATOM      9  H   LIG    1       -0.382   1.596   2.087  0.00  0.00    +0.410 HD
ATOM     10  C   LIG    1       -1.976   2.010   0.851  0.00  0.00    +0.520 C 
ATOM     11  O   LIG    1       -2.789   2.461   1.629  0.00  0.00    -0.530 OA
ATOM     12  C   LIG    1       -2.199   1.846  -0.640  0.00  0.00    +0.080 C 
ATOM     13  C   LIG    1       -0.784   0.636  -2.374  0.00  0.00    +0.300 C 
ATOM     14  O   LIG    1       -1.803  -0.124  -4.890  0.00  0.00    -0.500 OA
ENDBRANCH   1   2
BRANCH   1  24
ATOM     15  C   LIG    1       -3.342   3.796 -10.344  0.00  0.00    +0.170 A 
ATOM     16  C   LIG    1       -1.993   3.766 -10.022  0.00  0.00    -0.090 A 
ATOM     17  C   LIG    1       -1.554   2.976  -8.974  0.00  0.00    +0.110 A 
ATOM     18  C   LIG    1       -2.453   2.223  -8.257  0.00  0.00    -0.180 A 
ATOM     19  C   LIG    1       -3.810   2.243  -8.567  0.00  0.00    +0.190 A 
ATOM     20  N   LIG    1       -4.516   1.404  -7.704  0.00  0.00    -0.660 N 
ATOM     21  H   LIG    1       -5.476   1.269  -7.745  0.00  0.00    +0.410 HD
ATOM     22  C   LIG    1       -3.713   0.805  -6.808  0.00  0.00    +0.530 C 
ATOM     23  O   LIG    1       -4.055   0.028  -5.942  0.00  0.00    -0.460 OA
ATOM     24  C   LIG    1       -2.303   1.281  -7.084  0.00  0.00    +0.070 C 
ATOM     25  C   LIG    1       -4.249   3.038  -9.622  0.00  0.00    -0.040 A 
BRANCH  15  27
ATOM     26  C   LIG    1       -2.788   5.327 -12.076  0.00  0.00    +0.250 C 
ATOM     27  O   LIG    1       -3.775   4.571 -11.373  0.00  0.00    -0.310 OA
ENDBRANCH  15  27
ENDBRANCH   1  24
TORSDOF 3
