REMARK  Name = ZINCtV00000L6jkK.0
REMARK                            x       y       z     vdW  Elec       q    Type
REMARK                         _______ _______ _______ _____ _____    ______ ____
ROOT
ATOM      1  C   LIG    1        2.890   4.280   1.101  0.00  0.00    +0.230 C 
ATOM      2  N   LIG    1        2.692   4.885  -0.039  0.00  0.00    -0.420 NA
ATOM      3  C   LIG    1        3.235   4.351  -1.167  0.00  0.00    +0.360 A 
ATOM      4  N   LIG    1        3.382   4.870  -2.357  0.00  0.00    -0.430 NA
ATOM      5  C   LIG    1        3.977   3.967  -3.163  0.00  0.00    +0.040 A 
ATOM      6  C   LIG    1        4.192   2.829  -2.441  0.00  0.00    +0.180 A 
ATOM      7  N   LIG    1        3.717   3.062  -1.194  0.00  0.00    -0.480 N 
ATOM      8  C   LIG    1        3.672   2.184  -0.022  0.00  0.00    +0.300 C 
ATOM      9  C   LIG    1        3.760   3.062   1.232  0.00  0.00    +0.090 C 
ENDROOT
BRANCH   1  14
ATOM     10  C   LIG    1        0.335   6.364   5.809  0.00  0.00    +0.100 C 
ATOM     11  C   LIG    1        1.005   5.818   4.575  0.00  0.00    -0.060 A 
ATOM     12  C   LIG    1        0.811   6.440   3.354  0.00  0.00    +0.000 A 
ATOM     13  C   LIG    1        1.420   5.946   2.220  0.00  0.00    +0.080 A 
ATOM     14  C   LIG    1        2.236   4.814   2.306  0.00  0.00    -0.080 A 
ATOM     15  C   LIG    1        2.423   4.188   3.543  0.00  0.00    +0.050 A 
ATOM     16  C   LIG    1        1.811   4.697   4.668  0.00  0.00    +0.000 A 
ENDBRANCH   1  14
BRANCH   8  17
ATOM     17  C   LIG    1        2.377   1.412  -0.013  0.00  0.00    -0.130 A 
ATOM     18  C   LIG    1        1.171   2.087   0.002  0.00  0.00    +0.060 A 
ATOM     19  C   LIG    1       -0.017   1.380   0.010  0.00  0.00    -0.010 A 
ATOM     20  C   LIG    1        0.002  -0.004   0.002  0.00  0.00    +0.120 A 
ATOM     21  C   LIG    1        1.211  -0.679  -0.013  0.00  0.00    -0.010 A 
ATOM     22  F   LIG    1       -1.158  -0.696   0.010  0.00  0.00    -0.130 F 
ATOM     23  C   LIG    1        2.397   0.030  -0.021  0.00  0.00    +0.070 A 
ENDBRANCH   8  17
BRANCH   5  24
ATOM     24  C   LIG    1        4.335   4.174  -4.588  0.00  0.00    -0.000 A 
ATOM     25  C   LIG    1        4.955   3.155  -5.309  0.00  0.00    +0.010 A 
ATOM     26  C   LIG    1        5.282   3.352  -6.635  0.00  0.00    +0.000 A 
ATOM     27  C   LIG    1        5.004   4.562  -7.246  0.00  0.00    +0.000 A 
ATOM     28  C   LIG    1        4.394   5.579  -6.534  0.00  0.00    +0.000 A 
ATOM     29  C   LIG    1        4.058   5.391  -5.208  0.00  0.00    +0.040 A 
ENDBRANCH   5  24
TORSDOF 3
