REMARK  Name = ZINCrD000000Atqr.0
REMARK                            x       y       z     vdW  Elec       q    Type
REMARK                         _______ _______ _______ _____ _____    ______ ____
ROOT
ATOM      1  C   LIG    1       -1.222   9.161   0.080  0.00  0.00    +0.150 A 
ATOM      2  N   LIG    1       -2.405   8.590   0.127  0.00  0.00    -0.280 NA
ATOM      3  N   LIG    1       -3.327   9.485   0.098  0.00  0.00    -0.260 NA
ATOM      4  C   LIG    1       -2.790  10.680   0.030  0.00  0.00    +0.230 A 
ATOM      5  N   LIG    1       -1.425  10.510   0.022  0.00  0.00    -0.430 N 
ENDROOT
BRANCH   4   6
ATOM      6  C   LIG    1       -3.515  11.968  -0.023  0.00  0.00    -0.070 A 
ATOM      7  C   LIG    1       -4.840  12.021  -0.472  0.00  0.00    +0.120 A 
ATOM      8  C   LIG    1       -5.475  13.250  -0.498  0.00  0.00    -0.020 A 
ATOM      9  C   LIG    1       -4.784  14.378  -0.092  0.00  0.00    +0.270 A 
ATOM     10  N   LIG    1       -3.534  14.298   0.322  0.00  0.00    -0.480 NA
ATOM     11  C   LIG    1       -2.889  13.152   0.370  0.00  0.00    +0.270 A 
ENDBRANCH   4   6
BRANCH   5  12
ATOM     12  C   LIG    1       -0.402  11.557  -0.039  0.00  0.00    +0.190 C 
ATOM     13  C   LIG    1        1.019  11.136  -0.416  0.00  0.00    +0.080 C 
ATOM     14  C   LIG    1        0.696  11.534   1.026  0.00  0.00    +0.060 C 
ENDBRANCH   5  12
BRANCH   1  15
ATOM     15  S   LIG    1        0.336   8.338   0.096  0.00  0.00    +0.080 S 
BRANCH  15  16
ATOM     16  C   LIG    1       -0.218   6.617   0.190  0.00  0.00    +0.090 C 
BRANCH  16  18
ATOM     17  O   LIG    1        2.100   6.171   0.176  0.00  0.00    -0.430 OA
ATOM     18  C   LIG    1        0.981   5.705   0.217  0.00  0.00    +0.420 C 
BRANCH  18  19
ATOM     19  C   LIG    1        0.795   4.250   0.292  0.00  0.00    -0.160 A 
ATOM     20  C   LIG    1       -0.495   3.709   0.338  0.00  0.00    +0.100 A 
ATOM     21  C   LIG    1       -0.667   2.344   0.403  0.00  0.00    +0.040 A 
ATOM     22  C   LIG    1        0.436   1.500   0.432  0.00  0.00    +0.070 A 
ATOM     23  O   LIG    1        0.529   0.142   0.497  0.00  0.00    -0.300 OA
ATOM     24  C   LIG    1        1.883  -0.133   0.903  0.00  0.00    +0.440 C 
ATOM     25  O   LIG    1        2.623   1.004   0.423  0.00  0.00    -0.300 OA
ATOM     26  C   LIG    1        1.727   2.033   0.386  0.00  0.00    +0.020 A 
ATOM     27  C   LIG    1        1.907   3.399   0.316  0.00  0.00    +0.110 A 
ENDBRANCH  18  19
ENDBRANCH  16  18
ENDBRANCH  15  16
ENDBRANCH   1  15
TORSDOF 6
