REMARK  Name = ZINCpe000000Yo4a.0
REMARK                            x       y       z     vdW  Elec       q    Type
REMARK                         _______ _______ _______ _____ _____    ______ ____
ROOT
ATOM      1  C   LIG    1       -2.535   5.081   1.491  0.00  0.00    +0.230 C 
ATOM      2  C   LIG    1       -1.302   5.983   1.406  0.00  0.00    +0.020 C 
ATOM      3  C   LIG    1       -0.038   5.121   1.372  0.00  0.00    +0.030 C 
ATOM      4  C   LIG    1       -0.069   4.226   0.129  0.00  0.00    +0.260 C 
ATOM      5  N   LIG    1       -1.322   3.460   0.129  0.00  0.00    -0.610 N 
ATOM      6  C   LIG    1       -1.305   2.116   0.020  0.00  0.00    +0.560 C 
ATOM      7  O   LIG    1       -2.350   1.499  -0.048  0.00  0.00    -0.520 OA
ATOM      8  C   LIG    1       -2.594   4.186   0.244  0.00  0.00    +0.270 C 
ENDROOT
BRANCH   6   9
ATOM      9  C   LIG    1       -0.016   1.394  -0.017  0.00  0.00    -0.130 A 
ATOM     10  C   LIG    1        0.984   1.790  -0.906  0.00  0.00    +0.040 A 
ATOM     11  C   LIG    1        2.183   1.107  -0.940  0.00  0.00    +0.010 A 
ATOM     12  C   LIG    1        2.394   0.033  -0.094  0.00  0.00    +0.030 A 
ATOM     13  C   LIG    1        1.407  -0.365   0.790  0.00  0.00    +0.010 A 
ATOM     14  C   LIG    1        0.204   0.309   0.833  0.00  0.00    +0.060 A 
ENDBRANCH   6   9
BRANCH   1  16
ATOM     15  C   LIG    1       -4.863   5.420   2.125  0.00  0.00    +0.590 C 
ATOM     16  N   LIG    1       -3.742   5.907   1.557  0.00  0.00    -0.710 N 
ATOM     17  H   LIG    1       -3.735   6.806   1.191  0.00  0.00    +0.410 HD
ATOM     18  O   LIG    1       -4.872   4.294   2.583  0.00  0.00    -0.510 OA
BRANCH  15  22
ATOM     19  C   LIG    1       -7.011   9.580   1.156  0.00  0.00    +0.360 C 
ATOM     20  N   LIG    1       -7.102   8.235   1.729  0.00  0.00    -0.340 N 
ATOM     21  N   LIG    1       -6.069   7.473   1.700  0.00  0.00    -0.180 NA
ATOM     22  C   LIG    1       -6.082   6.254   2.191  0.00  0.00    +0.020 A 
ATOM     23  C   LIG    1       -7.258   5.739   2.788  0.00  0.00    +0.140 A 
ATOM     24  C   LIG    1       -8.362   6.538   2.832  0.00  0.00    -0.010 A 
ATOM     25  C   LIG    1       -8.264   7.833   2.276  0.00  0.00    +0.480 A 
ATOM     26  O   LIG    1       -9.226   8.582   2.292  0.00  0.00    -0.520 OA
ENDBRANCH  15  22
ENDBRANCH   1  16
TORSDOF 3
