REMARK  Name = ZINCpk00000xI06b.0
REMARK                            x       y       z     vdW  Elec       q    Type
REMARK                         _______ _______ _______ _____ _____    ______ ____
ROOT
ATOM      1  N   LIG    1       -2.698   1.882  -0.455  0.00  0.00    -0.520 NA
ATOM      2  C   LIG    1       -2.885   0.601   0.244  0.00  0.00    +0.190 C 
ATOM      3  C   LIG    1       -1.853  -0.398  -0.281  0.00  0.00    +0.140 C 
ATOM      4  C   LIG    1       -0.479   0.218  -0.243  0.00  0.00    +0.190 A 
ATOM      5  N   LIG    1        0.587  -0.570  -0.329  0.00  0.00    -0.520 NA
ATOM      6  C   LIG    1        1.805  -0.069  -0.307  0.00  0.00    +0.510 A 
ATOM      7  N   LIG    1        2.022   1.226  -0.199  0.00  0.00    -0.550 NA
ATOM      8  C   LIG    1        1.005   2.077  -0.108  0.00  0.00    +0.340 A 
ATOM      9  C   LIG    1       -0.300   1.576  -0.126  0.00  0.00    -0.150 A 
ATOM     10  C   LIG    1       -1.457   2.529  -0.012  0.00  0.00    +0.270 C 
ENDROOT
BRANCH   8  11
ATOM     11  N   LIG    1        1.235   3.439   0.005  0.00  0.00    -0.500 N 
ATOM     12  C   LIG    1        1.944   3.952  -1.175  0.00  0.00    +0.230 C 
ATOM     13  C   LIG    1        1.970   3.748   1.238  0.00  0.00    +0.230 C 
ENDBRANCH   8  11
BRANCH   1  14
ATOM     14  C   LIG    1       -3.853   2.766  -0.253  0.00  0.00    +0.220 C 
BRANCH  14  16
ATOM     15  N   LIG    1       -6.250   2.809  -0.864  0.00  0.00    -0.620 N 
ATOM     16  C   LIG    1       -5.066   2.168  -0.918  0.00  0.00    +0.520 C 
ATOM     17  O   LIG    1       -4.976   1.109  -1.504  0.00  0.00    -0.510 OA
ATOM     18  C   LIG    1       -6.359   4.088  -0.157  0.00  0.00    +0.280 C 
BRANCH  15  19
ATOM     19  C   LIG    1       -7.429   2.227  -1.510  0.00  0.00    +0.410 C 
BRANCH  19  24
ATOM     20  C   LIG    1       -8.815  -1.865   1.092  0.00  0.00    +0.170 C 
ATOM     21  C   LIG    1       -8.754  -0.442   0.600  0.00  0.00    -0.010 A 
ATOM     22  C   LIG    1       -9.517   0.575   1.038  0.00  0.00    -0.070 A 
ATOM     23  C   LIG    1       -9.128   1.722   0.308  0.00  0.00    -0.040 A 
ATOM     24  C   LIG    1       -8.151   1.337  -0.532  0.00  0.00    -0.040 A 
ATOM     25  O   LIG    1       -7.932   0.024  -0.355  0.00  0.00    -0.160 OA
ENDBRANCH  19  24
ENDBRANCH  15  19
ENDBRANCH  14  16
ENDBRANCH   1  14
TORSDOF 5
