REMARK  Name = ZINCpk00000xXxDE.0
REMARK                            x       y       z     vdW  Elec       q    Type
REMARK                         _______ _______ _______ _____ _____    ______ ____
ROOT
ATOM      1  C   LIG    1        1.085   3.063   0.013  0.00  0.00    -0.140 A 
ATOM      2  C   LIG    1       -0.136   3.637  -0.277  0.00  0.00    +0.480 A 
ATOM      3  N   LIG    1       -1.258   2.842  -0.322  0.00  0.00    -0.530 N 
ATOM      4  C   LIG    1       -1.165   1.520  -0.093  0.00  0.00    +0.710 A 
ATOM      5  N   LIG    1        0.016   0.944   0.195  0.00  0.00    -0.660 N 
ATOM      6  H   LIG    1        0.055  -0.011   0.360  0.00  0.00    +0.430 HD
ATOM      7  O   LIG    1       -2.168   0.834  -0.143  0.00  0.00    -0.530 OA
ATOM      8  C   LIG    1        1.145   1.677   0.252  0.00  0.00    +0.570 A 
ATOM      9  O   LIG    1        2.210   1.144   0.511  0.00  0.00    -0.510 OA
ENDROOT
BRANCH   1  11
ATOM     10  C   LIG    1        3.234   3.668  -0.843  0.00  0.00    +0.520 C 
ATOM     11  N   LIG    1        2.254   3.851   0.067  0.00  0.00    -0.530 N 
ATOM     12  O   LIG    1        3.073   2.890  -1.760  0.00  0.00    -0.520 OA
BRANCH  11  13
ATOM     13  C   LIG    1        2.404   4.868   1.110  0.00  0.00    +0.260 C 
ATOM     14  C   LIG    1        3.192   4.282   2.284  0.00  0.00    +0.020 C 
ENDBRANCH  11  13
BRANCH  10  15
ATOM     15  C   LIG    1        4.528   4.430  -0.720  0.00  0.00    +0.060 C 
BRANCH  15  16
ATOM     16  C   LIG    1        5.460   4.041  -1.869  0.00  0.00    +0.080 C 
BRANCH  16  18
ATOM     17  C   LIG    1        7.894   4.158  -1.711  0.00  0.00    +0.010 C 
ATOM     18  C   LIG    1        6.755   4.803  -1.746  0.00  0.00    -0.050 C 
ENDBRANCH  16  18
ENDBRANCH  15  16
ENDBRANCH  10  15
ENDBRANCH   1  11
BRANCH   2  19
ATOM     19  N   LIG    1       -0.230   4.987  -0.516  0.00  0.00    -0.830 N 
ATOM     20  H   LIG    1       -1.083   5.378  -0.760  0.00  0.00    +0.410 HD
ATOM     21  H   LIG    1        0.558   5.549  -0.442  0.00  0.00    +0.420 HD
ENDBRANCH   2  19
BRANCH   3  22
ATOM     22  C   LIG    1       -2.560   3.439  -0.628  0.00  0.00    +0.370 C 
BRANCH  22  23
ATOM     23  C   LIG    1       -2.788   3.414  -2.117  0.00  0.00    -0.130 A 
ATOM     24  C   LIG    1       -2.381   4.481  -2.897  0.00  0.00    +0.020 A 
ATOM     25  C   LIG    1       -2.586   4.456  -4.264  0.00  0.00    +0.010 A 
ATOM     26  C   LIG    1       -3.205   3.368  -4.850  0.00  0.00    +0.030 A 
ATOM     27  C   LIG    1       -3.616   2.303  -4.070  0.00  0.00    +0.010 A 
ATOM     28  C   LIG    1       -3.407   2.326  -2.704  0.00  0.00    +0.040 A 
ENDBRANCH  22  23
ENDBRANCH   3  22
TORSDOF 8
