REMARK  Name = ZINCpk00000KfLMN.0
REMARK                            x       y       z     vdW  Elec       q    Type
REMARK                         _______ _______ _______ _____ _____    ______ ____
ROOT
ATOM      1  N   LIG    1        2.491   0.898   0.097  0.00  0.00    -0.510 NA
ATOM      2  C   LIG    1        2.449   0.058  -1.106  0.00  0.00    +0.180 C 
ATOM      3  C   LIG    1        3.675  -0.858  -1.135  0.00  0.00    +0.030 C 
ATOM      4  C   LIG    1        4.945  -0.003  -1.131  0.00  0.00    +0.010 C 
ATOM      5  C   LIG    1        4.941   0.897   0.108  0.00  0.00    +0.040 C 
ATOM      6  C   LIG    1        3.679   1.762   0.100  0.00  0.00    +0.130 C 
ENDROOT
BRANCH   1   7
ATOM      7  C   LIG    1        1.262   1.691   0.230  0.00  0.00    +0.220 C 
BRANCH   7  10
ATOM      8  N   LIG    1       -1.112   1.300   0.801  0.00  0.00    -0.650 N 
ATOM      9  H   LIG    1       -1.267   2.249   0.675  0.00  0.00    +0.410 HD
ATOM     10  C   LIG    1        0.122   0.789   0.627  0.00  0.00    +0.520 C 
ATOM     11  O   LIG    1        0.315  -0.399   0.784  0.00  0.00    -0.480 OA
BRANCH   8  16
ATOM     12  C   LIG    1       -3.753  -2.752   2.033  0.00  0.00    +0.160 C 
ATOM     13  C   LIG    1       -3.374  -1.329   1.716  0.00  0.00    +0.090 A 
ATOM     14  N   LIG    1       -4.185  -0.302   1.716  0.00  0.00    -0.290 NA
ATOM     15  N   LIG    1       -3.451   0.840   1.370  0.00  0.00    -0.390 N 
ATOM     16  C   LIG    1       -2.168   0.464   1.163  0.00  0.00    +0.300 A 
ATOM     17  C   LIG    1       -3.979   2.202   1.255  0.00  0.00    +0.360 C 
ATOM     18  C   LIG    1       -2.097  -0.880   1.366  0.00  0.00    -0.100 A 
ENDBRANCH   8  16
ENDBRANCH   7  10
ENDBRANCH   1   7
BRANCH   6  19
ATOM     19  C   LIG    1        3.660   2.649   1.346  0.00  0.00    +0.340 C 
BRANCH  19  20
ATOM     20  N   LIG    1        4.829   3.533   1.334  0.00  0.00    -0.380 N 
ATOM     21  N   LIG    1        6.114   3.235   1.815  0.00  0.00    -0.310 NA
ATOM     22  C   LIG    1        6.850   4.296   1.608  0.00  0.00    +0.220 A 
ATOM     23  N   LIG    1        6.101   5.237   1.036  0.00  0.00    -0.540 NA
ATOM     24  C   LIG    1        8.308   4.433   1.964  0.00  0.00    +0.190 C 
ATOM     25  C   LIG    1        4.882   4.792   0.865  0.00  0.00    +0.280 A 
ATOM     26  C   LIG    1        3.738   5.556   0.250  0.00  0.00    +0.190 C 
ENDBRANCH  19  20
ENDBRANCH   6  19
TORSDOF 5
