REMARK  Name = ZINCpk00001AZj1n.0
REMARK                            x       y       z     vdW  Elec       q    Type
REMARK                         _______ _______ _______ _____ _____    ______ ____
ROOT
ATOM      1  N   LIG    1       -0.271   1.076   2.590  0.00  0.00    -0.610 N 
ATOM      2  C   LIG    1       -0.458  -0.227   2.879  0.00  0.00    +0.530 C 
ATOM      3  O   LIG    1        0.164  -0.742   3.785  0.00  0.00    -0.520 OA
ENDROOT
BRANCH   2   4
ATOM      4  C   LIG    1       -1.438  -1.044   2.078  0.00  0.00    -0.010 C 
ATOM      5  C   LIG    1       -0.938  -1.245   0.629  0.00  0.00    +0.080 C 
ATOM      6  C   LIG    1       -1.362  -2.655   0.281  0.00  0.00    +0.520 C 
ATOM      7  N   LIG    1       -1.675  -3.332   1.399  0.00  0.00    -0.620 N 
ATOM      8  C   LIG    1       -2.134  -4.723   1.422  0.00  0.00    +0.290 C 
ATOM      9  O   LIG    1       -1.413  -3.108  -0.842  0.00  0.00    -0.530 OA
ATOM     10  C   LIG    1       -1.498  -2.499   2.595  0.00  0.00    +0.300 C 
ENDBRANCH   2   4
BRANCH   1  11
ATOM     11  C   LIG    1       -1.093   1.723   1.565  0.00  0.00    +0.280 C 
BRANCH  11  12
ATOM     12  C   LIG    1       -0.345   1.713   0.230  0.00  0.00    +0.050 C 
BRANCH  12  14
ATOM     13  C   LIG    1       -0.837   3.279  -1.600  0.00  0.00    -0.010 C 
ATOM     14  C   LIG    1       -1.242   2.258  -0.852  0.00  0.00    -0.040 C 
BRANCH  13  16
ATOM     15  C   LIG    1       -1.307   4.831  -3.404  0.00  0.00    +0.030 C 
ATOM     16  C   LIG    1       -1.712   3.810  -2.656  0.00  0.00    -0.030 C 
ENDBRANCH  13  16
ENDBRANCH  12  14
ENDBRANCH  11  12
ENDBRANCH   1  11
BRANCH   1  17
ATOM     17  C   LIG    1        0.754   1.844   3.300  0.00  0.00    +0.370 C 
BRANCH  17  18
ATOM     18  C   LIG    1        0.152   2.465   4.534  0.00  0.00    -0.260 A 
ATOM     19  C   LIG    1       -0.417   3.728   4.486  0.00  0.00    +0.370 A 
ATOM     20  N   LIG    1       -0.941   4.241   5.587  0.00  0.00    -0.570 NA
ATOM     21  C   LIG    1       -0.918   3.567   6.726  0.00  0.00    +0.500 A 
ATOM     22  N   LIG    1       -0.378   2.361   6.807  0.00  0.00    -0.520 NA
ATOM     23  C   LIG    1        0.160   1.788   5.743  0.00  0.00    +0.400 A 
BRANCH  21  24
ATOM     24  O   LIG    1       -1.459   4.124   7.835  0.00  0.00    -0.290 OA
ATOM     25  C   LIG    1       -2.029   5.427   7.694  0.00  0.00    +0.270 C 
ENDBRANCH  21  24
ENDBRANCH  17  18
ENDBRANCH   1  17
TORSDOF 8
