REMARK  Name = ZINC670000002lzO.0
REMARK                            x       y       z     vdW  Elec       q    Type
REMARK                         _______ _______ _______ _____ _____    ______ ____
ROOT
ATOM      1  C   LIG    1       -0.018   1.468   0.010  0.00  0.00    +0.070 C 
ATOM      2  C   LIG    1       -1.141   2.155   0.790  0.00  0.00    +0.140 C 
ATOM      3  C   LIG    1       -1.155   2.163  -0.741  0.00  0.00    +0.140 C 
ENDROOT
BRANCH   1   4
ATOM      4  N   LIG    1        1.299   2.119   0.001  0.00  0.00    -0.600 N 
ATOM      5  H   LIG    1        1.953   1.562   0.529  0.00  0.00    +0.440 HD
ATOM      6  H   LIG    1        1.224   3.035   0.417  0.00  0.00    +0.440 HD
ATOM      7  H   LIG    1        1.624   2.208  -0.950  0.00  0.00    +0.440 HD
ENDBRANCH   1   4
BRANCH   1   9
ATOM      8  C   LIG    1        0.018  -1.178  -0.004  0.00  0.00    +0.190 C 
ATOM      9  C   LIG    1        0.002  -0.004   0.002  0.00  0.00    -0.250 C 
ENDBRANCH   1   9
TORSDOF 2
