REMARK  Name = ZINCpk00000y6tRB.0
REMARK                            x       y       z     vdW  Elec       q    Type
REMARK                         _______ _______ _______ _____ _____    ______ ____
ROOT
ATOM      1  C   LIG    1       -1.441   3.006  -1.429  0.00  0.00    +0.300 C 
ENDROOT
BRANCH   1   2
ATOM      2  C   LIG    1       -1.310   1.923  -0.355  0.00  0.00    +0.180 C 
ATOM      3  C   LIG    1       -1.191   2.563   1.001  0.00  0.00    +0.030 C 
ATOM      4  C   LIG    1       -0.279   1.763   1.952  0.00  0.00    +0.010 C 
ATOM      5  C   LIG    1       -0.502   0.242   1.856  0.00  0.00    +0.000 C 
ATOM      6  C   LIG    1       -1.960  -0.121   1.760  0.00  0.00    +0.010 C 
ATOM      7  C   LIG    1       -2.333  -0.261   0.270  0.00  0.00    +0.010 C 
ATOM      8  C   LIG    1       -2.565   1.027  -0.367  0.00  0.00    +0.040 C 
BRANCH   2   9
ATOM      9  N   LIG    1       -0.121   1.109  -0.622  0.00  0.00    -0.720 N 
ATOM     10  H   LIG    1        0.619   1.112   0.005  0.00  0.00    +0.410 HD
ATOM     11  C   LIG    1       -0.059   0.350  -1.734  0.00  0.00    +0.500 C 
ATOM     12  O   LIG    1       -1.020   0.274  -2.470  0.00  0.00    -0.500 OA
BRANCH  11  13
ATOM     13  C   LIG    1        1.204  -0.402  -2.064  0.00  0.00    +0.170 C 
ATOM     14 CL   LIG    1        0.975  -1.316  -3.601  0.00  0.00    -0.120 Cl
ENDBRANCH  11  13
ENDBRANCH   2   9
ENDBRANCH   1   2
BRANCH   1  16
ATOM     15  C   LIG    1       -0.096   4.819  -2.345  0.00  0.00    +0.480 C 
ATOM     16  N   LIG    1       -0.245   3.852  -1.418  0.00  0.00    -0.700 N 
ATOM     17  H   LIG    1        0.439   3.716  -0.744  0.00  0.00    +0.410 HD
ATOM     18  O   LIG    1       -0.951   4.988  -3.188  0.00  0.00    -0.480 OA
BRANCH  15  19
ATOM     19  C   LIG    1        1.135   5.689  -2.334  0.00  0.00    +0.380 C 
ATOM     20  F   LIG    1        2.240   4.928  -1.939  0.00  0.00    -0.180 F 
ATOM     21  F   LIG    1        0.951   6.745  -1.436  0.00  0.00    -0.150 F 
BRANCH  19  27
ATOM     22  C   LIG    1        1.797   4.078  -4.919  0.00  0.00    +0.390 C 
ATOM     23  N   LIG    1        1.660   5.534  -4.835  0.00  0.00    -0.260 N 
ATOM     24  N   LIG    1        1.789   6.362  -5.812  0.00  0.00    -0.050 NA
ATOM     25  N   LIG    1        1.611   7.567  -5.399  0.00  0.00    -0.260 NA
ATOM     26  C   LIG    1        1.347   7.541  -4.088  0.00  0.00    +0.220 A 
ATOM     27  C   LIG    1        1.372   6.240  -3.717  0.00  0.00    -0.090 A 
ENDBRANCH  19  27
ENDBRANCH  15  19
ENDBRANCH   1  16
TORSDOF 6
