REMARK  Name = ZINCpe000000UoEa.0
REMARK                            x       y       z     vdW  Elec       q    Type
REMARK                         _______ _______ _______ _____ _____    ______ ____
ROOT
ATOM      1  C   LIG    1        4.301   7.271   0.498  0.00  0.00    +0.520 C 
ATOM      2  N   LIG    1        3.013   7.033   0.815  0.00  0.00    -0.730 N 
ATOM      3  H   LIG    1        2.412   7.773   0.992  0.00  0.00    +0.400 HD
ATOM      4  O   LIG    1        5.053   6.346   0.276  0.00  0.00    -0.530 OA
ENDROOT
BRANCH   1  11
ATOM      5  C   LIG    1        6.305  12.786  -4.049  0.00  0.00    +0.300 C 
ATOM      6  N   LIG    1        5.769  11.891  -3.020  0.00  0.00    -0.640 N 
ATOM      7  C   LIG    1        6.508  11.598  -1.931  0.00  0.00    +0.710 C 
ATOM      8  N   LIG    1        5.963  10.899  -0.915  0.00  0.00    -0.630 N 
ATOM      9  C   LIG    1        6.811  10.120  -0.003  0.00  0.00    +0.290 C 
ATOM     10  C   LIG    1        6.291   8.680   0.043  0.00  0.00    +0.040 C 
ATOM     11  C   LIG    1        4.808   8.689   0.418  0.00  0.00    +0.000 C 
ATOM     12  C   LIG    1        4.016   9.454  -0.645  0.00  0.00    +0.030 C 
ATOM     13  C   LIG    1        4.510  10.903  -0.700  0.00  0.00    +0.260 C 
ATOM     14  O   LIG    1        7.666  11.963  -1.866  0.00  0.00    -0.580 OA
ATOM     15  C   LIG    1        4.431  11.316  -3.174  0.00  0.00    +0.280 C 
ENDBRANCH   1  11
BRANCH   2  16
ATOM     16  C   LIG    1        2.521   5.655   0.893  0.00  0.00    +0.240 C 
BRANCH  16  17
ATOM     17  C   LIG    1        1.038   5.664   1.268  0.00  0.00    +0.280 C 
BRANCH  17  18
ATOM     18  N   LIG    1        0.546   4.286   1.346  0.00  0.00    -0.710 N 
ATOM     19  H   LIG    1        1.147   3.546   1.169  0.00  0.00    +0.410 HD
BRANCH  18  20
ATOM     20  C   LIG    1       -0.777   4.041   1.672  0.00  0.00    +0.450 A 
ATOM     21  N   LIG    1       -1.594   5.054   1.913  0.00  0.00    -0.540 NA
ATOM     22  C   LIG    1       -2.861   4.865   2.227  0.00  0.00    +0.350 A 
ATOM     23  C   LIG    1       -3.394   3.592   2.319  0.00  0.00    -0.080 A 
ATOM     24  C   LIG    1       -2.586   2.495   2.077  0.00  0.00    +0.160 A 
ATOM     25  C   LIG    1       -1.245   2.718   1.745  0.00  0.00    -0.150 A 
BRANCH  25  26
ATOM     26  C   LIG    1       -0.366   1.618   1.485  0.00  0.00    +0.250 C 
ATOM     27  N   LIG    1        0.332   0.745   1.280  0.00  0.00    -0.410 NA
ENDBRANCH  25  26
ENDBRANCH  18  20
ENDBRANCH  17  18
ENDBRANCH  16  17
ENDBRANCH   2  16
TORSDOF 6
