REMARK  Name = ZINCrg000000oKqy.1
REMARK                            x       y       z     vdW  Elec       q    Type
REMARK                         _______ _______ _______ _____ _____    ______ ____
ROOT
ATOM      1  C   LIG    1        3.691  -0.693  -0.035  0.00  0.00    +0.570 C 
ATOM      2  N   LIG    1        3.706  -2.037  -0.144  0.00  0.00    -0.610 N 
ATOM      3  C   LIG    1        2.452  -2.800  -0.241  0.00  0.00    +0.300 C 
ATOM      4  C   LIG    1        2.552  -3.736  -1.456  0.00  0.00    +0.160 C 
ATOM      5  N   LIG    1        3.768  -4.552  -1.342  0.00  0.00    -0.530 NA
ATOM      6  C   LIG    1        4.975  -3.716  -1.373  0.00  0.00    +0.170 C 
ATOM      7  C   LIG    1        4.976  -2.779  -0.161  0.00  0.00    +0.280 C 
ATOM      8  O   LIG    1        2.632  -0.102   0.050  0.00  0.00    -0.510 OA
ENDROOT
BRANCH   1  14
ATOM      9  C   LIG    1        5.158   1.125  -0.909  0.00  0.00    +0.170 A 
ATOM     10  C   LIG    1        6.354   1.825  -0.887  0.00  0.00    -0.090 A 
ATOM     11  C   LIG    1        7.346   1.473   0.007  0.00  0.00    +0.070 A 
ATOM     12  C   LIG    1        7.154   0.421   0.887  0.00  0.00    -0.030 A 
ATOM     13  C   LIG    1        5.971  -0.286   0.878  0.00  0.00    +0.090 A 
ATOM     14  C   LIG    1        4.960   0.059  -0.021  0.00  0.00    -0.160 A 
BRANCH   9  15
ATOM     15  O   LIG    1        4.183   1.470  -1.787  0.00  0.00    -0.270 OA
BRANCH  15  16
ATOM     16  C   LIG    1        4.456   2.567  -2.662  0.00  0.00    +0.230 C 
BRANCH  16  19
ATOM     17  C   LIG    1        2.143   4.021  -5.343  0.00  0.00    +0.290 C 
ATOM     18  N   LIG    1        3.298   3.792  -4.472  0.00  0.00    -0.620 N 
ATOM     19  C   LIG    1        3.267   2.802  -3.559  0.00  0.00    +0.510 C 
ATOM     20  O   LIG    1        2.284   2.099  -3.458  0.00  0.00    -0.500 OA
ATOM     21  C   LIG    1        4.486   4.641  -4.593  0.00  0.00    +0.280 C 
ENDBRANCH  16  19
ENDBRANCH  15  16
ENDBRANCH   9  15
ENDBRANCH   1  14
BRANCH   5  22
ATOM     22  C   LIG    1        3.812  -5.581  -2.389  0.00  0.00    +0.180 C 
ATOM     23  C   LIG    1        3.778  -4.912  -3.767  0.00  0.00    -0.040 C 
ATOM     24  C   LIG    1        3.743  -5.993  -4.850  0.00  0.00    +0.210 C 
ATOM     25  O   LIG    1        2.607  -6.837  -4.644  0.00  0.00    -0.380 OA
ATOM     26  C   LIG    1        2.611  -7.526  -3.392  0.00  0.00    +0.210 C 
ATOM     27  C   LIG    1        2.599  -6.506  -2.250  0.00  0.00    +0.010 C 
ENDBRANCH   5  22
TORSDOF 5
