REMARK  Name = ZINCqH0000004Lh8.0
REMARK                            x       y       z     vdW  Elec       q    Type
REMARK                         _______ _______ _______ _____ _____    ______ ____
ROOT
ATOM      1  N   LIG    1        1.832   1.422  -3.708  0.00  0.00    -0.670 N 
ATOM      2  H   LIG    1        2.799   1.354  -3.699  0.00  0.00    +0.420 HD
ATOM      3  C   LIG    1        1.125   1.126  -2.599  0.00  0.00    +0.520 C 
ATOM      4  O   LIG    1       -0.076   1.290  -2.584  0.00  0.00    -0.500 OA
ENDROOT
BRANCH   1  10
ATOM      5  C   LIG    1        1.661   1.449  -6.126  0.00  0.00    -0.050 A 
ATOM      6  C   LIG    1        0.995   1.857  -7.279  0.00  0.00    +0.080 A 
ATOM      7  C   LIG    1       -0.144   2.630  -7.179  0.00  0.00    -0.010 A 
ATOM      8  C   LIG    1       -0.628   3.002  -5.937  0.00  0.00    +0.050 A 
ATOM      9  C   LIG    1        0.021   2.599  -4.786  0.00  0.00    +0.020 A 
ATOM     10  C   LIG    1        1.170   1.826  -4.871  0.00  0.00    +0.180 A 
BRANCH   5  13
ATOM     11  C   LIG    1        4.551  -0.460  -7.096  0.00  0.00    +0.300 A 
ATOM     12  N   LIG    1        3.505   0.276  -7.366  0.00  0.00    -0.530 NA
ATOM     13  C   LIG    1        2.886   0.618  -6.228  0.00  0.00    +0.280 A 
ATOM     14  N   LIG    1        3.546   0.099  -5.216  0.00  0.00    -0.330 NA
ATOM     15  N   LIG    1        4.629  -0.610  -5.762  0.00  0.00    -0.480 N 
ATOM     16  H   LIG    1        5.303  -1.107  -5.272  0.00  0.00    +0.440 HD
BRANCH  11  18
ATOM     17  C   LIG    1        4.724  -1.867  -9.131  0.00  0.00    +0.050 C 
ATOM     18  C   LIG    1        5.505  -1.042  -8.107  0.00  0.00    +0.140 C 
ENDBRANCH  11  18
ENDBRANCH   5  13
ENDBRANCH   1  10
BRANCH   3  19
ATOM     19  C   LIG    1        1.828   0.592  -1.378  0.00  0.00    +0.040 C 
BRANCH  19  20
ATOM     20  C   LIG    1        0.804   0.341  -0.269  0.00  0.00    +0.290 C 
BRANCH  20  21
ATOM     21  C   LIG    1        1.520  -0.076   0.990  0.00  0.00    -0.120 A 
ATOM     22  C   LIG    1        1.946  -1.382   1.142  0.00  0.00    +0.030 A 
ATOM     23  C   LIG    1        2.607  -1.764   2.294  0.00  0.00    +0.030 A 
ATOM     24  C   LIG    1        2.832  -0.842   3.300  0.00  0.00    -0.030 A 
ATOM     25  C   LIG    1        2.401   0.464   3.150  0.00  0.00    +0.030 A 
ATOM     26 CL   LIG    1        3.657  -1.322   4.750  0.00  0.00    -0.070 Cl
ATOM     27  C   LIG    1        1.745   0.846   1.994  0.00  0.00    +0.050 A 
ENDBRANCH  20  21
BRANCH  20  28
ATOM     28  O   LIG    1       -0.092  -0.696  -0.674  0.00  0.00    -0.530 OA
ATOM     29  H   LIG    1        0.342  -1.540  -0.858  0.00  0.00    +0.370 HD
ENDBRANCH  20  28
ENDBRANCH  19  20
ENDBRANCH   3  19
TORSDOF 7
