REMARK  Name = ZINCrg000000nwj6.0
REMARK                            x       y       z     vdW  Elec       q    Type
REMARK                         _______ _______ _______ _____ _____    ______ ____
ROOT
ATOM      1  C   LIG    1       -3.205   6.807   1.098  0.00  0.00    +0.270 C 
ENDROOT
BRANCH   1   2
ATOM      2  C   LIG    1       -3.148   5.330   0.803  0.00  0.00    +0.520 C 
ATOM      3  N   LIG    1       -2.029   4.790   0.280  0.00  0.00    -0.720 N 
ATOM      4  H   LIG    1       -1.260   5.353   0.095  0.00  0.00    +0.400 HD
ATOM      5  O   LIG    1       -4.108   4.628   1.035  0.00  0.00    -0.510 OA
BRANCH   3   6
ATOM      6  C   LIG    1       -1.973   3.355  -0.007  0.00  0.00    +0.290 C 
ATOM      7  C   LIG    1       -0.942   3.101  -1.105  0.00  0.00    +0.020 C 
ATOM      8  C   LIG    1       -0.741   1.587  -1.238  0.00  0.00    +0.030 C 
ATOM      9  C   LIG    1       -0.013   1.086   0.008  0.00  0.00    +0.080 C 
ATOM     10  C   LIG    1       -0.707   1.566   1.255  0.00  0.00    -0.070 A 
ATOM     11  C   LIG    1       -0.414   0.918   2.449  0.00  0.00    -0.010 A 
ATOM     12  C   LIG    1       -1.013   1.313   3.627  0.00  0.00    +0.010 A 
ATOM     13  C   LIG    1       -1.911   2.364   3.621  0.00  0.00    -0.010 A 
ATOM     14  C   LIG    1       -2.204   3.009   2.437  0.00  0.00    +0.020 A 
ATOM     15  C   LIG    1       -1.604   2.611   1.250  0.00  0.00    -0.100 A 
ENDBRANCH   3   6
ENDBRANCH   1   2
BRANCH   1  16
ATOM     16  O   LIG    1       -4.506   7.140   1.651  0.00  0.00    -0.330 OA
BRANCH  16  17
ATOM     17  C   LIG    1       -4.721   8.425   1.971  0.00  0.00    +0.450 C 
ATOM     18  O   LIG    1       -3.851   9.246   1.795  0.00  0.00    -0.490 OA
BRANCH  17  19
ATOM     19  C   LIG    1       -6.047   8.846   2.550  0.00  0.00    +0.420 C 
BRANCH  19  25
ATOM     20  C   LIG    1       -5.207  13.418   1.875  0.00  0.00    +0.090 C 
ATOM     21  C   LIG    1       -6.228  12.555   2.618  0.00  0.00    +0.120 C 
ATOM     22  N   LIG    1       -5.720  12.180   3.949  0.00  0.00    -0.720 N 
ATOM     23  H   LIG    1       -5.488  12.784   4.672  0.00  0.00    +0.440 HD
ATOM     24  C   LIG    1       -5.643  10.837   3.967  0.00  0.00    +0.710 C 
ATOM     25  N   LIG    1       -6.031  10.287   2.811  0.00  0.00    -0.570 N 
ATOM     26  O   LIG    1       -5.261  10.195   4.926  0.00  0.00    -0.540 OA
ATOM     27  C   LIG    1       -7.566  13.287   2.740  0.00  0.00    +0.090 C 
ATOM     28  C   LIG    1       -6.410  11.223   1.918  0.00  0.00    +0.530 C 
ATOM     29  O   LIG    1       -6.813  11.038   0.790  0.00  0.00    -0.450 OA
ENDBRANCH  19  25
ENDBRANCH  17  19
ENDBRANCH  16  17
ENDBRANCH   1  16
TORSDOF 6
