REMARK  Name = ZINCrg000000nWW2.0
REMARK                            x       y       z     vdW  Elec       q    Type
REMARK                         _______ _______ _______ _____ _____    ______ ____
ROOT
ATOM      1  N   LIG    1       -8.493  -1.234  -1.634  0.00  0.00    -0.750 N 
ATOM      2  H   LIG    1       -8.390  -0.680  -0.844  0.00  0.00    +0.390 HD
ATOM      3  C   LIG    1       -7.529  -1.251  -2.575  0.00  0.00    +0.710 C 
ATOM      4  N   LIG    1       -6.378  -0.581  -2.373  0.00  0.00    -0.630 N 
ATOM      5  C   LIG    1       -5.274  -0.680  -3.339  0.00  0.00    +0.300 C 
ATOM      6  C   LIG    1       -4.013  -1.137  -2.596  0.00  0.00    +0.280 C 
ATOM      7  N   LIG    1       -3.838  -0.293  -1.405  0.00  0.00    -0.610 N 
ATOM      8  C   LIG    1       -4.939  -0.198  -0.437  0.00  0.00    +0.270 C 
ATOM      9  C   LIG    1       -2.686   0.377  -1.202  0.00  0.00    +0.510 C 
ATOM     10  O   LIG    1       -1.782   0.287  -2.006  0.00  0.00    -0.510 OA
ATOM     11  C   LIG    1       -6.203   0.263  -1.182  0.00  0.00    +0.270 C 
ATOM     12  O   LIG    1       -7.698  -1.872  -3.607  0.00  0.00    -0.580 OA
ENDROOT
BRANCH   9  13
ATOM     13  C   LIG    1       -2.521   1.238   0.023  0.00  0.00    +0.220 C 
ATOM     14  C   LIG    1       -3.560   2.378   0.007  0.00  0.00    +0.050 C 
ATOM     15  C   LIG    1       -2.758   3.572  -0.574  0.00  0.00    +0.040 C 
ATOM     16  C   LIG    1       -1.353   3.326   0.036  0.00  0.00    +0.260 C 
ATOM     17  N   LIG    1       -1.189   1.861   0.021  0.00  0.00    -0.610 N 
ATOM     18  C   LIG    1       -0.014   1.202   0.013  0.00  0.00    +0.540 C 
ATOM     19  O   LIG    1        0.002  -0.011   0.006  0.00  0.00    -0.510 OA
BRANCH  18  20
ATOM     20  C   LIG    1        1.282   1.972   0.005  0.00  0.00    +0.110 C 
BRANCH  20  21
ATOM     21  C   LIG    1        2.439   1.007  -0.010  0.00  0.00    -0.070 A 
ATOM     22  C   LIG    1        2.985   0.563   1.180  0.00  0.00    +0.010 A 
ATOM     23  C   LIG    1        4.044  -0.326   1.166  0.00  0.00    +0.000 A 
ATOM     24  C   LIG    1        4.564  -0.762  -0.038  0.00  0.00    +0.000 A 
ATOM     25  C   LIG    1        4.022  -0.314  -1.228  0.00  0.00    +0.000 A 
ATOM     26  C   LIG    1        2.960   0.571  -1.214  0.00  0.00    +0.020 A 
ENDBRANCH  20  21
ENDBRANCH  18  20
ENDBRANCH   9  13
BRANCH   1  28
ATOM     27  C   LIG    1      -10.624  -1.849  -0.603  0.00  0.00    +0.030 C 
ATOM     28  C   LIG    1       -9.698  -2.051  -1.804  0.00  0.00    +0.270 C 
ENDBRANCH   1  28
TORSDOF 4
