REMARK  Name = ZINCrD000000ACgr.0
REMARK                            x       y       z     vdW  Elec       q    Type
REMARK                         _______ _______ _______ _____ _____    ______ ____
ROOT
ATOM      1  O   LIG    1       -0.292  -1.788  -1.924  0.00  0.00    -0.510 OA
ATOM      2  C   LIG    1       -1.234  -1.787  -1.160  0.00  0.00    +0.520 C 
ATOM      3  N   LIG    1       -2.262  -2.636  -1.356  0.00  0.00    -0.620 N 
ATOM      4  C   LIG    1       -3.407  -2.650  -0.436  0.00  0.00    +0.270 C 
ATOM      5  C   LIG    1       -4.695  -2.475  -1.255  0.00  0.00    +0.000 C 
ATOM      6  C   LIG    1       -4.750  -3.550  -2.343  0.00  0.00    +0.150 C 
ATOM      7  C   LIG    1       -3.555  -3.387  -3.285  0.00  0.00    +0.030 C 
ATOM      8  C   LIG    1       -2.257  -3.568  -2.491  0.00  0.00    +0.290 C 
ENDROOT
BRANCH   6   9
ATOM      9  O   LIG    1       -5.964  -3.413  -3.086  0.00  0.00    -0.380 OA
BRANCH   9  10
ATOM     10  C   LIG    1       -7.057  -4.167  -2.557  0.00  0.00    +0.170 C 
BRANCH  10  11
ATOM     11  C   LIG    1       -8.296  -3.946  -3.426  0.00  0.00    +0.040 C 
BRANCH  11  12
ATOM     12  C   LIG    1       -9.467  -4.752  -2.860  0.00  0.00    +0.180 C 
BRANCH  12  13
ATOM     13  O   LIG    1      -10.624  -4.546  -3.672  0.00  0.00    -0.570 OA
ATOM     14  H   LIG    1      -11.407  -5.028  -3.371  0.00  0.00    +0.380 HD
ENDBRANCH  12  13
ENDBRANCH  11  12
ENDBRANCH  10  11
ENDBRANCH   9  10
ENDBRANCH   6   9
BRANCH   2  15
ATOM     15  C   LIG    1       -1.254  -0.837   0.009  0.00  0.00    +0.150 C 
BRANCH  15  16
ATOM     16  C   LIG    1        0.002  -0.004   0.002  0.00  0.00    +0.090 A 
ATOM     17  C   LIG    1       -0.016   1.332   0.009  0.00  0.00    -0.080 A 
ATOM     18  S   LIG    1        1.653   1.897  -0.004  0.00  0.00    +0.130 S 
ATOM     19  C   LIG    1        2.209   0.281  -0.018  0.00  0.00    +0.060 A 
ATOM     20  N   LIG    1        1.208  -0.534  -0.012  0.00  0.00    -0.440 NA
BRANCH  19  21
ATOM     21  C   LIG    1        3.658  -0.133  -0.034  0.00  0.00    +0.210 C 
BRANCH  21  22
ATOM     22  C   LIG    1        4.128  -0.263  -1.460  0.00  0.00    -0.070 A 
ATOM     23  C   LIG    1        4.671   0.828  -2.111  0.00  0.00    +0.020 A 
ATOM     24  C   LIG    1        5.103   0.709  -3.419  0.00  0.00    +0.020 A 
ATOM     25  C   LIG    1        4.991  -0.501  -4.076  0.00  0.00    +0.020 A 
ATOM     26  C   LIG    1        4.446  -1.594  -3.425  0.00  0.00    -0.030 A 
ATOM     27 CL   LIG    1        4.305  -3.115  -4.251  0.00  0.00    -0.070 Cl
ATOM     28  C   LIG    1        4.019  -1.476  -2.115  0.00  0.00    +0.060 A 
ENDBRANCH  21  22
ENDBRANCH  19  21
ENDBRANCH  15  16
ENDBRANCH   2  15
TORSDOF 9
