REMARK  Name = ZINCtV000002wTTN.0
REMARK                            x       y       z     vdW  Elec       q    Type
REMARK                         _______ _______ _______ _____ _____    ______ ____
ROOT
ATOM      1  C   LIG    1        1.950   4.241  -0.097  0.00  0.00    +0.150 C 
ATOM      2  C   LIG    1        2.554   3.030   0.070  0.00  0.00    -0.020 C 
ENDROOT
BRANCH   2   3
ATOM      3  C   LIG    1        4.012   2.904  -0.103  0.00  0.00    +0.160 A 
ATOM      4  N   LIG    1        4.680   1.806   0.038  0.00  0.00    -0.440 NA
ATOM      5  C   LIG    1        6.008   1.849  -0.158  0.00  0.00    +0.080 A 
ATOM      6  C   LIG    1        6.950   0.800  -0.070  0.00  0.00    +0.070 A 
ATOM      7  C   LIG    1        8.271   1.035  -0.298  0.00  0.00    +0.030 A 
ATOM      8  C   LIG    1        8.720   2.307  -0.622  0.00  0.00    +0.040 A 
ATOM      9  C   LIG    1        7.826   3.351  -0.715  0.00  0.00    +0.060 A 
ATOM     10  C   LIG    1        6.470   3.130  -0.485  0.00  0.00    -0.170 A 
ATOM     11  S   LIG    1        5.091   4.226  -0.523  0.00  0.00    +0.070 S 
ENDBRANCH   2   3
BRANCH   2  12
ATOM     12  C   LIG    1        1.748   1.848   0.424  0.00  0.00    +0.170 A 
ATOM     13  N   LIG    1        1.713   0.749  -0.256  0.00  0.00    -0.440 NA
ATOM     14  C   LIG    1        0.928  -0.244   0.195  0.00  0.00    +0.080 A 
ATOM     15  C   LIG    1        0.717  -1.526  -0.359  0.00  0.00    +0.070 A 
ATOM     16  C   LIG    1       -0.125  -2.410   0.244  0.00  0.00    +0.030 A 
ATOM     17  C   LIG    1       -0.793  -2.072   1.412  0.00  0.00    +0.040 A 
ATOM     18  C   LIG    1       -0.607  -0.830   1.977  0.00  0.00    +0.050 A 
ATOM     19  C   LIG    1        0.250   0.089   1.375  0.00  0.00    -0.170 A 
ATOM     20  S   LIG    1        0.699   1.731   1.830  0.00  0.00    +0.080 S 
ENDBRANCH   2  12
BRANCH   1  24
ATOM     21  C   LIG    1       -2.280   4.523  -0.055  0.00  0.00    +0.160 A 
ATOM     22  C   LIG    1       -1.510   5.605   0.356  0.00  0.00    -0.020 A 
ATOM     23  C   LIG    1       -0.136   5.519   0.344  0.00  0.00    +0.100 A 
ATOM     24  C   LIG    1        0.486   4.338  -0.082  0.00  0.00    -0.130 A 
ATOM     25  C   LIG    1       -0.295   3.253  -0.501  0.00  0.00    +0.080 A 
ATOM     26  C   LIG    1       -1.668   3.349  -0.480  0.00  0.00    -0.080 A 
BRANCH  21  27
ATOM     27  O   LIG    1       -3.635   4.614  -0.042  0.00  0.00    -0.310 OA
BRANCH  27  29
ATOM     28  C   LIG    1       -5.866   3.754  -0.394  0.00  0.00    +0.070 C 
ATOM     29  C   LIG    1       -4.366   3.466  -0.477  0.00  0.00    +0.170 C 
ENDBRANCH  27  29
ENDBRANCH  21  27
ENDBRANCH   1  24
TORSDOF 5
