REMARK  Name = ZINCvU0000000Ddb.0
REMARK                            x       y       z     vdW  Elec       q    Type
REMARK                         _______ _______ _______ _____ _____    ______ ____
ROOT
ATOM      1  C   LIG    1        2.637   6.142   2.191  0.00  0.00    +0.280 C 
ENDROOT
BRANCH   1   2
ATOM      2  C   LIG    1        4.020   6.014   1.608  0.00  0.00    +0.520 C 
ATOM      3  N   LIG    1        4.529   4.795   1.340  0.00  0.00    -0.510 N 
ATOM      4  C   LIG    1        3.797   3.654   1.695  0.00  0.00    +0.140 A 
ATOM      5  C   LIG    1        2.417   3.640   1.565  0.00  0.00    -0.010 A 
ATOM      6  C   LIG    1        1.701   2.509   1.913  0.00  0.00    +0.060 A 
ATOM      7  C   LIG    1        2.353   1.385   2.385  0.00  0.00    +0.030 A 
ATOM      8  C   LIG    1        3.730   1.390   2.525  0.00  0.00    +0.080 A 
ATOM      9  C   LIG    1        4.452   2.519   2.179  0.00  0.00    -0.130 A 
ATOM     10  S   LIG    1        6.208   2.548   2.345  0.00  0.00    +0.030 S 
ATOM     11  C   LIG    1        6.671   3.685   1.077  0.00  0.00    -0.130 A 
ATOM     12  C   LIG    1        7.900   3.581   0.451  0.00  0.00    +0.070 A 
ATOM     13  C   LIG    1        8.245   4.483  -0.540  0.00  0.00    +0.030 A 
ATOM     14  C   LIG    1        7.365   5.485  -0.902  0.00  0.00    +0.050 A 
ATOM     15  C   LIG    1        6.134   5.594  -0.280  0.00  0.00    +0.040 A 
ATOM     16  C   LIG    1        5.777   4.695   0.712  0.00  0.00    +0.140 A 
ATOM     17  O   LIG    1        4.676   7.008   1.379  0.00  0.00    -0.470 OA
ENDBRANCH   1   2
BRANCH   1  18
ATOM     18  O   LIG    1        2.424   7.508   2.636  0.00  0.00    -0.340 OA
BRANCH  18  19
ATOM     19  C   LIG    1        1.232   7.791   3.184  0.00  0.00    +0.470 C 
ATOM     20  O   LIG    1        0.394   6.926   3.289  0.00  0.00    -0.490 OA
BRANCH  19  21
ATOM     21  C   LIG    1        0.938   9.187   3.669  0.00  0.00    +0.040 C 
BRANCH  21  23
ATOM     22  C   LIG    1        0.900  11.599   3.018  0.00  0.00    +0.030 C 
ATOM     23  C   LIG    1        1.049  10.167   2.499  0.00  0.00    +0.030 C 
ENDBRANCH  21  23
BRANCH  21  24
ATOM     24  C   LIG    1       -0.478   9.239   4.246  0.00  0.00    +0.110 C 
BRANCH  24  25
ATOM     25  C   LIG    1       -0.541   8.407   5.500  0.00  0.00    -0.160 A 
ATOM     26  C   LIG    1       -1.029   7.114   5.446  0.00  0.00    +0.090 A 
ATOM     27  C   LIG    1       -1.082   6.346   6.593  0.00  0.00    -0.090 A 
ATOM     28  C   LIG    1       -0.656   6.877   7.803  0.00  0.00    +0.220 A 
ATOM     29  C   LIG    1       -0.172   8.178   7.855  0.00  0.00    -0.080 A 
ATOM     30  C   LIG    1       -0.116   8.939   6.704  0.00  0.00    +0.050 A 
BRANCH  28  31
ATOM     31  N   LIG    1       -0.714   6.105   8.966  0.00  0.00    -0.880 N 
ATOM     32  H   LIG    1       -1.052   5.197   8.929  0.00  0.00    +0.400 HD
ATOM     33  H   LIG    1       -0.416   6.478   9.811  0.00  0.00    +0.400 HD
ENDBRANCH  28  31
ENDBRANCH  24  25
ENDBRANCH  21  24
ENDBRANCH  19  21
ENDBRANCH  18  19
ENDBRANCH   1  18
TORSDOF 8
