REMARK  Name = ZINCnE000001LfUr.1
REMARK                            x       y       z     vdW  Elec       q    Type
REMARK                         _______ _______ _______ _____ _____    ______ ____
ROOT
ATOM      1  C   LIG    1       -2.537   5.348   0.165  0.00  0.00    -0.260 A 
ATOM      2  C   LIG    1       -3.655   6.151   0.290  0.00  0.00    +0.290 A 
ATOM      3  N   LIG    1       -3.228   7.424   0.370  0.00  0.00    -0.330 N 
ATOM      4  N   LIG    1       -1.831   7.429   0.296  0.00  0.00    -0.310 NA
ATOM      5  C   LIG    1       -1.409   6.200   0.179  0.00  0.00    +0.330 A 
ENDROOT
BRANCH   3   6
ATOM      6  C   LIG    1       -4.045   8.555   0.506  0.00  0.00    +0.180 A 
ATOM      7  C   LIG    1       -5.425   8.413   0.563  0.00  0.00    +0.010 A 
ATOM      8  C   LIG    1       -6.228   9.528   0.702  0.00  0.00    +0.060 A 
ATOM      9  C   LIG    1       -5.658  10.788   0.773  0.00  0.00    -0.050 A 
ATOM     10  C   LIG    1       -4.283  10.932   0.711  0.00  0.00    +0.060 A 
ATOM     11 CL   LIG    1       -6.670  12.188   0.941  0.00  0.00    -0.070 Cl
ATOM     12  C   LIG    1       -3.476   9.819   0.578  0.00  0.00    +0.040 A 
ENDBRANCH   3   6
BRANCH   1  13
ATOM     13  C   LIG    1       -2.523   3.880   0.046  0.00  0.00    +0.520 C 
ATOM     14  O   LIG    1       -3.570   3.267  -0.044  0.00  0.00    -0.490 OA
BRANCH  13  19
ATOM     15  C   LIG    1        0.471   1.958  -1.160  0.00  0.00    -0.030 A 
ATOM     16  C   LIG    1        1.176   1.784   0.024  0.00  0.00    -0.030 A 
ATOM     17  C   LIG    1        0.682   2.287   1.211  0.00  0.00    -0.130 A 
ATOM     18  C   LIG    1       -0.526   2.967   1.230  0.00  0.00    +0.280 A 
ATOM     19  C   LIG    1       -1.240   3.152   0.037  0.00  0.00    -0.290 A 
ATOM     20  O   LIG    1       -1.013   3.457   2.398  0.00  0.00    -0.720 OA
ATOM     21  C   LIG    1       -0.732   2.639  -1.159  0.00  0.00    +0.050 A 
BRANCH  15  23
ATOM     22  C   LIG    1        2.214   0.765  -2.254  0.00  0.00    +0.200 C 
ATOM     23  O   LIG    1        0.966   1.458  -2.324  0.00  0.00    -0.330 OA
ENDBRANCH  15  23
ENDBRANCH  13  19
ENDBRANCH   1  13
TORSDOF 4
