REMARK  Name = ZINCrD000000fmVS.0
REMARK                            x       y       z     vdW  Elec       q    Type
REMARK                         _______ _______ _______ _____ _____    ______ ____
ROOT
ATOM      1  C   LIG    1       -0.065   1.581  -0.547  0.00  0.00    +0.070 C 
ATOM      2  N   LIG    1        1.028   2.277  -0.611  0.00  0.00    -0.190 NA
ATOM      3  N   LIG    1        2.251   1.675  -0.922  0.00  0.00    -0.460 N 
ATOM      4  C   LIG    1        2.285   0.472  -1.527  0.00  0.00    +0.500 C 
ATOM      5  C   LIG    1        0.995  -0.232  -1.867  0.00  0.00    +0.090 C 
ATOM      6  O   LIG    1        3.348  -0.043  -1.799  0.00  0.00    -0.510 OA
ATOM      7  C   LIG    1       -0.053   0.098  -0.802  0.00  0.00    +0.110 C 
ENDROOT
BRANCH   1   9
ATOM      8  N   LIG    1       -1.335   3.550   0.129  0.00  0.00    -0.580 N 
ATOM      9  C   LIG    1       -1.331   2.250  -0.226  0.00  0.00    +0.580 C 
ATOM     10  O   LIG    1       -2.377   1.632  -0.282  0.00  0.00    -0.520 OA
BRANCH   8  11
ATOM     11  C   LIG    1       -0.085   4.314   0.128  0.00  0.00    +0.320 C 
BRANCH  11  13
ATOM     12  C   LIG    1        0.404   6.069  -1.497  0.00  0.00    +0.020 C 
ATOM     13  C   LIG    1        0.209   4.794  -1.270  0.00  0.00    -0.040 C 
ENDBRANCH  11  13
ENDBRANCH   8  11
BRANCH   8  14
ATOM     14  C   LIG    1       -2.590   4.200   0.517  0.00  0.00    +0.340 C 
BRANCH  14  15
ATOM     15  C   LIG    1       -2.792   4.053   2.004  0.00  0.00    -0.110 A 
ATOM     16  C   LIG    1       -3.478   2.962   2.503  0.00  0.00    +0.030 A 
ATOM     17  C   LIG    1       -3.660   2.824   3.866  0.00  0.00    +0.000 A 
ATOM     18  C   LIG    1       -3.165   3.784   4.730  0.00  0.00    +0.010 A 
ATOM     19  C   LIG    1       -2.484   4.878   4.230  0.00  0.00    +0.000 A 
ATOM     20  C   LIG    1       -2.298   5.013   2.867  0.00  0.00    +0.010 A 
ENDBRANCH  14  15
ENDBRANCH   8  14
ENDBRANCH   1   9
BRANCH   3  21
ATOM     21  C   LIG    1        3.504   2.356  -0.586  0.00  0.00    +0.370 C 
BRANCH  21  22
ATOM     22  C   LIG    1        3.926   3.228  -1.740  0.00  0.00    -0.120 A 
ATOM     23  C   LIG    1        4.745   2.717  -2.729  0.00  0.00    +0.030 A 
ATOM     24  C   LIG    1        5.129   3.516  -3.790  0.00  0.00    -0.010 A 
ATOM     25  C   LIG    1        4.702   4.829  -3.857  0.00  0.00    +0.010 A 
ATOM     26  C   LIG    1        3.887   5.342  -2.865  0.00  0.00    -0.010 A 
ATOM     27  C   LIG    1        3.499   4.542  -1.806  0.00  0.00    +0.030 A 
ENDBRANCH  21  22
ENDBRANCH   3  21
TORSDOF 7
