REMARK  Name = ZINCkj00000dEhU2.1
REMARK                            x       y       z     vdW  Elec       q    Type
REMARK                         _______ _______ _______ _____ _____    ______ ____
ROOT
ATOM      1  N   LIG    1        1.755   4.327   4.377  0.00  0.00    -0.390 N 
ATOM      2  C   LIG    1        0.748   5.404   4.366  0.00  0.00    +0.240 C 
ATOM      3  C   LIG    1        0.831   6.122   5.729  0.00  0.00    +0.080 C 
ATOM      4  C   LIG    1        2.263   5.780   6.218  0.00  0.00    +0.090 C 
ATOM      5  C   LIG    1        2.436   4.334   5.689  0.00  0.00    +0.160 C 
ATOM      6  H   LIG    1        2.431   4.487   3.645  0.00  0.00    +0.420 HD
ENDROOT
BRANCH   1   7
ATOM      7  C   LIG    1        1.096   3.031   4.169  0.00  0.00    +0.250 C 
BRANCH   7   8
ATOM      8  C   LIG    1        0.510   2.978   2.756  0.00  0.00    +0.020 C 
BRANCH   8   9
ATOM      9  C   LIG    1       -0.176   1.628   2.539  0.00  0.00    +0.310 C 
BRANCH   9  15
ATOM     10  O   LIG    1       -2.795   2.417   1.645  0.00  0.00    -0.530 OA
ATOM     11  C   LIG    1       -1.981   1.975   0.862  0.00  0.00    +0.520 C 
ATOM     12  C   LIG    1       -2.216   1.792  -0.622  0.00  0.00    +0.060 C 
ATOM     13  C   LIG    1       -0.798   1.617  -1.212  0.00  0.00    +0.050 C 
ATOM     14  C   LIG    1       -0.013   1.086   0.008  0.00  0.00    +0.260 C 
ATOM     15  N   LIG    1       -0.737   1.577   1.186  0.00  0.00    -0.630 N 
ENDBRANCH   9  15
ENDBRANCH   8   9
ENDBRANCH   7   8
ENDBRANCH   1   7
BRANCH   5  16
ATOM     16  C   LIG    1        3.920   4.003   5.520  0.00  0.00    +0.370 C 
BRANCH  16  17
ATOM     17  N   LIG    1        4.062   2.630   5.029  0.00  0.00    -0.410 N 
ATOM     18  C   LIG    1        4.727   2.249   3.918  0.00  0.00    +0.230 A 
ATOM     19  C   LIG    1        4.625   0.904   3.817  0.00  0.00    -0.090 A 
ATOM     20  C   LIG    1        3.863   0.448   4.898  0.00  0.00    +0.260 A 
ATOM     21  N   LIG    1        3.525   1.482   5.625  0.00  0.00    -0.300 NA
ENDBRANCH  16  17
ENDBRANCH   5  16
TORSDOF 6
