REMARK  Name = ZINCkj00000dEhU2.0
REMARK                            x       y       z     vdW  Elec       q    Type
REMARK                         _______ _______ _______ _____ _____    ______ ____
ROOT
ATOM      1  N   LIG    1       -5.537   4.225   3.083  0.00  0.00    -0.380 N 
ATOM      2  C   LIG    1       -6.540   4.366   2.006  0.00  0.00    +0.260 C 
ATOM      3  C   LIG    1       -7.862   4.705   2.736  0.00  0.00    +0.080 C 
ATOM      4  C   LIG    1       -7.358   5.621   3.882  0.00  0.00    +0.110 C 
ATOM      5  C   LIG    1       -5.996   4.998   4.252  0.00  0.00    +0.150 C 
ATOM      6  H   LIG    1       -5.443   3.253   3.334  0.00  0.00    +0.430 HD
ENDROOT
BRANCH   1   7
ATOM      7  C   LIG    1       -4.242   4.746   2.623  0.00  0.00    +0.250 C 
BRANCH   7   8
ATOM      8  C   LIG    1       -3.724   3.881   1.473  0.00  0.00    +0.010 C 
BRANCH   8   9
ATOM      9  C   LIG    1       -2.375   4.423   0.995  0.00  0.00    +0.310 C 
BRANCH   9  15
ATOM     10  O   LIG    1       -2.828   4.728  -1.826  0.00  0.00    -0.520 OA
ATOM     11  C   LIG    1       -2.144   3.820  -1.405  0.00  0.00    +0.520 C 
ATOM     12  C   LIG    1       -1.463   2.777  -2.264  0.00  0.00    +0.060 C 
ATOM     13  C   LIG    1       -0.413   2.139  -1.325  0.00  0.00    +0.060 C 
ATOM     14  C   LIG    1       -1.027   2.411   0.067  0.00  0.00    +0.250 C 
ATOM     15  N   LIG    1       -1.879   3.594  -0.106  0.00  0.00    -0.630 N 
ENDBRANCH   9  15
ENDBRANCH   8   9
ENDBRANCH   7   8
ENDBRANCH   1   7
BRANCH   5  16
ATOM     16  C   LIG    1       -4.988   6.103   4.574  0.00  0.00    +0.360 C 
BRANCH  16  17
ATOM     17  N   LIG    1       -5.417   6.819   5.778  0.00  0.00    -0.390 N 
ATOM     18  C   LIG    1       -4.689   6.990   6.901  0.00  0.00    +0.240 A 
ATOM     19  C   LIG    1       -5.437   7.706   7.772  0.00  0.00    -0.090 A 
ATOM     20  C   LIG    1       -6.667   7.974   7.164  0.00  0.00    +0.260 A 
ATOM     21  N   LIG    1       -6.656   7.443   5.968  0.00  0.00    -0.300 NA
ENDBRANCH  16  17
ENDBRANCH   5  16
TORSDOF 6
