REMARK  Name = ZINCqH0000034gR7.0
REMARK                            x       y       z     vdW  Elec       q    Type
REMARK                         _______ _______ _______ _____ _____    ______ ____
ROOT
ATOM      1  N   LIG    1       -1.131   4.707  -0.533  0.00  0.00    -0.670 N 
ATOM      2  H   LIG    1       -0.844   5.566  -0.186  0.00  0.00    +0.410 HD
ATOM      3  C   LIG    1       -2.161   4.640  -1.400  0.00  0.00    +0.520 C 
ATOM      4  O   LIG    1       -2.581   3.561  -1.760  0.00  0.00    -0.500 OA
ENDROOT
BRANCH   1  10
ATOM      5  C   LIG    1       -1.179   2.533   0.519  0.00  0.00    -0.060 A 
ATOM      6  C   LIG    1       -0.527   1.381   0.915  0.00  0.00    +0.010 A 
ATOM      7  C   LIG    1        0.821   1.222   0.653  0.00  0.00    +0.010 A 
ATOM      8  C   LIG    1        1.523   2.218  -0.001  0.00  0.00    +0.010 A 
ATOM      9  C   LIG    1        0.879   3.374  -0.396  0.00  0.00    -0.080 A 
ATOM     10  C   LIG    1       -0.475   3.537  -0.134  0.00  0.00    +0.130 A 
BRANCH   5  12
ATOM     11  C   LIG    1       -3.450   1.734  -0.074  0.00  0.00    +0.040 C 
ATOM     12  C   LIG    1       -2.650   2.702   0.799  0.00  0.00    +0.050 C 
ENDBRANCH   5  12
BRANCH   9  13
ATOM     13  C   LIG    1        1.645   4.459  -1.108  0.00  0.00    +0.060 C 
ATOM     14  C   LIG    1        2.116   5.502  -0.093  0.00  0.00    +0.020 C 
ENDBRANCH   9  13
ENDBRANCH   1  10
BRANCH   3  15
ATOM     15  C   LIG    1       -2.790   5.906  -1.921  0.00  0.00    +0.000 C 
ATOM     16  C   LIG    1       -3.461   6.702  -0.778  0.00  0.00    +0.070 C 
ATOM     17  C   LIG    1       -4.708   7.280  -1.411  0.00  0.00    +0.520 C 
ATOM     18  N   LIG    1       -4.980   6.643  -2.563  0.00  0.00    -0.610 N 
ATOM     19  O   LIG    1       -5.367   8.187  -0.947  0.00  0.00    -0.520 OA
ATOM     20  C   LIG    1       -3.995   5.589  -2.835  0.00  0.00    +0.300 C 
BRANCH  18  21
ATOM     21  C   LIG    1       -6.114   6.959  -3.435  0.00  0.00    +0.350 C 
BRANCH  21  22
ATOM     22  C   LIG    1       -7.307   6.133  -3.028  0.00  0.00    -0.120 A 
ATOM     23  C   LIG    1       -7.517   4.893  -3.601  0.00  0.00    +0.020 A 
ATOM     24  C   LIG    1       -8.608   4.133  -3.225  0.00  0.00    +0.000 A 
ATOM     25  C   LIG    1       -9.495   4.618  -2.282  0.00  0.00    +0.010 A 
ATOM     26  C   LIG    1       -9.288   5.860  -1.712  0.00  0.00    +0.000 A 
ATOM     27  C   LIG    1       -8.194   6.618  -2.086  0.00  0.00    +0.030 A 
ENDBRANCH  21  22
ENDBRANCH  18  21
ENDBRANCH   3  15
TORSDOF 6
