REMARK  Name = ZINCqH0000007NKx.0
REMARK                            x       y       z     vdW  Elec       q    Type
REMARK                         _______ _______ _______ _____ _____    ______ ____
ROOT
ATOM      1  C   LIG    1       -1.461   6.188   0.041  0.00  0.00    +0.070 C 
ENDROOT
BRANCH   1   2
ATOM      2  C   LIG    1       -1.474   7.695   0.057  0.00  0.00    +0.520 C 
ATOM      3  N   LIG    1       -2.647   8.359   0.069  0.00  0.00    -0.670 N 
ATOM      4  H   LIG    1       -3.481   7.870   0.000  0.00  0.00    +0.410 HD
ATOM      5  O   LIG    1       -0.428   8.310   0.059  0.00  0.00    -0.510 OA
BRANCH   3   6
ATOM      6  C   LIG    1       -2.660   9.754   0.182  0.00  0.00    +0.130 A 
ATOM      7  C   LIG    1       -3.677  10.385   0.886  0.00  0.00    -0.020 A 
ATOM      8  C   LIG    1       -3.685  11.761   1.000  0.00  0.00    +0.030 A 
ATOM      9  C   LIG    1       -2.687  12.511   0.404  0.00  0.00    -0.080 A 
ATOM     10  C   LIG    1       -1.676  11.886  -0.302  0.00  0.00    +0.020 A 
ATOM     11  C   LIG    1       -1.659  10.510  -0.415  0.00  0.00    +0.020 A 
BRANCH   9  12
ATOM     12  C   LIG    1       -2.702  14.014   0.524  0.00  0.00    -0.030 C 
ATOM     13  C   LIG    1       -1.421  14.483   1.217  0.00  0.00    +0.040 C 
ATOM     14  C   LIG    1       -3.916  14.447   1.348  0.00  0.00    +0.040 C 
ATOM     15  C   LIG    1       -2.784  14.636  -0.871  0.00  0.00    +0.040 C 
ENDBRANCH   9  12
ENDBRANCH   3   6
ENDBRANCH   1   2
BRANCH   1  16
ATOM     16  C   LIG    1       -0.014   5.691   0.029  0.00  0.00    +0.300 C 
BRANCH  16  18
ATOM     17  C   LIG    1        1.171   3.562   0.000  0.00  0.00    +0.560 C 
ATOM     18  N   LIG    1       -0.002   4.226   0.013  0.00  0.00    -0.730 N 
ATOM     19  H   LIG    1       -0.838   3.734   0.011  0.00  0.00    +0.400 HD
ATOM     20  O   LIG    1        2.219   4.179   0.002  0.00  0.00    -0.510 OA
BRANCH  17  26
ATOM     21  C   LIG    1        2.401   1.392  -0.029  0.00  0.00    +0.190 A 
ATOM     22  C   LIG    1        2.401   0.005  -0.044  0.00  0.00    -0.080 A 
ATOM     23  C   LIG    1        1.206  -0.687  -0.047  0.00  0.00    +0.080 A 
ATOM     24  C   LIG    1        0.001  -0.004  -0.033  0.00  0.00    -0.040 A 
ATOM     25  C   LIG    1       -0.018   1.374  -0.018  0.00  0.00    +0.080 A 
ATOM     26  C   LIG    1        1.184   2.087  -0.016  0.00  0.00    -0.180 A 
BRANCH  21  28
ATOM     27  C   LIG    1        4.775   1.298  -0.042  0.00  0.00    +0.240 C 
ATOM     28  O   LIG    1        3.574   2.073  -0.028  0.00  0.00    -0.280 OA
ENDBRANCH  21  28
ENDBRANCH  17  26
ENDBRANCH  16  18
ENDBRANCH   1  16
TORSDOF 7
