REMARK  Name = ZINCrH000004nL1k.0
REMARK                            x       y       z     vdW  Elec       q    Type
REMARK                         _______ _______ _______ _____ _____    ______ ____
ROOT
ATOM      1  C   LIG    1        1.208  -0.386  -0.017  0.00  0.00    +0.300 A 
ATOM      2  N   LIG    1       -0.020   0.055  -0.002  0.00  0.00    -0.300 NA
ATOM      3  N   LIG    1       -0.028   1.454   0.008  0.00  0.00    -0.380 N 
ATOM      4  C   LIG    1        1.260   1.914  -0.001  0.00  0.00    +0.340 A 
ATOM      5  N   LIG    1        1.798   3.128   0.002  0.00  0.00    -0.510 NA
ATOM      6  C   LIG    1        3.101   3.301  -0.009  0.00  0.00    +0.220 A 
ATOM      7  C   LIG    1        3.978   2.226  -0.026  0.00  0.00    -0.190 A 
ATOM      8  C   LIG    1        3.482   0.947  -0.030  0.00  0.00    +0.060 A 
ATOM      9  C   LIG    1        4.407  -0.242  -0.048  0.00  0.00    +0.110 C 
ATOM     10  C   LIG    1        3.657   4.702  -0.006  0.00  0.00    +0.140 C 
ATOM     11  C   LIG    1       -1.228   2.294   0.020  0.00  0.00    +0.370 C 
ATOM     12  C   LIG    1        2.094   0.778  -0.017  0.00  0.00    -0.230 A 
ENDROOT
BRANCH   1  14
ATOM     13  C   LIG    1        0.557  -2.672  -0.026  0.00  0.00    +0.260 C 
ATOM     14  O   LIG    1        1.594  -1.689  -0.030  0.00  0.00    -0.280 OA
ENDBRANCH   1  14
BRANCH   7  15
ATOM     15  C   LIG    1        5.466   2.461  -0.039  0.00  0.00    +0.120 C 
BRANCH  15  16
ATOM     16  C   LIG    1        5.955   2.551  -1.486  0.00  0.00    +0.060 C 
BRANCH  16  17
ATOM     17  C   LIG    1        7.443   2.786  -1.500  0.00  0.00    +0.510 C 
ATOM     18  N   LIG    1        8.097   2.900  -2.673  0.00  0.00    -0.670 N 
ATOM     19  H   LIG    1        7.625   2.751  -3.507  0.00  0.00    +0.410 HD
ATOM     20  O   LIG    1        8.053   2.874  -0.455  0.00  0.00    -0.510 OA
BRANCH  18  21
ATOM     21  C   LIG    1        9.456   3.233  -2.687  0.00  0.00    +0.140 A 
ATOM     22  C   LIG    1       10.012   3.932  -1.624  0.00  0.00    +0.030 A 
ATOM     23  C   LIG    1       11.356   4.254  -1.639  0.00  0.00    +0.020 A 
ATOM     24  C   LIG    1       12.143   3.891  -2.716  0.00  0.00    -0.100 A 
ATOM     25  C   LIG    1       11.591   3.200  -3.778  0.00  0.00    +0.020 A 
ATOM     26  C   LIG    1       13.607   4.250  -2.731  0.00  0.00    +0.100 C 
ATOM     27  C   LIG    1       10.250   2.870  -3.767  0.00  0.00    -0.110 A 
ATOM     28  C   LIG    1        9.649   2.117  -4.926  0.00  0.00    +0.080 C 
ENDBRANCH  18  21
ENDBRANCH  16  17
ENDBRANCH  15  16
ENDBRANCH   7  15
TORSDOF 5
