REMARK  Name = ZINCpe000000XLzE.0
REMARK                            x       y       z     vdW  Elec       q    Type
REMARK                         _______ _______ _______ _____ _____    ______ ____
ROOT
ATOM      1  C   LIG    1       -3.608   2.083   0.030  0.00  0.00    +0.510 C 
ATOM      2  N   LIG    1       -4.872   1.617   0.034  0.00  0.00    -0.610 N 
ATOM      3  C   LIG    1       -5.144   0.171   0.021  0.00  0.00    +0.300 C 
ATOM      4  C   LIG    1       -6.123  -0.145   1.163  0.00  0.00    +0.210 C 
ATOM      5  N   LIG    1       -7.311   0.710   1.033  0.00  0.00    -0.460 N 
ATOM      6  C   LIG    1       -6.963   2.130   1.179  0.00  0.00    +0.220 C 
ATOM      7  C   LIG    1       -6.018   2.540   0.044  0.00  0.00    +0.300 C 
ATOM      8  O   LIG    1       -3.402   3.279   0.036  0.00  0.00    -0.530 OA
ENDROOT
BRANCH   5   9
ATOM      9  C   LIG    1       -8.287   0.343   1.942  0.00  0.00    +0.490 A 
ATOM     10  N   LIG    1       -8.760   1.250   2.785  0.00  0.00    -0.550 NA
ATOM     11  C   LIG    1       -9.698   0.933   3.662  0.00  0.00    +0.340 A 
ATOM     12  C   LIG    1      -10.177  -0.366   3.701  0.00  0.00    -0.110 A 
ATOM     13  C   LIG    1       -9.657  -1.291   2.809  0.00  0.00    +0.350 A 
ATOM     14  N   LIG    1       -8.724  -0.908   1.953  0.00  0.00    -0.530 NA
ENDBRANCH   5   9
BRANCH   1  15
ATOM     15  C   LIG    1       -2.449   1.120   0.020  0.00  0.00    +0.300 C 
BRANCH  15  17
ATOM     16  C   LIG    1       -0.014   1.211   0.009  0.00  0.00    +0.560 C 
ATOM     17  N   LIG    1       -1.191   1.869   0.018  0.00  0.00    -0.720 N 
ATOM     18  H   LIG    1       -1.204   2.839   0.023  0.00  0.00    +0.410 HD
ATOM     19  O   LIG    1        0.002  -0.004   0.002  0.00  0.00    -0.540 OA
BRANCH  16  24
ATOM     20  C   LIG    1        4.930   4.156  -0.024  0.00  0.00    +0.100 C 
ATOM     21  C   LIG    1        3.635   3.385  -0.015  0.00  0.00    -0.060 A 
ATOM     22  C   LIG    1        3.657   2.002  -0.022  0.00  0.00    +0.000 A 
ATOM     23  C   LIG    1        2.475   1.290  -0.015  0.00  0.00    +0.090 A 
ATOM     24  C   LIG    1        1.256   1.968   0.001  0.00  0.00    -0.150 A 
ATOM     25  C   LIG    1        1.240   3.364   0.003  0.00  0.00    +0.050 A 
ATOM     26  C   LIG    1        2.429   4.064   0.001  0.00  0.00    +0.000 A 
ENDBRANCH  16  24
ENDBRANCH  15  17
ENDBRANCH   1  15
TORSDOF 4
