REMARK  Name = ZINCpk00000e9LKU.0
REMARK                            x       y       z     vdW  Elec       q    Type
REMARK                         _______ _______ _______ _____ _____    ______ ____
ROOT
ATOM      1  N   LIG    1       -0.145   1.463  -2.431  0.00  0.00    -0.740 N 
ATOM      2  H   LIG    1        0.614   0.864  -2.351  0.00  0.00    +0.400 HD
ATOM      3  C   LIG    1       -0.634   1.772  -3.648  0.00  0.00    +0.700 C 
ATOM      4  N   LIG    1       -0.069   1.248  -4.755  0.00  0.00    -0.750 N 
ATOM      5  H   LIG    1        0.690   0.649  -4.674  0.00  0.00    +0.400 HD
ATOM      6  O   LIG    1       -1.585   2.523  -3.749  0.00  0.00    -0.590 OA
ENDROOT
BRANCH   1   7
ATOM      7  C   LIG    1       -0.759   2.033  -1.229  0.00  0.00    +0.270 C 
BRANCH   7   8
ATOM      8  C   LIG    1       -0.019   1.526   0.010  0.00  0.00    +0.210 C 
ATOM      9  C   LIG    1        0.002  -0.004   0.002  0.00  0.00    +0.070 C 
BRANCH   8  13
ATOM     10  C   LIG    1       -0.926   3.079   4.689  0.00  0.00    +0.360 C 
ATOM     11  N   LIG    1       -1.113   2.687   3.289  0.00  0.00    -0.370 N 
ATOM     12  C   LIG    1       -0.145   2.273   2.445  0.00  0.00    +0.260 A 
ATOM     13  C   LIG    1       -0.724   2.012   1.250  0.00  0.00    -0.280 A 
ATOM     14  C   LIG    1       -2.094   2.266   1.371  0.00  0.00    +0.240 A 
ATOM     15  N   LIG    1       -2.328   2.671   2.593  0.00  0.00    -0.290 NA
ENDBRANCH   8  13
BRANCH   8  16
ATOM     16  O   LIG    1        1.322   2.020   0.000  0.00  0.00    -0.550 OA
ATOM     17  H   LIG    1        1.385   2.985   0.005  0.00  0.00    +0.380 HD
ENDBRANCH   8  16
ENDBRANCH   7   8
ENDBRANCH   1   7
BRANCH   4  18
ATOM     18  C   LIG    1       -0.601   1.584  -6.078  0.00  0.00    +0.280 C 
BRANCH  18  19
ATOM     19  C   LIG    1        0.214   0.863  -7.153  0.00  0.00    -0.010 C 
BRANCH  19  20
ATOM     20  C   LIG    1       -0.341   1.213  -8.535  0.00  0.00    +0.290 C 
BRANCH  20  21
ATOM     21  N   LIG    1        0.440   0.522  -9.564  0.00  0.00    -0.630 N 
ATOM     22  C   LIG    1        1.620   1.168 -10.145  0.00  0.00    +0.280 C 
BRANCH  21  23
ATOM     23  C   LIG    1        0.059  -0.752  -9.992  0.00  0.00    +0.210 A 
ATOM     24  C   LIG    1       -1.056  -1.368  -9.438  0.00  0.00    -0.080 A 
ATOM     25  C   LIG    1       -1.432  -2.626  -9.867  0.00  0.00    +0.050 A 
ATOM     26  C   LIG    1       -0.694  -3.276 -10.839  0.00  0.00    -0.060 A 
ATOM     27  C   LIG    1        0.420  -2.668 -11.389  0.00  0.00    +0.050 A 
ATOM     28  C   LIG    1        0.798  -1.408 -10.968  0.00  0.00    -0.080 A 
ENDBRANCH  21  23
ENDBRANCH  20  21
ENDBRANCH  19  20
ENDBRANCH  18  19
ENDBRANCH   4  18
TORSDOF 9
