REMARK  Name = ZINCrD00000hQ4a5.0
REMARK                            x       y       z     vdW  Elec       q    Type
REMARK                         _______ _______ _______ _____ _____    ______ ____
ROOT
ATOM      1  N   LIG    1       -3.371  -4.826   1.453  0.00  0.00    -0.460 N 
ATOM      2  C   LIG    1       -3.792  -4.805   0.036  0.00  0.00    +0.200 C 
ATOM      3  C   LIG    1       -2.821  -3.812  -0.650  0.00  0.00    +0.060 C 
ATOM      4  C   LIG    1       -2.644  -2.735   0.452  0.00  0.00    +0.020 C 
ATOM      5  C   LIG    1       -2.674  -3.562   1.755  0.00  0.00    +0.230 C 
ENDROOT
BRANCH   1  10
ATOM      6  C   LIG    1       -5.797  -4.271   4.014  0.00  0.00    +0.050 A 
ATOM      7  C   LIG    1       -6.587  -5.410   3.886  0.00  0.00    +0.260 A 
ATOM      8  N   LIG    1       -6.298  -6.316   2.968  0.00  0.00    -0.420 NA
ATOM      9  C   LIG    1       -5.264  -6.143   2.167  0.00  0.00    +0.260 A 
ATOM     10  C   LIG    1       -4.463  -5.005   2.294  0.00  0.00    +0.260 A 
ATOM     11  N   LIG    1       -4.749  -4.095   3.211  0.00  0.00    -0.460 NA
BRANCH   6  15
ATOM     12  N   LIG    1       -5.356  -2.153   5.166  0.00  0.00    -0.830 N 
ATOM     13  H   LIG    1       -5.568  -1.488   5.840  0.00  0.00    +0.410 HD
ATOM     14  H   LIG    1       -4.592  -2.024   4.582  0.00  0.00    +0.410 HD
ATOM     15  C   LIG    1       -6.121  -3.255   5.043  0.00  0.00    +0.580 C 
ATOM     16  O   LIG    1       -7.077  -3.416   5.776  0.00  0.00    -0.520 OA
ENDBRANCH   6  15
ENDBRANCH   1  10
BRANCH   4  17
ATOM     17  C   LIG    1       -1.321  -2.029   0.300  0.00  0.00    -0.060 A 
ATOM     18  C   LIG    1       -0.150  -2.762   0.237  0.00  0.00    +0.020 A 
ATOM     19  C   LIG    1        1.065  -2.118   0.097  0.00  0.00    +0.030 A 
ATOM     20  C   LIG    1        1.113  -0.740   0.015  0.00  0.00    +0.010 A 
ATOM     21  C   LIG    1       -0.060  -0.001   0.085  0.00  0.00    +0.090 A 
ATOM     22  C   LIG    1       -1.279  -0.650   0.225  0.00  0.00    +0.000 A 
BRANCH  21  23
ATOM     23  O   LIG    1       -0.016   1.355   0.009  0.00  0.00    -0.260 OA
BRANCH  23  24
ATOM     24  C   LIG    1       -0.358   2.066   1.116  0.00  0.00    +0.120 A 
ATOM     25  C   LIG    1       -0.620   1.411   2.310  0.00  0.00    -0.060 A 
ATOM     26  C   LIG    1       -0.962   2.137   3.434  0.00  0.00    +0.050 A 
ATOM     27  C   LIG    1       -1.054   3.515   3.367  0.00  0.00    -0.020 A 
ATOM     28  C   LIG    1       -0.799   4.170   2.177  0.00  0.00    +0.050 A 
ATOM     29  C   LIG    1       -0.451   3.449   1.051  0.00  0.00    -0.020 A 
ENDBRANCH  23  24
ENDBRANCH  21  23
ENDBRANCH   4  17
TORSDOF 5
