REMARK  Name = ZINCbu0000000Gx4.0
REMARK                            x       y       z     vdW  Elec       q    Type
REMARK                         _______ _______ _______ _____ _____    ______ ____
ROOT
ATOM      1  C   LIG    1       -0.729   1.579   1.267  0.00  0.00    -0.010 C 
ATOM      2  C   LIG    1       -0.638   3.106   1.342  0.00  0.00    +0.050 C 
ATOM      3  C   LIG    1       -1.285   3.586   2.643  0.00  0.00    +0.250 C 
ATOM      4  N   LIG    1       -0.586   2.994   3.791  0.00  0.00    -0.510 N 
ATOM      5  C   LIG    1       -0.731   1.534   3.763  0.00  0.00    +0.250 C 
ATOM      6  H   LIG    1        0.393   3.235   3.746  0.00  0.00    +0.430 HD
ATOM      7  H   LIG    1       -0.981   3.354   4.646  0.00  0.00    +0.430 HD
ATOM      8  C   LIG    1       -0.062   0.975   2.506  0.00  0.00    +0.050 C 
ENDROOT
BRANCH   1   9
ATOM      9  C   LIG    1       -0.013   1.086   0.008  0.00  0.00    +0.020 C 
BRANCH   9  10
ATOM     10  C   LIG    1       -0.753   1.593  -1.232  0.00  0.00    +0.000 C 
BRANCH  10  12
ATOM     11  C   LIG    1       -0.844   1.500  -3.727  0.00  0.00    +0.020 C 
ATOM     12  C   LIG    1       -0.037   1.099  -2.490  0.00  0.00    -0.030 C 
ATOM     13  C   LIG    1        1.356   1.729  -2.565  0.00  0.00    +0.010 C 
ENDBRANCH  10  12
ENDBRANCH   9  10
ENDBRANCH   1   9
TORSDOF 3
