REMARK  Name = ZINCpk00000ebFUW.0
REMARK                            x       y       z     vdW  Elec       q    Type
REMARK                         _______ _______ _______ _____ _____    ______ ____
ROOT
ATOM      1  O   LIG    1       -3.616   2.913   0.137  0.00  0.00    -0.500 OA
ATOM      2  C   LIG    1       -3.598   1.697   0.130  0.00  0.00    +0.560 C 
ATOM      3  N   LIG    1       -2.426   1.042   0.019  0.00  0.00    -0.670 N 
ATOM      4  H   LIG    1       -2.417   0.075  -0.063  0.00  0.00    +0.420 HD
ENDROOT
BRANCH   2   5
ATOM      5  C   LIG    1       -4.860   0.940   0.243  0.00  0.00    -0.150 A 
ATOM      6  C   LIG    1       -4.842  -0.458   0.230  0.00  0.00    +0.080 A 
ATOM      7  C   LIG    1       -6.021  -1.161   0.341  0.00  0.00    +0.000 A 
ATOM      8  C   LIG    1       -7.229  -0.483   0.455  0.00  0.00    +0.180 A 
ATOM      9  C   LIG    1       -7.252   0.907   0.464  0.00  0.00    +0.030 A 
ATOM     10  C   LIG    1       -6.076   1.618   0.358  0.00  0.00    +0.120 A 
BRANCH   8  11
ATOM     11  N   LIG    1       -8.425  -1.201   0.562  0.00  0.00    -0.340 N 
ATOM     12  C   LIG    1       -8.565  -2.542   0.563  0.00  0.00    +0.500 A 
ATOM     13  N   LIG    1       -9.839  -2.815   0.683  0.00  0.00    -0.530 NA
ATOM     14  C   LIG    1      -10.540  -1.683   0.752  0.00  0.00    +0.440 A 
ATOM     15  N   LIG    1       -9.719  -0.668   0.682  0.00  0.00    -0.310 NA
ENDBRANCH   8  11
ENDBRANCH   2   5
BRANCH   3  16
ATOM     16  C   LIG    1       -1.223   1.754   0.023  0.00  0.00    +0.170 A 
ATOM     17  C   LIG    1       -0.147   1.307  -0.733  0.00  0.00    +0.000 A 
ATOM     18  C   LIG    1        1.044   2.008  -0.725  0.00  0.00    +0.080 A 
ATOM     19  C   LIG    1        1.167   3.158   0.031  0.00  0.00    +0.000 A 
ATOM     20  C   LIG    1        0.093   3.613   0.786  0.00  0.00    +0.150 A 
ATOM     21  C   LIG    1       -1.104   2.912   0.780  0.00  0.00    +0.050 A 
BRANCH  20  22
ATOM     22  N   LIG    1        0.219   4.780   1.554  0.00  0.00    -0.330 N 
ATOM     23  C   LIG    1        1.306   5.573   1.668  0.00  0.00    +0.470 A 
ATOM     24  N   LIG    1        0.992   6.548   2.480  0.00  0.00    -0.330 NA
ATOM     25  N   LIG    1       -0.220   6.426   2.887  0.00  0.00    -0.030 NA
ATOM     26  N   LIG    1       -0.761   5.379   2.364  0.00  0.00    -0.070 NA
ENDBRANCH  20  22
ENDBRANCH   3  16
TORSDOF 4
