REMARK  Name = ZINCrD00000l2RAU.1
REMARK                            x       y       z     vdW  Elec       q    Type
REMARK                         _______ _______ _______ _____ _____    ______ ____
ROOT
ATOM      1  C   LIG    1        5.379  -1.134  -3.955  0.00  0.00    +0.230 C 
ATOM      2  C   LIG    1        5.622  -2.224  -2.907  0.00  0.00    +0.040 C 
ATOM      3  C   LIG    1        5.394  -1.642  -1.510  0.00  0.00    +0.180 C 
ATOM      4  N   LIG    1        4.019  -1.138  -1.407  0.00  0.00    -0.530 NA
ATOM      5  C   LIG    1        3.776  -0.058  -2.372  0.00  0.00    +0.170 C 
ATOM      6  C   LIG    1        3.956  -0.592  -3.794  0.00  0.00    +0.020 C 
ENDROOT
BRANCH   1   7
ATOM      7  N   LIG    1        5.539  -1.700  -5.296  0.00  0.00    -0.700 N 
ATOM      8  H   LIG    1        5.405  -2.650  -5.441  0.00  0.00    +0.410 HD
BRANCH   7  12
ATOM      9  C   LIG    1        6.554   0.713  -8.460  0.00  0.00    -0.250 A 
ATOM     10  C   LIG    1        6.410   1.292  -7.189  0.00  0.00    +0.180 A 
ATOM     11  C   LIG    1        6.072   0.483  -6.138  0.00  0.00    -0.110 A 
ATOM     12  C   LIG    1        5.881  -0.880  -6.357  0.00  0.00    +0.440 A 
ATOM     13  N   LIG    1        6.029  -1.403  -7.567  0.00  0.00    -0.550 NA
ATOM     14  C   LIG    1        6.348  -0.661  -8.606  0.00  0.00    +0.390 A 
BRANCH   9  15
ATOM     15  C   LIG    1        6.917   1.542  -9.623  0.00  0.00    +0.520 C 
ATOM     16  O   LIG    1        7.094   2.737  -9.486  0.00  0.00    -0.510 OA
BRANCH  15  17
ATOM     17  O   LIG    1        7.053   0.976 -10.838  0.00  0.00    -0.360 OA
BRANCH  17  19
ATOM     18  C   LIG    1        7.520   1.038 -13.228  0.00  0.00    +0.070 C 
ATOM     19  C   LIG    1        7.412   1.854 -11.938  0.00  0.00    +0.200 C 
ENDBRANCH  17  19
ENDBRANCH  15  17
ENDBRANCH   9  15
ENDBRANCH   7  12
ENDBRANCH   1   7
BRANCH   4  20
ATOM     20  C   LIG    1        3.721  -0.698  -0.038  0.00  0.00    +0.240 C 
BRANCH  20  21
ATOM     21  C   LIG    1        2.403   0.034  -0.021  0.00  0.00    -0.120 A 
ATOM     22  C   LIG    1        2.379   1.415  -0.013  0.00  0.00    +0.050 A 
ATOM     23  C   LIG    1        1.170   2.086   0.002  0.00  0.00    -0.040 A 
ATOM     24  C   LIG    1       -0.017   1.377   0.010  0.00  0.00    +0.040 A 
ATOM     25  C   LIG    1        0.002  -0.004   0.002  0.00  0.00    -0.080 A 
ATOM     26  C   LIG    1        1.213  -0.680  -0.013  0.00  0.00    +0.150 A 
BRANCH  26  27
ATOM     27  O   LIG    1        1.234  -2.039  -0.021  0.00  0.00    -0.300 OA
ATOM     28  C   LIG    1       -0.029  -2.707  -0.013  0.00  0.00    +0.230 C 
ENDBRANCH  26  27
ENDBRANCH  20  21
ENDBRANCH   4  20
TORSDOF 8
