REMARK  Name = ZINCvU0000000Glc.0
REMARK                            x       y       z     vdW  Elec       q    Type
REMARK                         _______ _______ _______ _____ _____    ______ ____
ROOT
ATOM      1  C   LIG    1        3.382   2.854  -2.354  0.00  0.00    +0.550 C 
ATOM      2  N   LIG    1        2.907   4.013  -1.857  0.00  0.00    -0.600 N 
ATOM      3  O   LIG    1        3.600   2.747  -3.546  0.00  0.00    -0.530 OA
ENDROOT
BRANCH   1   5
ATOM      4  C   LIG    1        4.205   0.611  -1.928  0.00  0.00    +0.150 C 
ATOM      5  C   LIG    1        3.638   1.718  -1.456  0.00  0.00    -0.090 C 
ENDBRANCH   1   5
BRANCH   2   6
ATOM      6  C   LIG    1        2.541   5.103  -2.764  0.00  0.00    +0.380 C 
BRANCH   6   7
ATOM      7  C   LIG    1        3.677   6.089  -2.849  0.00  0.00    -0.240 A 
ATOM      8  C   LIG    1        3.875   7.149  -2.030  0.00  0.00    +0.250 A 
ATOM      9  N   LIG    1        5.001   7.777  -2.435  0.00  0.00    -0.320 N 
ATOM     10  N   LIG    1        5.505   7.086  -3.545  0.00  0.00    -0.290 NA
ATOM     11  C   LIG    1        4.711   6.075  -3.791  0.00  0.00    +0.110 A 
ATOM     12  C   LIG    1        4.881   5.068  -4.900  0.00  0.00    +0.170 C 
BRANCH   9  13
ATOM     13  C   LIG    1        5.563   8.922  -1.853  0.00  0.00    +0.170 A 
ATOM     14  C   LIG    1        4.953   9.514  -0.754  0.00  0.00    +0.010 A 
ATOM     15  C   LIG    1        5.510  10.639  -0.179  0.00  0.00    +0.060 A 
ATOM     16  C   LIG    1        6.670  11.183  -0.703  0.00  0.00    -0.050 A 
ATOM     17  C   LIG    1        7.277  10.598  -1.801  0.00  0.00    +0.060 A 
ATOM     18 CL   LIG    1        7.365  12.601   0.019  0.00  0.00    -0.060 Cl
ATOM     19  C   LIG    1        6.726   9.470  -2.376  0.00  0.00    +0.040 A 
ENDBRANCH   9  13
ENDBRANCH   6   7
ENDBRANCH   2   6
BRANCH   2  20
ATOM     20  C   LIG    1        2.757   4.182  -0.409  0.00  0.00    +0.330 C 
BRANCH  20  21
ATOM     21  C   LIG    1        1.409   3.664   0.020  0.00  0.00    -0.110 A 
ATOM     22  C   LIG    1        0.573   3.063  -0.903  0.00  0.00    +0.020 A 
ATOM     23  C   LIG    1       -0.664   2.588  -0.509  0.00  0.00    +0.000 A 
ATOM     24  C   LIG    1       -1.063   2.710   0.808  0.00  0.00    +0.000 A 
ATOM     25  C   LIG    1       -0.230   3.316   1.730  0.00  0.00    +0.040 A 
ATOM     26  C   LIG    1        1.006   3.791   1.336  0.00  0.00    -0.080 A 
BRANCH  26  27
ATOM     27  C   LIG    1        1.917   4.446   2.343  0.00  0.00    +0.220 C 
BRANCH  27  28
ATOM     28  O   LIG    1        1.237   4.565   3.594  0.00  0.00    -0.380 OA
BRANCH  28  29
ATOM     29  C   LIG    1        1.974   5.276   4.590  0.00  0.00    +0.140 C 
ATOM     30  C   LIG    1        2.913   4.311   5.316  0.00  0.00    +0.010 C 
ATOM     31  C   LIG    1        1.003   5.896   5.597  0.00  0.00    +0.040 C 
ENDBRANCH  28  29
ENDBRANCH  27  28
ENDBRANCH  26  27
ENDBRANCH  20  21
ENDBRANCH   2  20
TORSDOF 9
