REMARK  Name = ZINCrH000004qZ6t.0
REMARK                            x       y       z     vdW  Elec       q    Type
REMARK                         _______ _______ _______ _____ _____    ______ ____
ROOT
ATOM      1  C   LIG    1        1.247  -2.164  -0.021  0.00  0.00    +0.190 A 
ATOM      2  N   LIG    1        0.401  -2.964   0.589  0.00  0.00    -0.280 NA
ATOM      3  N   LIG    1        0.765  -4.290   0.339  0.00  0.00    -0.310 N 
ATOM      4  C   LIG    1        1.859  -4.319  -0.442  0.00  0.00    +0.290 A 
ATOM      5  C   LIG    1        2.218  -3.015  -0.716  0.00  0.00    -0.270 A 
ENDROOT
BRANCH   1  10
ATOM      6  C   LIG    1        1.143   3.593   0.011  0.00  0.00    +0.090 C 
ATOM      7  C   LIG    1        1.170   2.086   0.002  0.00  0.00    -0.070 A 
ATOM      8  C   LIG    1       -0.017   1.376   0.010  0.00  0.00    -0.010 A 
ATOM      9  C   LIG    1        0.002  -0.004   0.002  0.00  0.00    +0.040 A 
ATOM     10  C   LIG    1        1.220  -0.682  -0.013  0.00  0.00    -0.040 A 
ATOM     11  C   LIG    1        2.413   0.040  -0.021  0.00  0.00    +0.100 A 
ATOM     12  C   LIG    1        2.382   1.419  -0.013  0.00  0.00    -0.010 A 
ENDBRANCH   1  10
BRANCH   3  13
ATOM     13  C   LIG    1        0.093  -5.418   0.828  0.00  0.00    +0.150 A 
ATOM     14  C   LIG    1        0.545  -6.691   0.507  0.00  0.00    -0.010 A 
ATOM     15  C   LIG    1       -0.118  -7.801   0.994  0.00  0.00    +0.050 A 
ATOM     16  C   LIG    1       -1.237  -7.645   1.791  0.00  0.00    +0.010 A 
ATOM     17  C   LIG    1       -1.692  -6.378   2.108  0.00  0.00    +0.040 A 
ATOM     18  C   LIG    1       -1.031  -5.265   1.629  0.00  0.00    +0.030 A 
ENDBRANCH   3  13
BRANCH   5  19
ATOM     19  C   LIG    1        3.353  -2.567  -1.540  0.00  0.00    +0.590 C 
ATOM     20  N   LIG    1        4.165  -3.474  -2.119  0.00  0.00    -0.730 N 
ATOM     21  H   LIG    1        4.002  -4.421  -1.993  0.00  0.00    +0.400 HD
ATOM     22  O   LIG    1        3.558  -1.379  -1.698  0.00  0.00    -0.530 OA
BRANCH  20  23
ATOM     23  C   LIG    1        5.295  -3.028  -2.939  0.00  0.00    +0.290 C 
BRANCH  23  24
ATOM     24  C   LIG    1        6.049  -4.247  -3.474  0.00  0.00    +0.140 C 
ATOM     25  C   LIG    1        7.295  -3.800  -4.271  0.00  0.00    +0.010 C 
ATOM     26  C   LIG    1        7.374  -4.808  -5.440  0.00  0.00    +0.000 C 
ATOM     27  C   LIG    1        6.166  -5.743  -5.211  0.00  0.00    +0.190 C 
ATOM     28  O   LIG    1        5.235  -4.963  -4.428  0.00  0.00    -0.370 OA
ENDBRANCH  23  24
ENDBRANCH  20  23
ENDBRANCH   5  19
TORSDOF 5
