REMARK  Name = ZINCpk00000FmMoI.0
REMARK                            x       y       z     vdW  Elec       q    Type
REMARK                         _______ _______ _______ _____ _____    ______ ____
ROOT
ATOM      1  C   LIG    1       -0.015  -0.002  -0.013  0.00  0.00    +0.340 C 
ENDROOT
BRANCH   1   8
ATOM      2  C   LIG    1        0.568  -2.807  -0.384  0.00  0.00    +0.090 C 
ATOM      3  C   LIG    1        0.948  -1.811  -1.449  0.00  0.00    -0.070 A 
ATOM      4  C   LIG    1        1.576  -2.240  -2.603  0.00  0.00    -0.010 A 
ATOM      5  C   LIG    1        1.925  -1.326  -3.580  0.00  0.00    +0.010 A 
ATOM      6  C   LIG    1        1.645   0.016  -3.403  0.00  0.00    -0.010 A 
ATOM      7  C   LIG    1        1.014   0.444  -2.250  0.00  0.00    +0.050 A 
ATOM      8  C   LIG    1        0.669  -0.469  -1.271  0.00  0.00    -0.100 A 
ENDBRANCH   1   8
BRANCH   1   9
ATOM      9  N   LIG    1       -1.433  -0.369  -0.063  0.00  0.00    -0.730 N 
ATOM     10  H   LIG    1       -1.796  -0.992   0.587  0.00  0.00    +0.400 HD
ATOM     11  C   LIG    1       -2.232   0.158  -1.011  0.00  0.00    +0.710 C 
ATOM     12  O   LIG    1       -1.760   0.867  -1.879  0.00  0.00    -0.590 OA
ATOM     13  N   LIG    1       -3.555  -0.101  -0.998  0.00  0.00    -0.870 N 
ATOM     14  H   LIG    1       -4.130   0.278  -1.680  0.00  0.00    +0.410 HD
ATOM     15  H   LIG    1       -3.931  -0.666  -0.305  0.00  0.00    +0.400 HD
ENDBRANCH   1   9
BRANCH   1  16
ATOM     16  C   LIG    1        0.114   1.518   0.104  0.00  0.00    +0.060 C 
BRANCH  16  17
ATOM     17  C   LIG    1       -0.463   1.972   1.421  0.00  0.00    +0.530 C 
ATOM     18  N   LIG    1       -0.458   3.280   1.744  0.00  0.00    -0.620 N 
ATOM     19  C   LIG    1       -1.013   3.754   3.022  0.00  0.00    +0.300 C 
ATOM     20  C   LIG    1        0.128   4.359   3.839  0.00  0.00    +0.100 C 
ATOM     21  C   LIG    1        0.953   5.289   2.993  0.00  0.00    -0.180 A 
ATOM     22  C   LIG    1        1.754   6.232   3.628  0.00  0.00    +0.320 A 
ATOM     23  N   LIG    1        2.492   7.051   2.898  0.00  0.00    -0.520 NA
ATOM     24  C   LIG    1        2.476   6.979   1.582  0.00  0.00    +0.500 A 
ATOM     25  N   LIG    1        1.727   6.101   0.948  0.00  0.00    -0.510 NA
ATOM     26  C   LIG    1        0.956   5.251   1.615  0.00  0.00    +0.160 A 
ATOM     27  C   LIG    1        0.106   4.287   0.837  0.00  0.00    +0.370 C 
ATOM     28  O   LIG    1       -0.930   1.159   2.190  0.00  0.00    -0.530 OA
ENDBRANCH  16  17
ENDBRANCH   1  16
TORSDOF 4
