REMARK  Name = ZINCrg00000BmLfL.1
REMARK                            x       y       z     vdW  Elec       q    Type
REMARK                         _______ _______ _______ _____ _____    ______ ____
ROOT
ATOM      1  O   LIG    1        4.294   0.359  -1.208  0.00  0.00    -0.500 OA
ATOM      2  C   LIG    1        3.549   0.988  -0.487  0.00  0.00    +0.500 C 
ATOM      3  N   LIG    1        2.301   1.286  -0.902  0.00  0.00    -0.600 N 
ATOM      4  C   LIG    1        1.420   2.053  -0.001  0.00  0.00    +0.260 C 
ATOM      5  C   LIG    1       -0.018   1.505   0.010  0.00  0.00    +0.030 C 
ATOM      6  C   LIG    1        0.002  -0.004   0.002  0.00  0.00    +0.030 C 
ATOM      7  C   LIG    1       -0.052  -0.503  -1.439  0.00  0.00    +0.170 C 
ATOM      8  C   LIG    1        1.257  -0.572  -2.106  0.00  0.00    -0.020 C 
ATOM      9  C   LIG    1        1.882   0.841  -2.212  0.00  0.00    +0.290 C 
ENDROOT
BRANCH   7  10
ATOM     10  N   LIG    1       -0.648  -1.845  -1.446  0.00  0.00    -0.530 NA
ATOM     11  C   LIG    1        0.169  -2.788  -0.667  0.00  0.00    +0.150 C 
ATOM     12  C   LIG    1       -0.517  -4.157  -0.651  0.00  0.00    +0.220 C 
ATOM     13  O   LIG    1       -0.720  -4.599  -1.996  0.00  0.00    -0.380 OA
ATOM     14  C   LIG    1       -1.512  -3.705  -2.782  0.00  0.00    +0.220 C 
ATOM     15  C   LIG    1       -0.836  -2.332  -2.820  0.00  0.00    +0.150 C 
ENDBRANCH   7  10
BRANCH   2  16
ATOM     16  C   LIG    1        4.017   1.437   0.873  0.00  0.00    +0.370 C 
BRANCH  16  17
ATOM     17  N   LIG    1        5.397   0.992   1.085  0.00  0.00    -0.280 N 
ATOM     18  C   LIG    1        6.441   1.786   1.412  0.00  0.00    +0.170 A 
ATOM     19  C   LIG    1        7.526   0.963   1.510  0.00  0.00    +0.020 A 
ATOM     20  N   LIG    1        7.080  -0.277   1.238  0.00  0.00    -0.250 NA
ATOM     21  N   LIG    1        5.818  -0.220   0.997  0.00  0.00    -0.050 NA
BRANCH  19  22
ATOM     22  C   LIG    1        8.916   1.356   1.848  0.00  0.00    -0.060 A 
ATOM     23  C   LIG    1        9.948   0.415   1.815  0.00  0.00    +0.090 A 
ATOM     24  C   LIG    1       11.229   0.833   2.134  0.00  0.00    -0.030 A 
ATOM     25  C   LIG    1       11.442   2.155   2.482  0.00  0.00    +0.260 A 
ATOM     26  N   LIG    1       10.447   3.020   2.508  0.00  0.00    -0.480 NA
ATOM     27  C   LIG    1        9.213   2.669   2.208  0.00  0.00    +0.270 A 
ENDBRANCH  19  22
ENDBRANCH  16  17
ENDBRANCH   2  16
TORSDOF 4
