REMARK  Name = ZINCrD00000CBn0G.0
REMARK                            x       y       z     vdW  Elec       q    Type
REMARK                         _______ _______ _______ _____ _____    ______ ____
ROOT
ATOM      1  N   LIG    1        3.681   2.384  -0.786  0.00  0.00    -0.510 NA
ATOM      2  C   LIG    1        3.331   2.838  -2.138  0.00  0.00    +0.180 C 
ATOM      3  C   LIG    1        4.596   3.301  -2.865  0.00  0.00    +0.040 C 
ATOM      4  C   LIG    1        5.590   2.139  -2.938  0.00  0.00    +0.180 C 
ATOM      5  C   LIG    1        5.901   1.653  -1.520  0.00  0.00    +0.070 C 
ATOM      6  C   LIG    1        4.599   1.239  -0.831  0.00  0.00    +0.190 C 
ENDROOT
BRANCH   4   7
ATOM      7  C   LIG    1        6.861   2.605  -3.601  0.00  0.00    -0.120 A 
ATOM      8  C   LIG    1        7.881   3.141  -2.837  0.00  0.00    +0.060 A 
ATOM      9  C   LIG    1        9.049   3.565  -3.443  0.00  0.00    -0.010 A 
ATOM     10  C   LIG    1        9.193   3.461  -4.816  0.00  0.00    +0.100 A 
ATOM     11  C   LIG    1        8.168   2.928  -5.581  0.00  0.00    -0.010 A 
ATOM     12  F   LIG    1       10.332   3.879  -5.410  0.00  0.00    -0.140 F 
ATOM     13  C   LIG    1        7.004   2.501  -4.972  0.00  0.00    +0.050 A 
ENDBRANCH   4   7
BRANCH   4  14
ATOM     14  O   LIG    1        5.020   1.069  -3.695  0.00  0.00    -0.550 OA
ATOM     15  H   LIG    1        4.798   1.306  -4.606  0.00  0.00    +0.370 HD
ENDBRANCH   4  14
BRANCH   1  16
ATOM     16  C   LIG    1        2.476   2.063  -0.009  0.00  0.00    +0.180 C 
BRANCH  16  17
ATOM     17  C   LIG    1        1.561   3.260   0.015  0.00  0.00    -0.070 A 
ATOM     18  C   LIG    1        2.090   4.536  -0.033  0.00  0.00    +0.110 A 
ATOM     19  C   LIG    1        1.252   5.634  -0.011  0.00  0.00    +0.010 A 
ATOM     20  C   LIG    1       -0.119   5.457   0.060  0.00  0.00    +0.110 A 
ATOM     21  C   LIG    1       -0.650   4.178   0.102  0.00  0.00    +0.030 A 
ATOM     22  F   LIG    1       -0.940   6.530   0.082  0.00  0.00    -0.130 F 
ATOM     23  C   LIG    1        0.191   3.081   0.085  0.00  0.00    -0.070 A 
ATOM     24  I   LIG    1       -0.610   1.147   0.156  0.00  0.00    -0.020 I 
ENDBRANCH  16  17
BRANCH  16  28
ATOM     25  C   LIG    1        2.432   0.568   3.513  0.00  0.00    +0.290 C 
ATOM     26  N   LIG    1        2.116   0.835   2.107  0.00  0.00    -0.740 N 
ATOM     27  H   LIG    1        1.365   0.388   1.686  0.00  0.00    +0.400 HD
ATOM     28  C   LIG    1        2.868   1.702   1.400  0.00  0.00    +0.520 C 
ATOM     29  O   LIG    1        3.860   2.190   1.898  0.00  0.00    -0.510 OA
ENDBRANCH  16  28
ENDBRANCH   1  16
TORSDOF 5
