REMARK  Name = ZINCqH0000033nwj.0
REMARK                            x       y       z     vdW  Elec       q    Type
REMARK                         _______ _______ _______ _____ _____    ______ ____
ROOT
ATOM      1  C   LIG    1        3.642   2.152  -0.021  0.00  0.00    -0.040 A 
ATOM      2  C   LIG    1        4.804   1.396  -0.051  0.00  0.00    -0.040 A 
ATOM      3  C   LIG    1        4.716  -0.003  -0.057  0.00  0.00    +0.430 A 
ATOM      4  N   LIG    1        3.565  -0.635  -0.036  0.00  0.00    -0.530 NA
ATOM      5  C   LIG    1        2.396   0.011  -0.006  0.00  0.00    +0.180 A 
ATOM      6  C   LIG    1        1.178  -0.691   0.016  0.00  0.00    +0.010 A 
ATOM      7  C   LIG    1        0.003  -0.004   0.045  0.00  0.00    +0.050 A 
ATOM      8  C   LIG    1       -0.016   1.388   0.054  0.00  0.00    -0.010 A 
ATOM      9  C   LIG    1        1.146   2.102   0.033  0.00  0.00    +0.080 A 
ATOM     10  C   LIG    1        2.371   1.428   0.002  0.00  0.00    -0.110 A 
ENDROOT
BRANCH   1  13
ATOM     11  N   LIG    1        4.869   4.269   0.081  0.00  0.00    -0.720 N 
ATOM     12  H   LIG    1        5.692   3.760   0.144  0.00  0.00    +0.400 HD
ATOM     13  C   LIG    1        3.686   3.631  -0.013  0.00  0.00    +0.560 C 
ATOM     14  O   LIG    1        2.655   4.269  -0.092  0.00  0.00    -0.520 OA
BRANCH  11  16
ATOM     15  C   LIG    1        6.365   6.200   0.204  0.00  0.00    +0.030 C 
ATOM     16  C   LIG    1        4.912   5.734   0.089  0.00  0.00    +0.250 C 
ENDBRANCH  11  16
ENDBRANCH   1  13
BRANCH   3  17
ATOM     17  N   LIG    1        5.887  -0.747  -0.086  0.00  0.00    -0.720 N 
ATOM     18  H   LIG    1        5.846  -1.716  -0.091  0.00  0.00    +0.410 HD
BRANCH  17  19
ATOM     19  C   LIG    1        7.186  -0.069  -0.111  0.00  0.00    +0.330 C 
BRANCH  19  20
ATOM     20  C   LIG    1        8.288  -1.095  -0.141  0.00  0.00    -0.120 A 
ATOM     21  C   LIG    1        8.767  -1.558  -1.352  0.00  0.00    +0.080 A 
ATOM     22  C   LIG    1        9.779  -2.499  -1.383  0.00  0.00    -0.040 A 
ATOM     23  C   LIG    1       10.314  -2.980  -0.198  0.00  0.00    +0.110 A 
ATOM     24  C   LIG    1        9.832  -2.514   1.019  0.00  0.00    +0.070 A 
ATOM     25  F   LIG    1       10.351  -2.980   2.176  0.00  0.00    -0.130 F 
ATOM     26  C   LIG    1        8.823  -1.568   1.044  0.00  0.00    +0.060 A 
BRANCH  23  27
ATOM     27  O   LIG    1       11.309  -3.906  -0.226  0.00  0.00    -0.310 OA
ATOM     28  C   LIG    1       11.755  -4.340  -1.513  0.00  0.00    +0.250 C 
ENDBRANCH  23  27
ENDBRANCH  19  20
ENDBRANCH  17  19
ENDBRANCH   3  17
TORSDOF 6
