REMARK  Name = ZINCqH0000001MNg.0
REMARK                            x       y       z     vdW  Elec       q    Type
REMARK                         _______ _______ _______ _____ _____    ______ ____
ROOT
ATOM      1  C   LIG    1       -1.097  -2.528   4.541  0.00  0.00    -0.170 A 
ATOM      2  C   LIG    1       -1.977  -1.861   3.684  0.00  0.00    +0.080 A 
ATOM      3  C   LIG    1       -1.598  -0.671   3.108  0.00  0.00    -0.040 A 
ATOM      4  C   LIG    1       -0.346  -0.126   3.381  0.00  0.00    +0.210 A 
ATOM      5  C   LIG    1        0.535  -0.787   4.231  0.00  0.00    -0.120 A 
ATOM      6  C   LIG    1        1.897  -0.224   4.545  0.00  0.00    +0.090 C 
ATOM      7  C   LIG    1        2.321   0.779   3.472  0.00  0.00    +0.040 C 
ATOM      8  C   LIG    1        1.193   1.799   3.276  0.00  0.00    +0.290 C 
ATOM      9  N   LIG    1        0.015   1.077   2.777  0.00  0.00    -0.940 N 
ATOM     10  C   LIG    1        0.160  -1.982   4.809  0.00  0.00    +0.120 A 
ENDROOT
BRANCH   1  13
ATOM     11  N   LIG    1       -2.709  -4.331   4.902  0.00  0.00    -0.670 N 
ATOM     12  H   LIG    1       -3.290  -3.911   4.248  0.00  0.00    +0.410 HD
ATOM     13  C   LIG    1       -1.496  -3.806   5.161  0.00  0.00    +0.560 C 
ATOM     14  O   LIG    1       -0.729  -4.385   5.907  0.00  0.00    -0.520 OA
BRANCH  11  19
ATOM     15  C   LIG    1       -3.172  -6.835   7.554  0.00  0.00    -0.060 A 
ATOM     16  C   LIG    1       -3.966  -7.761   6.903  0.00  0.00    -0.010 A 
ATOM     17  C   LIG    1       -4.343  -7.552   5.589  0.00  0.00    +0.030 A 
ATOM     18  C   LIG    1       -3.932  -6.413   4.924  0.00  0.00    -0.030 A 
ATOM     19  C   LIG    1       -3.131  -5.483   5.573  0.00  0.00    +0.150 A 
ATOM     20  C   LIG    1       -2.753  -5.696   6.893  0.00  0.00    +0.010 A 
BRANCH  15  22
ATOM     21  C   LIG    1       -4.012  -7.166   9.863  0.00  0.00    +0.040 C 
ATOM     22  C   LIG    1       -2.763  -7.067   8.985  0.00  0.00    +0.020 C 
ATOM     23  C   LIG    1       -1.967  -8.370   9.083  0.00  0.00    +0.040 C 
ENDBRANCH  15  22
ENDBRANCH  11  19
ENDBRANCH   1  13
BRANCH   9  24
ATOM     24  S   LIG    1       -0.875   1.686   1.520  0.00  0.00    +2.600 S 
ATOM     25  O   LIG    1       -0.012   2.634   0.907  0.00  0.00    -0.940 OA
ATOM     26  O   LIG    1       -1.319   0.535   0.815  0.00  0.00    -0.940 OA
ATOM     27  C   LIG    1       -2.273   2.522   2.319  0.00  0.00    -0.270 C 
ENDBRANCH   9  24
TORSDOF 4
