REMARK  Name = ZINCpe00000VVH35.0
REMARK                            x       y       z     vdW  Elec       q    Type
REMARK                         _______ _______ _______ _____ _____    ______ ____
ROOT
ATOM      1  N   LIG    1        1.114   2.199   0.022  0.00  0.00    -0.500 N 
ATOM      2  H   LIG    1        1.976   1.760  -0.051  0.00  0.00    +0.440 HD
ATOM      3  C   LIG    1       -0.018   1.467   0.010  0.00  0.00    +0.580 C 
ATOM      4  O   LIG    1       -1.101   2.021   0.009  0.00  0.00    -0.530 OA
ENDROOT
BRANCH   3   5
ATOM      5  C   LIG    1        0.056  -0.002  -0.007  0.00  0.00    -0.250 A 
ATOM      6  C   LIG    1       -1.101  -0.772   0.097  0.00  0.00    +0.280 A 
ATOM      7  C   LIG    1       -0.991  -2.162   0.076  0.00  0.00    -0.160 A 
ATOM      8  C   LIG    1        0.228  -2.748  -0.043  0.00  0.00    +0.480 A 
ATOM      9  N   LIG    1        1.357  -2.006  -0.145  0.00  0.00    -0.580 N 
ATOM     10  H   LIG    1        2.214  -2.451  -0.229  0.00  0.00    +0.440 HD
ATOM     11  C   LIG    1        1.307  -0.660  -0.136  0.00  0.00    +0.540 A 
ATOM     12  O   LIG    1        2.333  -0.010  -0.233  0.00  0.00    -0.500 OA
BRANCH   7  13
ATOM     13  N   LIG    1       -2.206  -3.001   0.185  0.00  0.00    +0.040 N 
ATOM     14  O   LIG    1       -3.300  -2.476   0.293  0.00  0.00    -0.140 OA
ATOM     15  O   LIG    1       -2.111  -4.215   0.167  0.00  0.00    -0.160 OA
ENDBRANCH   7  13
ENDBRANCH   3   5
BRANCH   1  18
ATOM     16  O   LIG    1        3.257   3.775   0.060  0.00  0.00    -0.530 OA
ATOM     17  C   LIG    1        2.177   4.325   0.152  0.00  0.00    +0.560 C 
ATOM     18  N   LIG    1        1.045   3.593   0.140  0.00  0.00    -0.520 N 
ATOM     19  H   LIG    1        0.183   4.031   0.213  0.00  0.00    +0.430 HD
BRANCH  17  20
ATOM     20  C   LIG    1        2.104   5.796   0.277  0.00  0.00    -0.130 A 
ATOM     21  C   LIG    1        0.866   6.431   0.382  0.00  0.00    +0.050 A 
ATOM     22  C   LIG    1        0.808   7.803   0.498  0.00  0.00    +0.020 A 
ATOM     23  C   LIG    1        1.972   8.556   0.510  0.00  0.00    -0.060 A 
ATOM     24  C   LIG    1        2.167  10.054   0.625  0.00  0.00    +0.080 C 
ATOM     25  C   LIG    1        3.610  10.312   0.142  0.00  0.00    +0.030 C 
ATOM     26  C   LIG    1        4.306   8.969   0.444  0.00  0.00    +0.080 C 
ATOM     27  C   LIG    1        3.203   7.932   0.406  0.00  0.00    -0.100 A 
ATOM     28  C   LIG    1        3.273   6.557   0.295  0.00  0.00    +0.100 A 
ENDBRANCH  17  20
ENDBRANCH   1  18
TORSDOF 4
