REMARK  Name = ZINCvU0000000BfY.0
REMARK                            x       y       z     vdW  Elec       q    Type
REMARK                         _______ _______ _______ _____ _____    ______ ____
ROOT
ATOM      1  C   LIG    1        4.691   0.014  -0.272  0.00  0.00    +0.210 A 
ATOM      2  N   LIG    1        3.608  -0.624   0.119  0.00  0.00    -0.460 NA
ATOM      3  C   LIG    1        2.466   0.009   0.394  0.00  0.00    +0.140 A 
ATOM      4  C   LIG    1        1.325  -0.699   0.810  0.00  0.00    +0.050 A 
ATOM      5  C   LIG    1        0.174  -0.025   1.083  0.00  0.00    +0.040 A 
ATOM      6  C   LIG    1        0.106   1.360   0.958  0.00  0.00    +0.030 A 
ATOM      7  C   LIG    1        1.192   2.080   0.557  0.00  0.00    +0.030 A 
ATOM      8  C   LIG    1        2.391   1.419   0.268  0.00  0.00    -0.070 A 
ATOM      9  C   LIG    1        3.582   2.151  -0.165  0.00  0.00    -0.060 A 
ATOM     10  C   LIG    1        4.724   1.409  -0.428  0.00  0.00    +0.030 A 
ENDROOT
BRANCH   9  11
ATOM     11  C   LIG    1        3.569   3.622  -0.316  0.00  0.00    +0.580 C 
ATOM     12  N   LIG    1        4.131   4.401   0.629  0.00  0.00    -0.540 N 
ATOM     13  C   LIG    1        4.085   5.866   0.645  0.00  0.00    +0.290 C 
ATOM     14  C   LIG    1        4.859   6.279   1.907  0.00  0.00    +0.110 C 
ATOM     15  C   LIG    1        5.298   4.973   2.529  0.00  0.00    -0.130 A 
ATOM     16  C   LIG    1        6.024   4.713   3.675  0.00  0.00    +0.060 A 
ATOM     17  C   LIG    1        6.303   3.409   4.041  0.00  0.00    +0.000 A 
ATOM     18  C   LIG    1        5.852   2.364   3.257  0.00  0.00    +0.050 A 
ATOM     19  C   LIG    1        5.127   2.618   2.112  0.00  0.00    -0.030 A 
ATOM     20  C   LIG    1        4.837   3.931   1.739  0.00  0.00    +0.140 A 
ATOM     21  O   LIG    1        3.051   4.128  -1.293  0.00  0.00    -0.490 OA
ENDBRANCH   9  11
BRANCH   1  25
ATOM     22  C   LIG    1        8.217  -2.223  -1.090  0.00  0.00    +0.120 A 
ATOM     23  C   LIG    1        8.281  -0.842  -0.985  0.00  0.00    -0.040 A 
ATOM     24  C   LIG    1        7.138  -0.114  -0.724  0.00  0.00    +0.040 A 
ATOM     25  C   LIG    1        5.918  -0.767  -0.556  0.00  0.00    -0.060 A 
ATOM     26  C   LIG    1        5.853  -2.156  -0.662  0.00  0.00    +0.020 A 
ATOM     27  C   LIG    1        7.000  -2.881  -0.928  0.00  0.00    +0.090 A 
BRANCH  22  29
ATOM     28  C   LIG    1       10.558  -2.198  -1.506  0.00  0.00    +0.240 C 
ATOM     29  O   LIG    1        9.345  -2.936  -1.351  0.00  0.00    -0.300 OA
ENDBRANCH  22  29
BRANCH  27  30
ATOM     30  O   LIG    1        6.940  -4.236  -1.032  0.00  0.00    -0.300 OA
ATOM     31  C   LIG    1        5.659  -4.844  -0.854  0.00  0.00    +0.240 C 
ENDBRANCH  27  30
ENDBRANCH   1  25
TORSDOF 4
