REMARK  Name = ZINCtV00000L6jZl.0
REMARK                            x       y       z     vdW  Elec       q    Type
REMARK                         _______ _______ _______ _____ _____    ______ ____
ROOT
ATOM      1  N   LIG    1        0.741   4.289  -0.824  0.00  0.00    -0.470 N 
ATOM      2  C   LIG    1        0.590   5.577  -0.352  0.00  0.00    +0.060 A 
ATOM      3  C   LIG    1        0.335   6.803  -0.951  0.00  0.00    +0.010 A 
ATOM      4  C   LIG    1        0.249   7.939  -0.174  0.00  0.00    +0.030 A 
ATOM      5  C   LIG    1        0.416   7.863   1.202  0.00  0.00    +0.000 A 
ATOM      6  C   LIG    1        0.668   6.665   1.809  0.00  0.00    +0.070 A 
ATOM      7  C   LIG    1        0.759   5.502   1.041  0.00  0.00    +0.040 A 
ATOM      8  N   LIG    1        0.993   4.198   1.341  0.00  0.00    -0.470 NA
ATOM      9  C   LIG    1        0.979   3.489   0.250  0.00  0.00    +0.280 A 
ENDROOT
BRANCH   1  11
ATOM     10  C   LIG    1        0.213   5.041  -3.091  0.00  0.00    +0.070 C 
ATOM     11  C   LIG    1        0.655   3.861  -2.223  0.00  0.00    +0.280 C 
BRANCH  11  12
ATOM     12  C   LIG    1        2.006   3.377  -2.683  0.00  0.00    -0.110 A 
ATOM     13  C   LIG    1        3.114   4.195  -2.556  0.00  0.00    +0.020 A 
ATOM     14  C   LIG    1        4.354   3.749  -2.975  0.00  0.00    +0.010 A 
ATOM     15  C   LIG    1        4.484   2.489  -3.529  0.00  0.00    +0.020 A 
ATOM     16  C   LIG    1        3.376   1.674  -3.660  0.00  0.00    +0.010 A 
ATOM     17  C   LIG    1        2.137   2.118  -3.238  0.00  0.00    +0.030 A 
ENDBRANCH  11  12
ENDBRANCH   1  11
BRANCH   9  18
ATOM     18  C   LIG    1        1.200   2.000   0.186  0.00  0.00    +0.330 C 
BRANCH  18  19
ATOM     19  O   LIG    1       -0.063   1.330   0.193  0.00  0.00    -0.310 OA
BRANCH  19  20
ATOM     20  C   LIG    1       -0.041  -0.028   0.242  0.00  0.00    +0.120 A 
ATOM     21  C   LIG    1        1.167  -0.706   0.165  0.00  0.00    -0.070 A 
ATOM     22  C   LIG    1        1.187  -2.086   0.221  0.00  0.00    +0.050 A 
ATOM     23  C   LIG    1        0.004  -2.792   0.343  0.00  0.00    -0.100 A 
ATOM     24  C   LIG    1       -1.201  -2.118   0.415  0.00  0.00    +0.050 A 
ATOM     25  C   LIG    1       -1.226  -0.738   0.364  0.00  0.00    -0.010 A 
BRANCH  23  26
ATOM     26  C   LIG    1        0.029  -4.298   0.399  0.00  0.00    -0.030 C 
ATOM     27  C   LIG    1       -0.582  -4.770   1.720  0.00  0.00    +0.040 C 
ATOM     28  C   LIG    1        1.475  -4.788   0.301  0.00  0.00    +0.030 C 
ATOM     29  C   LIG    1       -0.781  -4.864  -0.769  0.00  0.00    +0.040 C 
ENDBRANCH  23  26
ENDBRANCH  19  20
ENDBRANCH  18  19
ENDBRANCH   9  18
TORSDOF 6
