REMARK  Name = ZINCvU0000000DSH.0
REMARK                            x       y       z     vdW  Elec       q    Type
REMARK                         _______ _______ _______ _____ _____    ______ ____
ROOT
ATOM      1  C   LIG    1       -3.839   2.554   0.574  0.00  0.00    -0.110 A 
ATOM      2  C   LIG    1       -3.677   1.185   0.687  0.00  0.00    +0.040 A 
ATOM      3  C   LIG    1       -2.424   0.622   0.543  0.00  0.00    +0.030 A 
ATOM      4  C   LIG    1       -1.327   1.432   0.283  0.00  0.00    +0.160 A 
ATOM      5  C   LIG    1       -1.492   2.807   0.175  0.00  0.00    -0.010 A 
ATOM      6  C   LIG    1       -2.748   3.363   0.315  0.00  0.00    +0.030 A 
ENDROOT
BRANCH   4   7
ATOM      7  N   LIG    1       -0.056   0.865   0.136  0.00  0.00    -0.680 N 
ATOM      8  H   LIG    1        0.727   1.337   0.462  0.00  0.00    +0.410 HD
ATOM      9  C   LIG    1        0.081  -0.339  -0.453  0.00  0.00    +0.700 C 
ATOM     10  N   LIG    1        1.310  -0.846  -0.674  0.00  0.00    -0.680 N 
ATOM     11  H   LIG    1        2.093  -0.380  -0.343  0.00  0.00    +0.410 HD
ATOM     12  O   LIG    1       -0.905  -0.969  -0.786  0.00  0.00    -0.550 OA
BRANCH  10  13
ATOM     13  C   LIG    1        1.456  -2.045  -1.382  0.00  0.00    +0.160 A 
ATOM     14  C   LIG    1        2.490  -2.916  -1.068  0.00  0.00    -0.020 A 
ATOM     15  C   LIG    1        2.629  -4.100  -1.766  0.00  0.00    +0.030 A 
ATOM     16  C   LIG    1        1.745  -4.413  -2.782  0.00  0.00    -0.010 A 
ATOM     17  C   LIG    1        0.717  -3.545  -3.100  0.00  0.00    +0.030 A 
ATOM     18  C   LIG    1        0.570  -2.362  -2.403  0.00  0.00    +0.020 A 
ENDBRANCH  10  13
ENDBRANCH   4   7
BRANCH   1  19
ATOM     19  C   LIG    1       -5.208   3.164   0.732  0.00  0.00    +0.290 C 
ATOM     20  C   LIG    1       -5.348   3.741   2.142  0.00  0.00    +0.040 C 
BRANCH  19  22
ATOM     21  C   LIG    1       -6.619   4.582  -0.658  0.00  0.00    +0.520 C 
ATOM     22  N   LIG    1       -5.382   4.234  -0.253  0.00  0.00    -0.720 N 
ATOM     23  H   LIG    1       -4.607   4.693  -0.614  0.00  0.00    +0.400 HD
ATOM     24  O   LIG    1       -7.589   4.009  -0.208  0.00  0.00    -0.510 OA
BRANCH  21  25
ATOM     25  C   LIG    1       -6.799   5.683  -1.672  0.00  0.00    +0.220 C 
BRANCH  25  26
ATOM     26  O   LIG    1       -8.191   5.864  -1.937  0.00  0.00    -0.290 OA
BRANCH  26  31
ATOM     27  C   LIG    1      -10.201   8.035  -4.055  0.00  0.00    -0.040 A 
ATOM     28  C   LIG    1       -9.214   8.785  -4.665  0.00  0.00    -0.030 A 
ATOM     29  C   LIG    1       -7.883   8.558  -4.363  0.00  0.00    +0.050 A 
ATOM     30  C   LIG    1       -7.539   7.585  -3.446  0.00  0.00    -0.090 A 
ATOM     31  C   LIG    1       -8.528   6.827  -2.836  0.00  0.00    +0.130 A 
ATOM     32  C   LIG    1       -9.861   7.056  -3.141  0.00  0.00    -0.020 A 
BRANCH  27  34
ATOM     33  C   LIG    1      -12.217   9.339  -3.432  0.00  0.00    +0.030 C 
ATOM     34  C   LIG    1      -11.650   8.285  -4.386  0.00  0.00    +0.070 C 
ENDBRANCH  27  34
ENDBRANCH  26  31
ENDBRANCH  25  26
ENDBRANCH  21  25
ENDBRANCH  19  22
ENDBRANCH   1  19
TORSDOF 8
