REMARK  Name = ZINCvU0000000Jra.0
REMARK                            x       y       z     vdW  Elec       q    Type
REMARK                         _______ _______ _______ _____ _____    ______ ____
ROOT
ATOM      1  N   LIG    1       -7.013   0.062  -7.447  0.00  0.00    -0.620 N 
ATOM      2  H   LIG    1       -7.572  -0.586  -6.990  0.00  0.00    +0.420 HD
ATOM      3  C   LIG    1       -6.022   0.686  -6.780  0.00  0.00    +0.560 C 
ATOM      4  O   LIG    1       -5.322   1.498  -7.353  0.00  0.00    -0.490 OA
ENDROOT
BRANCH   3   5
ATOM      5  C   LIG    1       -5.786   0.383  -5.353  0.00  0.00    -0.120 A 
ATOM      6  C   LIG    1       -6.588  -0.549  -4.693  0.00  0.00    +0.030 A 
ATOM      7  C   LIG    1       -6.366  -0.830  -3.360  0.00  0.00    +0.040 A 
ATOM      8  C   LIG    1       -5.351  -0.190  -2.674  0.00  0.00    +0.030 A 
ATOM      9  C   LIG    1       -4.546   0.740  -3.322  0.00  0.00    +0.140 A 
ATOM     10  C   LIG    1       -4.764   1.033  -4.659  0.00  0.00    +0.090 A 
BRANCH   9  11
ATOM     11  N   LIG    1       -3.519   1.385  -2.623  0.00  0.00    -0.670 N 
ATOM     12  H   LIG    1       -3.627   1.588  -1.681  0.00  0.00    +0.410 HD
ATOM     13  C   LIG    1       -2.381   1.723  -3.259  0.00  0.00    +0.510 C 
ATOM     14  O   LIG    1       -2.206   1.385  -4.411  0.00  0.00    -0.490 OA
BRANCH  13  15
ATOM     15  C   LIG    1       -1.324   2.522  -2.540  0.00  0.00    +0.160 C 
ATOM     16  C   LIG    1       -1.868   3.923  -2.199  0.00  0.00    +0.020 C 
ATOM     17  C   LIG    1       -0.887   4.892  -2.902  0.00  0.00    +0.010 C 
ATOM     18  C   LIG    1        0.369   4.004  -3.091  0.00  0.00    +0.210 C 
ATOM     19  O   LIG    1       -0.182   2.703  -3.393  0.00  0.00    -0.350 OA
ENDBRANCH  13  15
ENDBRANCH   9  11
ENDBRANCH   3   5
BRANCH   1  23
ATOM     20  C   LIG    1       -8.221   0.203 -10.790  0.00  0.00    +0.130 A 
ATOM     21  C   LIG    1       -7.310   1.124 -11.154  0.00  0.00    -0.110 A 
ATOM     22  S   LIG    1       -6.309   1.494  -9.751  0.00  0.00    +0.210 S 
ATOM     23  C   LIG    1       -7.235   0.346  -8.787  0.00  0.00    +0.280 A 
ATOM     24  N   LIG    1       -8.152  -0.195  -9.527  0.00  0.00    -0.500 NA
BRANCH  20  28
ATOM     25  C   LIG    1      -11.107  -1.337 -13.505  0.00  0.00    -0.070 A 
ATOM     26  C   LIG    1      -11.085  -1.784 -12.196  0.00  0.00    +0.000 A 
ATOM     27  C   LIG    1      -10.150  -1.287 -11.310  0.00  0.00    +0.050 A 
ATOM     28  C   LIG    1       -9.227  -0.334 -11.737  0.00  0.00    -0.030 A 
ATOM     29  C   LIG    1       -9.258   0.117 -13.055  0.00  0.00    +0.020 A 
ATOM     30  C   LIG    1      -10.193  -0.391 -13.934  0.00  0.00    +0.000 A 
BRANCH  25  32
ATOM     31  C   LIG    1      -12.999  -0.738 -14.992  0.00  0.00    +0.030 C 
ATOM     32  C   LIG    1      -12.130  -1.883 -14.468  0.00  0.00    +0.020 C 
ATOM     33  C   LIG    1      -11.416  -2.560 -15.640  0.00  0.00    +0.030 C 
ENDBRANCH  25  32
ENDBRANCH  20  28
ENDBRANCH   1  23
TORSDOF 6
