REMARK  Name = ZINCqH0000005sAM.0
REMARK                            x       y       z     vdW  Elec       q    Type
REMARK                         _______ _______ _______ _____ _____    ______ ____
ROOT
ATOM      1  N   LIG    1       -1.212   2.062   0.017  0.00  0.00    -0.650 N 
ATOM      2  H   LIG    1       -1.226   3.030   0.085  0.00  0.00    +0.430 HD
ATOM      3  C   LIG    1       -2.369   1.377  -0.079  0.00  0.00    +0.570 C 
ATOM      4  O   LIG    1       -2.357   0.161  -0.081  0.00  0.00    -0.510 OA
ENDROOT
BRANCH   3   5
ATOM      5  C   LIG    1       -3.650   2.102  -0.181  0.00  0.00    -0.090 A 
ATOM      6  C   LIG    1       -3.666   3.499  -0.179  0.00  0.00    +0.060 A 
ATOM      7  C   LIG    1       -4.864   4.175  -0.275  0.00  0.00    -0.030 A 
ATOM      8  C   LIG    1       -6.056   3.470  -0.373  0.00  0.00    +0.110 A 
ATOM      9  C   LIG    1       -6.047   2.076  -0.376  0.00  0.00    +0.120 A 
ATOM     10 CL   LIG    1       -4.882   5.911  -0.271  0.00  0.00    -0.030 Cl
ATOM     11  C   LIG    1       -4.850   1.393  -0.287  0.00  0.00    +0.030 A 
BRANCH   9  12
ATOM     12  O   LIG    1       -7.216   1.388  -0.472  0.00  0.00    -0.300 OA
ATOM     13  C   LIG    1       -7.132  -0.038  -0.469  0.00  0.00    +0.250 C 
ENDBRANCH   9  12
BRANCH   8  14
ATOM     14  O   LIG    1       -7.234   4.140  -0.467  0.00  0.00    -0.310 OA
BRANCH  14  15
ATOM     15  C   LIG    1       -7.694   4.463  -1.781  0.00  0.00    +0.150 C 
ATOM     16  C   LIG    1       -7.149   5.834  -2.189  0.00  0.00    +0.020 C 
ATOM     17  C   LIG    1       -9.223   4.499  -1.792  0.00  0.00    +0.060 C 
ENDBRANCH  14  15
ENDBRANCH   8  14
ENDBRANCH   3   5
BRANCH   1  23
ATOM     18  C   LIG    1        1.127   1.944  -0.603  0.00  0.00    -0.170 A 
ATOM     19  C   LIG    1        2.338   1.249  -0.598  0.00  0.00    +0.060 A 
ATOM     20  C   LIG    1        2.421   0.017   0.016  0.00  0.00    -0.010 A 
ATOM     21  C   LIG    1        1.308  -0.535   0.629  0.00  0.00    +0.060 A 
ATOM     22  C   LIG    1        0.105   0.141   0.633  0.00  0.00    +0.020 A 
ATOM     23  C   LIG    1        0.002   1.382   0.020  0.00  0.00    +0.210 A 
BRANCH  18  27
ATOM     24  C   LIG    1        1.988   5.062  -2.592  0.00  0.00    +0.290 C 
ATOM     25  N   LIG    1        2.084   3.753  -1.941  0.00  0.00    -0.730 N 
ATOM     26  H   LIG    1        2.905   3.241  -2.001  0.00  0.00    +0.400 HD
ATOM     27  C   LIG    1        1.030   3.262  -1.259  0.00  0.00    +0.570 C 
ATOM     28  O   LIG    1        0.001   3.905  -1.183  0.00  0.00    -0.540 OA
ENDBRANCH  18  27
ENDBRANCH   1  23
TORSDOF 6
