REMARK  Name = ZINCrg000000plsJ.0
REMARK                            x       y       z     vdW  Elec       q    Type
REMARK                         _______ _______ _______ _____ _____    ______ ____
ROOT
ATOM      1  N   LIG    1        2.930   4.074  -1.401  0.00  0.00    -0.720 N 
ATOM      2  H   LIG    1        2.372   3.771  -2.135  0.00  0.00    +0.410 HD
ATOM      3  C   LIG    1        4.127   4.640  -1.655  0.00  0.00    +0.510 C 
ATOM      4  O   LIG    1        4.825   5.019  -0.739  0.00  0.00    -0.530 OA
ENDROOT
BRANCH   1   5
ATOM      5  C   LIG    1        2.472   3.918  -0.019  0.00  0.00    +0.330 C 
BRANCH   5  11
ATOM      6  C   LIG    1       -0.009   3.803  -0.324  0.00  0.00    -0.080 A 
ATOM      7  C   LIG    1       -1.203   3.107  -0.310  0.00  0.00    +0.030 A 
ATOM      8  C   LIG    1       -1.218   1.766   0.029  0.00  0.00    +0.030 A 
ATOM      9  C   LIG    1       -0.037   1.121   0.345  0.00  0.00    +0.020 A 
ATOM     10  C   LIG    1        1.157   1.817   0.331  0.00  0.00    +0.040 A 
ATOM     11  C   LIG    1        1.171   3.158  -0.004  0.00  0.00    -0.090 A 
BRANCH   6  12
ATOM     12  C   LIG    1        0.005   5.266  -0.687  0.00  0.00    -0.300 C 
BRANCH  12  13
ATOM     13  S   LIG    1       -0.372   6.258   0.783  0.00  0.00    +2.610 S 
ATOM     14  O   LIG    1        0.631   6.083   1.774  0.00  0.00    -0.940 OA
ATOM     15  O   LIG    1       -1.751   6.160   1.111  0.00  0.00    -0.950 OA
BRANCH  13  17
ATOM     16  C   LIG    1       -1.074   8.383  -0.737  0.00  0.00    +0.300 C 
ATOM     17  N   LIG    1       -0.182   7.826   0.283  0.00  0.00    -1.120 NA
ATOM     18  H   LIG    1        0.520   8.375   0.666  0.00  0.00    +0.420 HD
ENDBRANCH  13  17
ENDBRANCH  12  13
ENDBRANCH   6  12
ENDBRANCH   5  11
ENDBRANCH   1   5
BRANCH   3  19
ATOM     19  C   LIG    1        4.598   4.801  -3.078  0.00  0.00    +0.300 C 
BRANCH  19  20
ATOM     20  N   LIG    1        5.918   5.437  -3.086  0.00  0.00    -0.720 N 
ATOM     21  H   LIG    1        6.343   5.682  -2.249  0.00  0.00    +0.410 HD
ATOM     22  C   LIG    1        6.540   5.683  -4.256  0.00  0.00    +0.560 C 
ATOM     23  O   LIG    1        6.006   5.377  -5.304  0.00  0.00    -0.540 OA
BRANCH  22  24
ATOM     24  C   LIG    1        7.872   6.325  -4.264  0.00  0.00    -0.150 A 
ATOM     25  C   LIG    1        8.485   6.683  -3.063  0.00  0.00    +0.050 A 
ATOM     26  C   LIG    1        9.729   7.278  -3.077  0.00  0.00    +0.000 A 
ATOM     27  C   LIG    1       10.365   7.529  -4.280  0.00  0.00    -0.060 A 
ATOM     28  C   LIG    1        9.761   7.181  -5.475  0.00  0.00    +0.000 A 
ATOM     29  C   LIG    1       11.723   8.184  -4.289  0.00  0.00    +0.100 C 
ATOM     30  C   LIG    1        8.518   6.581  -5.474  0.00  0.00    +0.090 A 
ENDBRANCH  22  24
ENDBRANCH  19  20
ENDBRANCH   3  19
TORSDOF 8
