REMARK  Name = ZINCpk00000xUhSS.0
REMARK                            x       y       z     vdW  Elec       q    Type
REMARK                         _______ _______ _______ _____ _____    ______ ____
ROOT
ATOM      1  N   LIG    1       -0.441   2.540  -3.449  0.00  0.00    -0.660 N 
ATOM      2  H   LIG    1       -1.403   2.578  -3.569  0.00  0.00    +0.420 HD
ATOM      3  C   LIG    1        0.077   2.037  -2.312  0.00  0.00    +0.540 C 
ATOM      4  O   LIG    1        1.278   1.912  -2.196  0.00  0.00    -0.510 OA
ENDROOT
BRANCH   1   8
ATOM      5  C   LIG    1        2.095   3.932  -6.456  0.00  0.00    +0.090 A 
ATOM      6  C   LIG    1        2.463   2.839  -5.689  0.00  0.00    -0.020 A 
ATOM      7  C   LIG    1        1.623   2.377  -4.694  0.00  0.00    +0.020 A 
ATOM      8  C   LIG    1        0.409   3.009  -4.459  0.00  0.00    +0.140 A 
ATOM      9  C   LIG    1        0.036   4.103  -5.229  0.00  0.00    -0.050 A 
ATOM     10  C   LIG    1        0.879   4.568  -6.223  0.00  0.00    +0.120 A 
BRANCH   5  12
ATOM     11  C   LIG    1        4.155   3.684  -7.620  0.00  0.00    +0.250 C 
ATOM     12  O   LIG    1        2.923   4.385  -7.436  0.00  0.00    -0.310 OA
ENDBRANCH   5  12
BRANCH  10  13
ATOM     13  O   LIG    1        0.517   5.641  -6.976  0.00  0.00    -0.300 OA
ATOM     14  C   LIG    1       -0.745   6.244  -6.682  0.00  0.00    +0.240 C 
ENDBRANCH  10  13
ENDBRANCH   1   8
BRANCH   3  15
ATOM     15  C   LIG    1       -0.835   1.629  -1.184  0.00  0.00    +0.000 C 
ATOM     16  C   LIG    1       -0.013   1.084   0.007  0.00  0.00    +0.090 C 
ATOM     17  C   LIG    1       -0.819   1.612   1.215  0.00  0.00    +0.280 C 
ATOM     18  N   LIG    1       -1.522   2.804   0.725  0.00  0.00    -0.530 N 
ATOM     19  C   LIG    1       -1.551   2.836  -0.619  0.00  0.00    +0.520 C 
ATOM     20  O   LIG    1       -2.075   3.706  -1.282  0.00  0.00    -0.510 OA
BRANCH  18  21
ATOM     21  C   LIG    1       -2.093   3.787   1.555  0.00  0.00    +0.000 A 
ATOM     22  C   LIG    1       -2.744   4.904   1.141  0.00  0.00    +0.230 A 
ATOM     23  N   LIG    1       -3.139   5.582   2.249  0.00  0.00    -0.370 N 
ATOM     24  N   LIG    1       -2.709   4.862   3.371  0.00  0.00    -0.280 NA
ATOM     25  C   LIG    1       -3.879   6.846   2.267  0.00  0.00    +0.360 C 
ATOM     26  C   LIG    1       -2.084   3.790   2.958  0.00  0.00    +0.230 A 
ENDBRANCH  18  21
ENDBRANCH   3  15
TORSDOF 5
