REMARK  Name = ZINCpk00000y6uWK.0
REMARK                            x       y       z     vdW  Elec       q    Type
REMARK                         _______ _______ _______ _____ _____    ______ ____
ROOT
ATOM      1  C   LIG    1       -1.021   7.372  -0.161  0.00  0.00    -0.080 A 
ATOM      2  C   LIG    1        0.208   8.034  -0.163  0.00  0.00    +0.030 A 
ATOM      3  C   LIG    1        0.247   9.409  -0.264  0.00  0.00    +0.130 A 
ATOM      4  C   LIG    1       -0.929  10.133  -0.353  0.00  0.00    -0.660 A 
ATOM      5  C   LIG    1       -2.151   9.483  -0.346  0.00  0.00    +0.130 A 
ATOM      6  C   LIG    1       -2.204   8.108  -0.251  0.00  0.00    +0.070 A 
ENDROOT
BRANCH   1   8
ATOM      7  O   LIG    1       -2.142   5.325  -0.051  0.00  0.00    -0.450 OA
ATOM      8  C   LIG    1       -1.070   5.898  -0.057  0.00  0.00    +0.540 C 
ATOM      9  N   LIG    1        0.074   5.190   0.030  0.00  0.00    -0.660 N 
ATOM     10  H   LIG    1        0.925   5.650   0.099  0.00  0.00    +0.420 HD
BRANCH   9  11
ATOM     11  C   LIG    1        0.033   3.798   0.020  0.00  0.00    +0.360 A 
ATOM     12  C   LIG    1        1.220   3.074   0.004  0.00  0.00    -0.070 A 
ATOM     13  C   LIG    1        1.166   1.692  -0.000  0.00  0.00    +0.090 A 
ATOM     14  C   LIG    1       -0.079   1.078   0.001  0.00  0.00    -0.060 A 
ATOM     15  C   LIG    1       -1.218   1.859   0.018  0.00  0.00    +0.290 A 
ATOM     16  N   LIG    1       -1.135   3.175   0.027  0.00  0.00    -0.480 NA
ENDBRANCH   9  11
ENDBRANCH   1   8
BRANCH   4  17
ATOM     17  S   LIG    1       -0.870  11.890  -0.475  0.00  0.00    +2.690 S 
ATOM     18  O   LIG    1       -2.088  12.290  -1.089  0.00  0.00    -0.940 OA
ATOM     19  O   LIG    1        0.409  12.213  -1.002  0.00  0.00    -0.950 OA
BRANCH  17  20
ATOM     20  N   LIG    1       -0.905  12.490   1.068  0.00  0.00    -0.990 NA
ATOM     21  C   LIG    1       -2.184  12.806   1.720  0.00  0.00    +0.290 C 
ATOM     22  C   LIG    1       -2.239  12.072   3.069  0.00  0.00    +0.020 C 
ATOM     23  C   LIG    1       -1.005  12.441   3.895  0.00  0.00    +0.000 C 
ATOM     24  C   LIG    1        0.259  11.995   3.155  0.00  0.00    +0.150 C 
ATOM     25  C   LIG    1        0.342  12.722   1.810  0.00  0.00    +0.320 C 
BRANCH  24  26
ATOM     26  O   LIG    1        1.409  12.312   3.941  0.00  0.00    -0.560 OA
ATOM     27  H   LIG    1        1.423  11.885   4.809  0.00  0.00    +0.380 HD
ENDBRANCH  24  26
ENDBRANCH  17  20
ENDBRANCH   4  17
TORSDOF 5
