REMARK  Name = ZINCvU00000008pK.0
REMARK                            x       y       z     vdW  Elec       q    Type
REMARK                         _______ _______ _______ _____ _____    ______ ____
ROOT
ATOM      1  C   LIG    1       -0.018   1.102   0.019  0.00  0.00    +0.250 C 
ENDROOT
BRANCH   1   2
ATOM      2  C   LIG    1       -0.714   1.593   1.262  0.00  0.00    -0.120 A 
ATOM      3  C   LIG    1       -1.300   2.845   1.277  0.00  0.00    +0.040 A 
ATOM      4  C   LIG    1       -1.942   3.294   2.416  0.00  0.00    +0.010 A 
ATOM      5  C   LIG    1       -1.991   2.494   3.542  0.00  0.00    +0.030 A 
ATOM      6  C   LIG    1       -1.400   1.245   3.529  0.00  0.00    +0.010 A 
ATOM      7  C   LIG    1       -0.761   0.794   2.389  0.00  0.00    +0.030 A 
ENDBRANCH   1   2
BRANCH   1  10
ATOM      8  N   LIG    1        2.274   1.208   0.943  0.00  0.00    -0.650 N 
ATOM      9  H   LIG    1        1.976   0.637   1.669  0.00  0.00    +0.420 HD
ATOM     10  C   LIG    1        1.399   1.613   0.001  0.00  0.00    +0.530 C 
ATOM     11  O   LIG    1        1.753   2.390  -0.860  0.00  0.00    -0.500 OA
BRANCH   8  17
ATOM     12  C   LIG    1        4.625   0.748   1.298  0.00  0.00    +0.110 A 
ATOM     13  C   LIG    1        5.949   1.148   1.222  0.00  0.00    -0.060 A 
ATOM     14  C   LIG    1        6.265   2.404   0.737  0.00  0.00    +0.040 A 
ATOM     15  C   LIG    1        5.263   3.260   0.321  0.00  0.00    -0.010 A 
ATOM     16  C   LIG    1        3.940   2.866   0.388  0.00  0.00    +0.070 A 
ATOM     17  C   LIG    1        3.615   1.609   0.874  0.00  0.00    +0.110 A 
BRANCH  12  18
ATOM     18  O   LIG    1        4.312  -0.484   1.780  0.00  0.00    -0.320 OA
BRANCH  18  20
ATOM     19  C   LIG    1        4.855  -2.650   2.706  0.00  0.00    +0.070 C 
ATOM     20  C   LIG    1        5.399  -1.313   2.197  0.00  0.00    +0.180 C 
ENDBRANCH  18  20
ENDBRANCH  12  18
ENDBRANCH   8  17
ENDBRANCH   1  10
BRANCH   1  21
ATOM     21  O   LIG    1       -0.722   1.587  -1.155  0.00  0.00    -0.320 OA
BRANCH  21  22
ATOM     22  C   LIG    1       -1.706   0.807  -1.645  0.00  0.00    +0.530 C 
ATOM     23  O   LIG    1       -1.968  -0.251  -1.106  0.00  0.00    -0.480 OA
BRANCH  22  24
ATOM     24  C   LIG    1       -2.462   1.234  -2.829  0.00  0.00    +0.030 A 
ATOM     25  C   LIG    1       -3.472   0.537  -3.414  0.00  0.00    +0.070 A 
ATOM     26  C   LIG    1       -3.930   1.290  -4.522  0.00  0.00    -0.130 A 
ATOM     27  C   LIG    1       -4.931   1.080  -5.479  0.00  0.00    +0.070 A 
ATOM     28  C   LIG    1       -5.145   2.013  -6.453  0.00  0.00    -0.020 A 
ATOM     29  C   LIG    1       -4.379   3.170  -6.504  0.00  0.00    +0.050 A 
ATOM     30  C   LIG    1       -3.389   3.399  -5.574  0.00  0.00    +0.000 A 
ATOM     31  C   LIG    1       -3.152   2.463  -4.572  0.00  0.00    +0.120 A 
ATOM     32  N   LIG    1       -2.264   2.412  -3.524  0.00  0.00    -0.570 N 
ATOM     33  H   LIG    1       -1.604   3.090  -3.309  0.00  0.00    +0.430 HD
ENDBRANCH  22  24
ENDBRANCH  21  22
ENDBRANCH   1  21
TORSDOF 8
