REMARK  Name = ZINCpk00000l3qDq.1
REMARK                            x       y       z     vdW  Elec       q    Type
REMARK                         _______ _______ _______ _____ _____    ______ ____
ROOT
ATOM      1  C   LIG    1        8.475  -2.186  -0.087  0.00  0.00    +0.270 C 
ENDROOT
BRANCH   1   2
ATOM      2  N   LIG    1        7.167  -2.845  -0.078  0.00  0.00    -0.710 N 
ATOM      3  H   LIG    1        7.111  -3.813  -0.082  0.00  0.00    +0.410 HD
BRANCH   2   4
ATOM      4  C   LIG    1        6.004  -2.083  -0.063  0.00  0.00    +0.340 A 
ATOM      5  C   LIG    1        6.083  -0.689  -0.057  0.00  0.00    -0.030 A 
ATOM      6  C   LIG    1        4.900   0.028  -0.043  0.00  0.00    +0.080 A 
ATOM      7  C   LIG    1        3.698  -0.688  -0.035  0.00  0.00    +0.060 A 
ATOM      8  N   LIG    1        3.721  -2.014  -0.036  0.00  0.00    -0.190 NA
ATOM      9  N   LIG    1        4.820  -2.678  -0.055  0.00  0.00    -0.300 NA
BRANCH   7  10
ATOM     10  C   LIG    1        2.402   0.033  -0.020  0.00  0.00    -0.040 A 
ATOM     11  C   LIG    1        1.205  -0.680  -0.013  0.00  0.00    +0.060 A 
ATOM     12  C   LIG    1        0.002  -0.004   0.002  0.00  0.00    +0.010 A 
ATOM     13  C   LIG    1       -0.017   1.379   0.010  0.00  0.00    +0.010 A 
ATOM     14  C   LIG    1        1.169   2.092   0.002  0.00  0.00    +0.010 A 
ATOM     15  C   LIG    1        2.377   1.426  -0.013  0.00  0.00    +0.010 A 
ENDBRANCH   7  10
ENDBRANCH   2   4
ENDBRANCH   1   2
BRANCH   1  16
ATOM     16  C   LIG    1        9.579  -3.244  -0.103  0.00  0.00    +0.270 C 
BRANCH  16  19
ATOM     17  O   LIG    1       11.945  -4.538  -0.132  0.00  0.00    -0.490 OA
ATOM     18  C   LIG    1       12.014  -3.325  -0.126  0.00  0.00    +0.590 C 
ATOM     19  N   LIG    1       10.888  -2.585  -0.112  0.00  0.00    -0.710 N 
ATOM     20  H   LIG    1       10.943  -1.617  -0.108  0.00  0.00    +0.410 HD
BRANCH  18  21
ATOM     21  C   LIG    1       13.339  -2.658  -0.136  0.00  0.00    +0.270 A 
ATOM     22  N   LIG    1       13.394  -1.333  -0.136  0.00  0.00    -0.480 NA
ATOM     23  C   LIG    1       14.554  -0.704  -0.138  0.00  0.00    +0.310 A 
ATOM     24  C   LIG    1       15.730  -1.453  -0.153  0.00  0.00    +0.030 A 
ATOM     25  C   LIG    1       15.631  -2.844  -0.159  0.00  0.00    +0.310 A 
ATOM     26  N   LIG    1       14.435  -3.401  -0.150  0.00  0.00    -0.450 NA
BRANCH  24  27
ATOM     27  O   LIG    1       16.942  -0.842  -0.162  0.00  0.00    -0.480 OA
ATOM     28  H   LIG    1       17.285  -0.661  -1.048  0.00  0.00    +0.400 HD
ENDBRANCH  24  27
ENDBRANCH  18  21
ENDBRANCH  16  19
ENDBRANCH   1  16
TORSDOF 7
