REMARK  Name = ZINCvS0000000zPX.1
REMARK                            x       y       z     vdW  Elec       q    Type
REMARK                         _______ _______ _______ _____ _____    ______ ____
ROOT
ATOM      1  C   LIG    1       -3.092   3.216   2.791  0.00  0.00    +0.500 A 
ATOM      2  C   LIG    1       -2.565   3.756   3.992  0.00  0.00    -0.170 A 
ATOM      3  C   LIG    1       -1.199   3.624   4.220  0.00  0.00    +0.090 A 
ATOM      4  S   LIG    1       -0.785   4.363   5.756  0.00  0.00    +0.260 S 
ATOM      5  C   LIG    1       -2.455   4.837   6.065  0.00  0.00    -0.170 A 
ATOM      6  C   LIG    1       -3.249   5.560   7.149  0.00  0.00    +0.140 C 
ATOM      7  C   LIG    1       -4.574   5.959   6.468  0.00  0.00    +0.050 C 
ATOM      8  C   LIG    1       -4.693   4.882   5.372  0.00  0.00    +0.100 C 
ATOM      9  N   LIG    1       -0.443   3.000   3.306  0.00  0.00    -0.490 NA
ATOM     10  C   LIG    1       -0.975   2.516   2.208  0.00  0.00    +0.310 A 
ATOM     11  C   LIG    1       -3.254   4.460   5.077  0.00  0.00    -0.110 A 
ATOM     12  N   LIG    1       -2.265   2.621   1.944  0.00  0.00    -0.580 NA
ENDROOT
BRANCH   1  13
ATOM     13  N   LIG    1       -4.442   3.314   2.507  0.00  0.00    -0.690 N 
ATOM     14  H   LIG    1       -5.038   3.756   3.132  0.00  0.00    +0.420 HD
BRANCH  13  15
ATOM     15  C   LIG    1       -4.972   2.752   1.263  0.00  0.00    +0.310 C 
BRANCH  15  16
ATOM     16  C   LIG    1       -6.496   2.879   1.254  0.00  0.00    +0.210 C 
BRANCH  16  17
ATOM     17  C   LIG    1       -7.079   2.026   2.351  0.00  0.00    -0.150 A 
ATOM     18  C   LIG    1       -7.231   0.665   2.161  0.00  0.00    +0.000 A 
ATOM     19  C   LIG    1       -7.762  -0.117   3.170  0.00  0.00    +0.040 A 
ATOM     20  C   LIG    1       -8.147   0.461   4.364  0.00  0.00    +0.050 A 
ATOM     21  C   LIG    1       -7.999   1.823   4.552  0.00  0.00    +0.040 A 
ATOM     22  C   LIG    1       -7.465   2.606   3.545  0.00  0.00    +0.040 A 
ENDBRANCH  16  17
BRANCH  16  24
ATOM     23  C   LIG    1       -8.485   2.508  -0.037  0.00  0.00    +0.340 C 
ATOM     24  N   LIG    1       -7.018   2.430  -0.044  0.00  0.00    -0.380 N 
ATOM     25  C   LIG    1       -6.487   3.291  -1.110  0.00  0.00    +0.320 C 
ATOM     26  H   LIG    1       -6.732   1.476  -0.210  0.00  0.00    +0.420 HD
ENDBRANCH  16  24
ENDBRANCH  15  16
ENDBRANCH  13  15
ENDBRANCH   1  13
BRANCH  10  27
ATOM     27  C   LIG    1       -0.083   1.823   1.211  0.00  0.00    +0.390 C 
BRANCH  27  28
ATOM     28  N   LIG    1       -0.016   0.390   1.527  0.00  0.00    -0.380 N 
ATOM     29  C   LIG    1        0.636   0.208   2.829  0.00  0.00    +0.260 C 
ATOM     30  C   LIG    1        0.634  -1.277   3.202  0.00  0.00    +0.050 C 
ATOM     31  C   LIG    1        1.398  -2.064   2.134  0.00  0.00    +0.050 C 
ATOM     32  C   LIG    1        0.757  -1.808   0.767  0.00  0.00    +0.070 C 
ATOM     33  C   LIG    1        0.752  -0.304   0.486  0.00  0.00    +0.250 C 
ATOM     34  H   LIG    1       -0.950   0.011   1.563  0.00  0.00    +0.420 HD
ENDBRANCH  27  28
ENDBRANCH  10  27
TORSDOF 7
