REMARK  Name = ZINCqH0000051mB0.0
REMARK                            x       y       z     vdW  Elec       q    Type
REMARK                         _______ _______ _______ _____ _____    ______ ____
ROOT
ATOM      1  O   LIG    1        8.209  -0.989   1.340  0.00  0.00    -0.580 OA
ATOM      2  C   LIG    1        7.230  -1.680   1.546  0.00  0.00    +0.710 C 
ATOM      3  N   LIG    1        6.131  -1.538   0.779  0.00  0.00    -0.630 N 
ATOM      4  C   LIG    1        6.054  -0.481  -0.241  0.00  0.00    +0.310 C 
ATOM      5  C   LIG    1        4.748   0.295  -0.040  0.00  0.00    +0.190 C 
ATOM      6  N   LIG    1        3.619  -0.645  -0.033  0.00  0.00    -0.490 N 
ATOM      7  C   LIG    1        3.714  -1.583   1.093  0.00  0.00    +0.190 C 
ATOM      8  C   LIG    1        4.977  -2.436   0.939  0.00  0.00    +0.270 C 
ATOM      9  N   LIG    1        7.243  -2.588   2.543  0.00  0.00    -0.740 N 
ATOM     10  H   LIG    1        6.492  -3.189   2.661  0.00  0.00    +0.400 HD
ENDROOT
BRANCH   6  11
ATOM     11  C   LIG    1        2.400   0.036  -0.016  0.00  0.00    +0.110 A 
ATOM     12  C   LIG    1        1.206  -0.673  -0.007  0.00  0.00    -0.020 A 
ATOM     13  C   LIG    1        0.002   0.004   0.009  0.00  0.00    +0.030 A 
ATOM     14  C   LIG    1       -0.015   1.386   0.016  0.00  0.00    -0.020 A 
ATOM     15  C   LIG    1        1.172   2.096   0.008  0.00  0.00    +0.030 A 
ATOM     16  C   LIG    1        2.379   1.425  -0.009  0.00  0.00    -0.040 A 
ENDBRANCH   6  11
BRANCH   9  17
ATOM     17  C   LIG    1        8.393  -2.666   3.447  0.00  0.00    +0.340 C 
BRANCH  17  18
ATOM     18  C   LIG    1        8.160  -3.754   4.463  0.00  0.00    -0.110 A 
ATOM     19  C   LIG    1        7.538  -3.459   5.662  0.00  0.00    +0.070 A 
ATOM     20  C   LIG    1        7.321  -4.458   6.592  0.00  0.00    +0.020 A 
ATOM     21  C   LIG    1        7.733  -5.750   6.328  0.00  0.00    +0.080 A 
ATOM     22  C   LIG    1        8.360  -6.045   5.131  0.00  0.00    -0.180 A 
ATOM     23  C   LIG    1        8.574  -5.047   4.199  0.00  0.00    +0.090 A 
BRANCH  22  24
ATOM     24  C   LIG    1        8.810  -7.454   4.843  0.00  0.00    +0.510 C 
ATOM     25  F   LIG    1        8.765  -7.685   3.464  0.00  0.00    -0.180 F 
ATOM     26  F   LIG    1        7.963  -8.356   5.495  0.00  0.00    -0.180 F 
ATOM     27  F   LIG    1       10.120  -7.628   5.303  0.00  0.00    -0.170 F 
ENDBRANCH  22  24
ENDBRANCH  17  18
ENDBRANCH   9  17
TORSDOF 4
