REMARK  Name = ZINCpk000005KKxT.0
REMARK                            x       y       z     vdW  Elec       q    Type
REMARK                         _______ _______ _______ _____ _____    ______ ____
ROOT
ATOM      1  C   LIG    1        5.587  -1.995  -3.112  0.00  0.00    +0.240 C 
ATOM      2  C   LIG    1        6.377  -0.792  -3.636  0.00  0.00    +0.020 C 
ATOM      3  C   LIG    1        7.658  -0.634  -2.812  0.00  0.00    +0.210 C 
ATOM      4  O   LIG    1        8.422  -1.839  -2.888  0.00  0.00    -0.370 OA
ATOM      5  C   LIG    1        7.752  -2.989  -2.368  0.00  0.00    +0.200 C 
ATOM      6  C   LIG    1        6.473  -3.243  -3.174  0.00  0.00    +0.220 C 
ENDROOT
BRANCH   1   8
ATOM      7  C   LIG    1        4.053  -1.062  -1.464  0.00  0.00    +0.520 C 
ATOM      8  N   LIG    1        5.183  -1.749  -1.725  0.00  0.00    -0.730 N 
ATOM      9  H   LIG    1        5.729  -2.081  -0.995  0.00  0.00    +0.400 HD
ATOM     10  O   LIG    1        3.371  -0.648  -2.377  0.00  0.00    -0.520 OA
BRANCH   7  11
ATOM     11  C   LIG    1        3.638  -0.810  -0.037  0.00  0.00    +0.120 C 
BRANCH  11  16
ATOM     12  C   LIG    1       -1.336   2.042   0.019  0.00  0.00    +0.130 C 
ATOM     13  C   LIG    1       -0.016   1.315   0.009  0.00  0.00    +0.130 A 
ATOM     14  C   LIG    1        1.162   2.038   0.002  0.00  0.00    -0.030 A 
ATOM     15  C   LIG    1        2.371   1.359  -0.013  0.00  0.00    +0.070 A 
ATOM     16  C   LIG    1        2.350  -0.027  -0.021  0.00  0.00    -0.130 A 
ATOM     17  C   LIG    1        1.133  -0.682  -0.012  0.00  0.00    +0.270 A 
ATOM     18  N   LIG    1        0.002  -0.004   0.002  0.00  0.00    -0.480 NA
ENDBRANCH  11  16
ENDBRANCH   7  11
ENDBRANCH   1   8
BRANCH   6  19
ATOM     19  N   LIG    1        5.752  -4.385  -2.606  0.00  0.00    -0.710 N 
ATOM     20  H   LIG    1        5.043  -4.238  -1.960  0.00  0.00    +0.410 HD
BRANCH  19  21
ATOM     21  C   LIG    1        6.081  -5.674  -2.993  0.00  0.00    +0.440 A 
ATOM     22  C   LIG    1        7.095  -5.897  -3.926  0.00  0.00    -0.160 A 
ATOM     23  C   LIG    1        7.389  -7.201  -4.275  0.00  0.00    +0.350 A 
ATOM     24  N   LIG    1        6.698  -8.189  -3.724  0.00  0.00    -0.560 NA
ATOM     25  C   LIG    1        5.743  -7.945  -2.849  0.00  0.00    +0.360 A 
ATOM     26  C   LIG    1        4.985  -9.101  -2.250  0.00  0.00    +0.170 C 
ATOM     27  N   LIG    1        5.433  -6.718  -2.484  0.00  0.00    -0.580 NA
ENDBRANCH  19  21
ENDBRANCH   6  19
TORSDOF 5
