REMARK  Name = ZINCvU00000006IU.0
REMARK                            x       y       z     vdW  Elec       q    Type
REMARK                         _______ _______ _______ _____ _____    ______ ____
ROOT
ATOM      1  C   LIG    1        1.694   1.251   1.822  0.00  0.00    +0.510 C 
ATOM      2  N   LIG    1        1.006   2.061   0.993  0.00  0.00    -0.610 N 
ATOM      3  C   LIG    1        1.249   3.510   0.988  0.00  0.00    +0.270 C 
ATOM      4  C   LIG    1        1.556   3.953  -0.446  0.00  0.00    +0.010 C 
ATOM      5  C   LIG    1        0.421   3.504  -1.369  0.00  0.00    +0.020 C 
ATOM      6  C   LIG    1        0.318   1.977  -1.347  0.00  0.00    +0.050 C 
ATOM      7  C   LIG    1       -0.003   1.511   0.076  0.00  0.00    +0.310 C 
ATOM      8  O   LIG    1        1.543   0.049   1.760  0.00  0.00    -0.500 OA
ENDROOT
BRANCH   7   9
ATOM      9  C   LIG    1        0.029   0.005   0.134  0.00  0.00    +0.240 A 
ATOM     10  N   LIG    1        0.977  -0.750  -0.345  0.00  0.00    -0.450 NA
ATOM     11  C   LIG    1        0.672  -2.044  -0.113  0.00  0.00    +0.050 A 
ATOM     12  C   LIG    1       -0.519  -2.077   0.539  0.00  0.00    +0.140 A 
ATOM     13  N   LIG    1       -0.917  -0.779   0.696  0.00  0.00    -0.560 N 
ATOM     14  H   LIG    1       -1.730  -0.476   1.130  0.00  0.00    +0.420 HD
BRANCH  11  15
ATOM     15  C   LIG    1        1.491  -3.219  -0.500  0.00  0.00    +0.040 A 
ATOM     16  C   LIG    1        2.700  -3.038  -1.170  0.00  0.00    +0.020 A 
ATOM     17  C   LIG    1        3.459  -4.134  -1.528  0.00  0.00    +0.040 A 
ATOM     18  C   LIG    1        3.023  -5.411  -1.224  0.00  0.00    -0.030 A 
ATOM     19  C   LIG    1        1.821  -5.597  -0.558  0.00  0.00    +0.100 A 
ATOM     20  F   LIG    1        1.400  -6.846  -0.264  0.00  0.00    -0.140 F 
ATOM     21  C   LIG    1        1.057  -4.506  -0.191  0.00  0.00    -0.020 A 
ENDBRANCH  11  15
ENDBRANCH   7   9
BRANCH   1  22
ATOM     22  C   LIG    1        2.651   1.839   2.826  0.00  0.00    +0.050 C 
BRANCH  22  23
ATOM     23  C   LIG    1        3.297   0.713   3.635  0.00  0.00    +0.100 C 
BRANCH  23  27
ATOM     24  C   LIG    1        6.011   2.381   6.485  0.00  0.00    +0.090 A 
ATOM     25  C   LIG    1        4.683   2.180   6.826  0.00  0.00    -0.040 A 
ATOM     26  C   LIG    1        3.807   1.640   5.902  0.00  0.00    +0.050 A 
ATOM     27  C   LIG    1        4.255   1.301   4.639  0.00  0.00    -0.090 A 
ATOM     28  C   LIG    1        5.580   1.495   4.297  0.00  0.00    +0.030 A 
ATOM     29  C   LIG    1        6.460   2.040   5.215  0.00  0.00    +0.070 A 
ATOM     30  F   LIG    1        7.753   2.235   4.879  0.00  0.00    -0.130 F 
BRANCH  24  32
ATOM     31  C   LIG    1        6.343   3.240   8.678  0.00  0.00    +0.250 C 
ATOM     32  O   LIG    1        6.874   2.913   7.392  0.00  0.00    -0.310 OA
ENDBRANCH  24  32
ENDBRANCH  23  27
ENDBRANCH  22  23
ENDBRANCH   1  22
TORSDOF 6
