REMARK  Name = ZINCqH0000008lLJ.0
REMARK                            x       y       z     vdW  Elec       q    Type
REMARK                         _______ _______ _______ _____ _____    ______ ____
ROOT
ATOM      1  N   LIG    1        3.435  -2.188  -0.515  0.00  0.00    -0.720 N 
ATOM      2  H   LIG    1        2.537  -2.552  -0.485  0.00  0.00    +0.400 HD
ATOM      3  C   LIG    1        4.449  -2.934  -0.996  0.00  0.00    +0.520 C 
ATOM      4  O   LIG    1        5.572  -2.479  -1.033  0.00  0.00    -0.520 OA
ENDROOT
BRANCH   1   6
ATOM      5  C   LIG    1        4.108  -0.873   1.434  0.00  0.00    +0.040 C 
ATOM      6  C   LIG    1        3.690  -0.827  -0.037  0.00  0.00    +0.280 C 
BRANCH   6   7
ATOM      7  C   LIG    1        2.437  -0.002  -0.178  0.00  0.00    -0.080 A 
ATOM      8  C   LIG    1        1.216  -0.603  -0.157  0.00  0.00    +0.010 A 
ATOM      9  C   LIG    1        0.046   0.143  -0.286  0.00  0.00    +0.020 A 
ATOM     10  C   LIG    1        0.090   1.495  -0.436  0.00  0.00    +0.030 A 
ATOM     11  C   LIG    1        1.333   2.151  -0.463  0.00  0.00    -0.050 A 
ATOM     12  C   LIG    1        1.418   3.546  -0.616  0.00  0.00    +0.020 A 
ATOM     13  C   LIG    1        2.639   4.147  -0.636  0.00  0.00    +0.020 A 
ATOM     14  C   LIG    1        3.809   3.401  -0.508  0.00  0.00    +0.020 A 
ATOM     15  C   LIG    1        3.765   2.049  -0.358  0.00  0.00    +0.020 A 
ATOM     16  C   LIG    1        2.523   1.393  -0.331  0.00  0.00    -0.040 A 
ENDBRANCH   6   7
ENDBRANCH   1   6
BRANCH   3  17
ATOM     17  C   LIG    1        4.186  -4.335  -1.487  0.00  0.00    +0.310 C 
BRANCH  17  18
ATOM     18  N   LIG    1        5.440  -4.931  -1.956  0.00  0.00    -1.100 NA
ATOM     19  H   LIG    1        6.213  -4.368  -2.122  0.00  0.00    +0.430 HD
BRANCH  18  20
ATOM     20  S   LIG    1        5.538  -6.566  -2.202  0.00  0.00    +2.730 S 
ATOM     21  O   LIG    1        5.002  -7.180  -1.038  0.00  0.00    -0.940 OA
ATOM     22  O   LIG    1        6.852  -6.821  -2.681  0.00  0.00    -0.940 OA
BRANCH  20  23
ATOM     23  C   LIG    1        4.441  -6.961  -3.524  0.00  0.00    -0.800 A 
ATOM     24  C   LIG    1        4.769  -6.976  -4.816  0.00  0.00    +0.190 A 
ATOM     25  C   LIG    1        3.739  -7.317  -5.676  0.00  0.00    +0.010 A 
ATOM     26  C   LIG    1        2.573  -7.578  -5.080  0.00  0.00    -0.110 A 
ATOM     27 CL   LIG    1        1.110  -8.030  -5.897  0.00  0.00    +0.010 Cl
ATOM     28  S   LIG    1        2.749  -7.402  -3.338  0.00  0.00    +0.270 S 
ENDBRANCH  20  23
ENDBRANCH  18  20
ENDBRANCH  17  18
ENDBRANCH   3  17
TORSDOF 6
