REMARK  Name = ZINCpe000000ZEDK.0
REMARK                            x       y       z     vdW  Elec       q    Type
REMARK                         _______ _______ _______ _____ _____    ______ ____
ROOT
ATOM      1  C   LIG    1        0.676  -6.093  -1.095  0.00  0.00    +0.180 C 
ENDROOT
BRANCH   1   2
ATOM      2  N   LIG    1        0.651  -4.625  -1.087  0.00  0.00    -0.530 NA
ATOM      3  C   LIG    1       -0.110  -4.117   0.063  0.00  0.00    +0.190 C 
ATOM      4  C   LIG    1       -0.179  -2.589  -0.009  0.00  0.00    +0.220 C 
ATOM      5  N   LIG    1        1.184  -2.040  -0.020  0.00  0.00    -0.470 N 
ATOM      6  C   LIG    1        1.945  -2.548  -1.170  0.00  0.00    +0.210 C 
ATOM      7  C   LIG    1        2.014  -4.075  -1.098  0.00  0.00    +0.180 C 
BRANCH   5   8
ATOM      8  C   LIG    1        1.161  -0.650  -0.013  0.00  0.00    +0.270 A 
ATOM      9  C   LIG    1        2.354   0.069  -0.020  0.00  0.00    +0.210 A 
ATOM     10  N   LIG    1        2.328   1.388  -0.013  0.00  0.00    -0.420 NA
ATOM     11  C   LIG    1        1.170   2.027   0.002  0.00  0.00    +0.180 A 
ATOM     12  C   LIG    1       -0.016   1.318   0.009  0.00  0.00    +0.250 A 
ATOM     13  N   LIG    1        0.002  -0.004   0.002  0.00  0.00    -0.480 NA
ENDBRANCH   5   8
ENDBRANCH   1   2
BRANCH   1  14
ATOM     14  C   LIG    1        1.672  -6.581  -2.148  0.00  0.00    +0.320 C 
BRANCH  14  25
ATOM     15  O   LIG    1        3.351  -8.376  -0.624  0.00  0.00    -0.460 OA
ATOM     16  C   LIG    1        2.522  -8.797  -1.404  0.00  0.00    +0.570 C 
ATOM     17  C   LIG    1        2.247 -10.223  -1.685  0.00  0.00    -0.140 A 
ATOM     18  C   LIG    1        2.769 -11.418  -1.219  0.00  0.00    +0.100 A 
ATOM     19  C   LIG    1        2.278 -12.619  -1.708  0.00  0.00    +0.050 A 
ATOM     20  C   LIG    1        1.271 -12.631  -2.654  0.00  0.00    +0.050 A 
ATOM     21  C   LIG    1        0.739 -11.442  -3.129  0.00  0.00    +0.100 A 
ATOM     22  C   LIG    1        1.220 -10.235  -2.650  0.00  0.00    -0.140 A 
ATOM     23  C   LIG    1        0.902  -8.817  -2.920  0.00  0.00    +0.570 C 
ATOM     24  O   LIG    1        0.062  -8.415  -3.700  0.00  0.00    -0.460 OA
ATOM     25  N   LIG    1        1.697  -8.046  -2.156  0.00  0.00    -0.580 N 
ENDBRANCH  14  25
ENDBRANCH   1  14
TORSDOF 4
