REMARK  Name = ZINCrg000000oV8C.0
REMARK                            x       y       z     vdW  Elec       q    Type
REMARK                         _______ _______ _______ _____ _____    ______ ____
ROOT
ATOM      1  C   LIG    1       -4.370   5.479   3.735  0.00  0.00    +0.520 C 
ATOM      2  N   LIG    1       -4.210   5.829   2.443  0.00  0.00    -0.720 N 
ATOM      3  H   LIG    1       -4.025   6.753   2.211  0.00  0.00    +0.400 HD
ATOM      4  O   LIG    1       -4.600   4.324   4.026  0.00  0.00    -0.500 OA
ENDROOT
BRANCH   2   5
ATOM      5  C   LIG    1       -4.314   4.815   1.391  0.00  0.00    +0.260 C 
ATOM      6  C   LIG    1       -4.716   5.487   0.076  0.00  0.00    +0.040 C 
ATOM      7  C   LIG    1       -4.552   4.468  -1.058  0.00  0.00    +0.050 C 
ATOM      8  C   LIG    1       -3.063   4.168  -1.236  0.00  0.00    +0.260 C 
ATOM      9  N   LIG    1       -2.456   3.826   0.045  0.00  0.00    -0.560 N 
ATOM     10  C   LIG    1       -2.993   4.121   1.229  0.00  0.00    +0.500 C 
ATOM     11  O   LIG    1       -2.378   3.817   2.230  0.00  0.00    -0.510 OA
BRANCH   9  12
ATOM     12  C   LIG    1       -1.236   3.140   0.030  0.00  0.00    +0.140 A 
ATOM     13  C   LIG    1       -0.041   3.845   0.023  0.00  0.00    +0.030 A 
ATOM     14  C   LIG    1        1.161   3.165   0.008  0.00  0.00    +0.020 A 
ATOM     15  C   LIG    1        1.176   1.783   0.000  0.00  0.00    +0.040 A 
ATOM     16  C   LIG    1       -0.013   1.076   0.008  0.00  0.00    +0.030 A 
ATOM     17  C   LIG    1       -1.219   1.750   0.017  0.00  0.00    -0.030 A 
ATOM     18 CL   LIG    1       -2.711   0.862   0.020  0.00  0.00    -0.060 Cl
ENDBRANCH   9  12
ENDBRANCH   2   5
BRANCH   1  19
ATOM     19  C   LIG    1       -4.262   6.522   4.817  0.00  0.00    +0.210 C 
BRANCH  19  21
ATOM     20  C   LIG    1       -5.851   5.395   6.256  0.00  0.00    +0.210 C 
ATOM     21  N   LIG    1       -4.474   5.892   6.127  0.00  0.00    -0.510 NA
BRANCH  21  22
ATOM     22  C   LIG    1       -4.146   6.820   7.217  0.00  0.00    +0.200 C 
ATOM     23  C   LIG    1       -5.212   7.927   7.294  0.00  0.00    +0.040 C 
ATOM     24  C   LIG    1       -4.994   8.662   8.641  0.00  0.00    -0.300 C 
ATOM     25  S   LIG    1       -4.690   7.277   9.803  0.00  0.00    +2.390 S 
ATOM     26  O   LIG    1       -3.606   7.610  10.659  0.00  0.00    -0.930 OA
ATOM     27  O   LIG    1       -5.926   6.848  10.357  0.00  0.00    -0.930 OA
ATOM     28  C   LIG    1       -4.129   6.060   8.558  0.00  0.00    -0.290 C 
ENDBRANCH  21  22
ENDBRANCH  19  21
ENDBRANCH   1  19
TORSDOF 5
