REMARK  Name = ZINCrH000004v6Bi.0
REMARK                            x       y       z     vdW  Elec       q    Type
REMARK                         _______ _______ _______ _____ _____    ______ ____
ROOT
ATOM      1  O   LIG    1        4.203  -2.216  -4.530  0.00  0.00    -0.570 OA
ATOM      2  C   LIG    1        3.087  -2.672  -4.689  0.00  0.00    +0.700 C 
ATOM      3  N   LIG    1        2.170  -2.568  -3.708  0.00  0.00    -0.740 N 
ATOM      4  H   LIG    1        1.280  -2.932  -3.835  0.00  0.00    +0.400 HD
ATOM      5  N   LIG    1        2.769  -3.284  -5.847  0.00  0.00    -0.690 N 
ATOM      6  H   LIG    1        1.906  -3.716  -5.946  0.00  0.00    +0.410 HD
ENDROOT
BRANCH   3   7
ATOM      7  C   LIG    1        2.516  -1.903  -2.449  0.00  0.00    +0.260 C 
ATOM      8  C   LIG    1        3.191  -2.907  -1.508  0.00  0.00    -0.010 C 
ATOM      9  C   LIG    1        3.490  -2.223  -0.172  0.00  0.00    +0.220 C 
ATOM     10  O   LIG    1        2.273  -1.726   0.390  0.00  0.00    -0.360 OA
ATOM     11  C   LIG    1        1.598  -0.775  -0.424  0.00  0.00    +0.090 C 
ATOM     12  C   LIG    1        2.476   0.480  -0.614  0.00  0.00    -0.010 C 
ATOM     13  C   LIG    1        1.891   1.445   0.450  0.00  0.00    +0.220 C 
ATOM     14  O   LIG    1        0.475   1.163   0.422  0.00  0.00    -0.370 OA
ATOM     15  C   LIG    1        0.334  -0.263   0.282  0.00  0.00    +0.240 C 
ATOM     16  C   LIG    1        1.243  -1.373  -1.781  0.00  0.00    +0.020 C 
ENDBRANCH   3   7
BRANCH   5  17
ATOM     17  C   LIG    1        3.684  -3.295  -6.909  0.00  0.00    +0.180 A 
ATOM     18  C   LIG    1        3.739  -4.385  -7.767  0.00  0.00    -0.010 A 
ATOM     19  C   LIG    1        4.640  -4.397  -8.813  0.00  0.00    +0.010 A 
ATOM     20  C   LIG    1        5.493  -3.319  -9.007  0.00  0.00    +0.080 A 
ATOM     21  C   LIG    1        5.439  -2.228  -8.148  0.00  0.00    +0.010 A 
ATOM     22 CL   LIG    1        6.505  -0.879  -8.390  0.00  0.00    -0.050 Cl
ATOM     23  C   LIG    1        4.533  -2.214  -7.106  0.00  0.00    +0.040 A 
BRANCH  20  24
ATOM     24  N   LIG    1        6.406  -3.331 -10.068  0.00  0.00    -0.490 N 
ATOM     25  C   LIG    1        5.711  -3.340 -11.361  0.00  0.00    +0.180 C 
ATOM     26  C   LIG    1        6.733  -3.206 -12.492  0.00  0.00    +0.020 C 
ATOM     27  C   LIG    1        7.726  -4.370 -12.417  0.00  0.00    +0.010 C 
ATOM     28  C   LIG    1        8.401  -4.367 -11.043  0.00  0.00    +0.020 C 
ATOM     29  C   LIG    1        7.330  -4.467  -9.954  0.00  0.00    +0.180 C 
ENDBRANCH  20  24
ENDBRANCH   5  17
TORSDOF 3
