REMARK  Name = ZINCpe00000gLYrA.0
REMARK                            x       y       z     vdW  Elec       q    Type
REMARK                         _______ _______ _______ _____ _____    ______ ____
ROOT
ATOM      1  C   LIG    1       -2.990   1.468   2.469  0.00  0.00    +0.170 C 
ATOM      2  C   LIG    1       -2.607   0.040   2.891  0.00  0.00    -0.020 C 
ATOM      3  C   LIG    1       -2.482  -0.287   1.393  0.00  0.00    +0.170 C 
ATOM      4  C   LIG    1       -2.213   1.206   1.172  0.00  0.00    -0.060 C 
ATOM      5  C   LIG    1       -0.731   1.579   1.265  0.00  0.00    +0.060 C 
ATOM      6  C   LIG    1       -0.012   1.082   0.006  0.00  0.00    +0.290 C 
ATOM      7  N   LIG    1       -0.729   1.575  -1.177  0.00  0.00    -0.630 N 
ATOM      8  C   LIG    1       -2.159   1.273  -1.321  0.00  0.00    +0.270 C 
ATOM      9  C   LIG    1       -0.084   2.294  -2.118  0.00  0.00    +0.710 C 
ATOM     10  N   LIG    1       -0.723   2.651  -3.249  0.00  0.00    -0.750 N 
ATOM     11  H   LIG    1       -1.667   2.455  -3.355  0.00  0.00    +0.400 HD
ATOM     12  O   LIG    1        1.075   2.619  -1.946  0.00  0.00    -0.590 OA
ATOM     13  C   LIG    1       -2.896   1.772  -0.072  0.00  0.00    +0.050 C 
ENDROOT
BRANCH   3  14
ATOM     14  O   LIG    1       -3.702  -0.743   0.803  0.00  0.00    -0.550 OA
ATOM     15  H   LIG    1       -3.877  -1.684   0.939  0.00  0.00    +0.380 HD
ENDBRANCH   3  14
BRANCH   1  16
ATOM     16  O   LIG    1       -2.410   2.484   3.289  0.00  0.00    -0.370 OA
BRANCH  16  18
ATOM     17  C   LIG    1       -2.628   4.263   4.910  0.00  0.00    +0.040 C 
ATOM     18  C   LIG    1       -3.358   3.208   4.076  0.00  0.00    +0.160 C 
ENDBRANCH  16  18
ENDBRANCH   1  16
BRANCH  10  19
ATOM     19  C   LIG    1        0.007   3.337  -4.318  0.00  0.00    +0.410 C 
BRANCH  19  20
ATOM     20  C   LIG    1       -0.930   3.624  -5.463  0.00  0.00    -0.030 A 
ATOM     21  C   LIG    1       -1.665   4.737  -5.606  0.00  0.00    +0.030 A 
ATOM     22  C   LIG    1       -2.414   4.568  -6.861  0.00  0.00    -0.240 A 
ATOM     23  C   LIG    1       -2.044   3.349  -7.348  0.00  0.00    +0.250 A 
ATOM     24  O   LIG    1       -1.159   2.809  -6.505  0.00  0.00    -0.160 OA
BRANCH  22  25
ATOM     25  C   LIG    1       -3.365   5.518  -7.464  0.00  0.00    +0.590 C 
ATOM     26  O   LIG    1       -3.601   6.576  -6.913  0.00  0.00    -0.530 OA
ATOM     27  N   LIG    1       -3.975   5.213  -8.627  0.00  0.00    -0.850 N 
ATOM     28  H   LIG    1       -4.601   5.838  -9.025  0.00  0.00    +0.410 HD
ATOM     29  H   LIG    1       -3.787   4.369  -9.067  0.00  0.00    +0.400 HD
ENDBRANCH  22  25
ENDBRANCH  19  20
ENDBRANCH  10  19
TORSDOF 6
