REMARK  Name = ZINCAx0000000ec1.0
REMARK                            x       y       z     vdW  Elec       q    Type
REMARK                         _______ _______ _______ _____ _____    ______ ____
ROOT
ATOM      1  C   LIG    1        1.210   1.929  -0.109  0.00  0.00    -0.230 C 
ATOM      2  C   LIG    1        2.391   1.304   0.093  0.00  0.00    +0.210 C 
ATOM      3  N   LIG    1        3.554   2.012   0.191  0.00  0.00    -0.640 N 
ATOM      4  H   LIG    1        4.379   1.520   0.332  0.00  0.00    +0.430 HD
ATOM      5  C   LIG    1        3.621   3.347   0.109  0.00  0.00    +0.710 C 
ATOM      6  N   LIG    1        2.526   4.109  -0.085  0.00  0.00    -0.710 N 
ATOM      7  H   LIG    1        2.597   5.075  -0.141  0.00  0.00    +0.440 HD
ATOM      8  O   LIG    1        4.704   3.889   0.213  0.00  0.00    -0.550 OA
ATOM      9  C   LIG    1        1.220   3.440  -0.210  0.00  0.00    +0.410 C 
ENDROOT
BRANCH   9  10
ATOM     10  C   LIG    1        0.315   3.984   0.866  0.00  0.00    -0.050 A 
ATOM     11  C   LIG    1       -0.949   4.409   0.691  0.00  0.00    -0.030 A 
ATOM     12  C   LIG    1       -1.419   4.829   1.956  0.00  0.00    -0.060 A 
ATOM     13  C   LIG    1       -0.411   4.643   2.828  0.00  0.00    +0.000 A 
ATOM     14  C   LIG    1       -0.452   4.957   4.301  0.00  0.00    +0.180 C 
ATOM     15  O   LIG    1        0.636   4.131   2.162  0.00  0.00    -0.160 OA
ENDBRANCH   9  10
BRANCH   1  16
ATOM     16  C   LIG    1        0.005   1.196  -0.216  0.00  0.00    +0.540 C 
ATOM     17  O   LIG    1       -0.479   0.978  -1.311  0.00  0.00    -0.480 OA
BRANCH  16  18
ATOM     18  O   LIG    1       -0.612   0.745   0.896  0.00  0.00    -0.340 OA
BRANCH  18  20
ATOM     19  C   LIG    1       -2.377  -0.410   2.076  0.00  0.00    +0.070 C 
ATOM     20  C   LIG    1       -1.828   0.018   0.713  0.00  0.00    +0.200 C 
ENDBRANCH  18  20
ENDBRANCH  16  18
ENDBRANCH   1  16
BRANCH   2  21
ATOM     21  C   LIG    1        2.425  -0.198   0.205  0.00  0.00    +0.300 C 
BRANCH  21  22
ATOM     22  O   LIG    1        3.164  -0.751  -0.916  0.00  0.00    -0.350 OA
BRANCH  22  23
ATOM     23  C   LIG    1        3.288  -2.086  -0.965  0.00  0.00    +0.440 C 
ATOM     24  O   LIG    1        2.795  -2.771  -0.100  0.00  0.00    -0.470 OA
BRANCH  23  25
ATOM     25  C   LIG    1        4.042  -2.732  -2.099  0.00  0.00    +0.410 C 
BRANCH  25  26
ATOM     26  N   LIG    1        4.035  -4.186  -1.925  0.00  0.00    -0.460 N 
ATOM     27  C   LIG    1        5.020  -4.898  -1.328  0.00  0.00    +0.340 A 
ATOM     28  C   LIG    1        4.699  -6.224  -1.332  0.00  0.00    -0.210 A 
ATOM     29  C   LIG    1        3.388  -6.334  -1.998  0.00  0.00    -0.060 A 
ATOM     30  C   LIG    1        2.545  -7.399  -2.303  0.00  0.00    +0.060 A 
ATOM     31  C   LIG    1        1.351  -7.160  -2.950  0.00  0.00    +0.000 A 
ATOM     32  C   LIG    1        0.990  -5.867  -3.296  0.00  0.00    +0.040 A 
ATOM     33  C   LIG    1        1.815  -4.804  -2.999  0.00  0.00    +0.000 A 
ATOM     34  C   LIG    1        3.020  -5.023  -2.341  0.00  0.00    +0.090 A 
BRANCH  28  35
ATOM     35  C   LIG    1        5.501  -7.324  -0.783  0.00  0.00    +0.540 C 
ATOM     36  O   LIG    1        5.094  -8.467  -0.854  0.00  0.00    -0.510 OA
BRANCH  35  37
ATOM     37  O   LIG    1        6.689  -7.066  -0.200  0.00  0.00    -0.360 OA
ATOM     38  C   LIG    1        7.428  -8.202   0.322  0.00  0.00    +0.260 C 
ENDBRANCH  35  37
ENDBRANCH  28  35
ENDBRANCH  25  26
ENDBRANCH  23  25
ENDBRANCH  22  23
ENDBRANCH  21  22
ENDBRANCH   2  21
TORSDOF 11
