REMARK  Name = ZINCrD000000BJrQ.0
REMARK                            x       y       z     vdW  Elec       q    Type
REMARK                         _______ _______ _______ _____ _____    ______ ____
ROOT
ATOM      1  O   LIG    1        3.034  -1.842  -1.509  0.00  0.00    -0.580 OA
ATOM      2  C   LIG    1        3.121  -0.629  -1.529  0.00  0.00    +0.710 C 
ATOM      3  N   LIG    1        2.018   0.128  -1.367  0.00  0.00    -0.630 N 
ATOM      4  C   LIG    1        0.689  -0.494  -1.281  0.00  0.00    +0.300 C 
ATOM      5  C   LIG    1       -0.001  -0.008  -0.003  0.00  0.00    +0.030 C 
ATOM      6  C   LIG    1       -0.021   1.522   0.011  0.00  0.00    +0.100 C 
ATOM      7  C   LIG    1        1.415   2.053   0.005  0.00  0.00    +0.030 C 
ATOM      8  C   LIG    1        2.121   1.590  -1.273  0.00  0.00    +0.270 C 
ATOM      9  N   LIG    1        4.320  -0.042  -1.712  0.00  0.00    -0.740 N 
ATOM     10  H   LIG    1        4.402   0.922  -1.655  0.00  0.00    +0.400 HD
ENDROOT
BRANCH   9  11
ATOM     11  C   LIG    1        5.501  -0.862  -1.996  0.00  0.00    +0.270 C 
ATOM     12  C   LIG    1        6.759  -0.111  -1.556  0.00  0.00    +0.030 C 
ATOM     13  C   LIG    1        7.963  -1.062  -1.574  0.00  0.00    +0.120 C 
ATOM     14  C   LIG    1        7.996  -1.755  -2.913  0.00  0.00    -0.240 A 
ATOM     15  C   LIG    1        9.015  -2.425  -3.482  0.00  0.00    +0.250 A 
ATOM     16  N   LIG    1        8.590  -2.874  -4.684  0.00  0.00    -0.480 N 
ATOM     17  H   LIG    1        9.113  -3.390  -5.317  0.00  0.00    +0.440 HD
ATOM     18  N   LIG    1        7.259  -2.463  -4.854  0.00  0.00    -0.290 NA
ATOM     19  C   LIG    1        6.903  -1.795  -3.796  0.00  0.00    +0.090 A 
ATOM     20  C   LIG    1        5.570  -1.151  -3.501  0.00  0.00    +0.130 C 
ENDBRANCH   9  11
BRANCH   6  21
ATOM     21  C   LIG    1       -0.729   2.004   1.251  0.00  0.00    +0.060 A 
ATOM     22  N   LIG    1       -1.790   2.739   1.257  0.00  0.00    -0.440 NA
ATOM     23  C   LIG    1       -2.285   3.069   2.433  0.00  0.00    -0.020 A 
ATOM     24  C   LIG    1       -1.599   2.594   3.477  0.00  0.00    -0.020 A 
ATOM     25  S   LIG    1       -0.240   1.662   2.853  0.00  0.00    +0.200 S 
BRANCH  23  26
ATOM     26  C   LIG    1       -3.520   3.918   2.588  0.00  0.00    +0.550 C 
ATOM     27  F   LIG    1       -4.626   3.230   2.078  0.00  0.00    -0.170 F 
ATOM     28  F   LIG    1       -3.353   5.117   1.886  0.00  0.00    -0.170 F 
ATOM     29  F   LIG    1       -3.728   4.196   3.943  0.00  0.00    -0.170 F 
ENDBRANCH  23  26
ENDBRANCH   6  21
TORSDOF 3
