REMARK  Name = ZINCpk00001AZiVX.0
REMARK                            x       y       z     vdW  Elec       q    Type
REMARK                         _______ _______ _______ _____ _____    ______ ____
ROOT
ATOM      1  N   LIG    1        0.568   3.915   4.823  0.00  0.00    -0.520 NA
ATOM      2  C   LIG    1       -0.630   4.757   4.988  0.00  0.00    +0.200 C 
ATOM      3  C   LIG    1       -0.417   5.612   6.255  0.00  0.00    +0.030 C 
ATOM      4  C   LIG    1        1.125   5.619   6.417  0.00  0.00    +0.090 C 
ATOM      5  F   LIG    1        1.711   6.590   5.598  0.00  0.00    -0.170 F 
ATOM      6  C   LIG    1        1.497   4.192   5.940  0.00  0.00    +0.230 C 
ENDROOT
BRANCH   4   7
ATOM      7  C   LIG    1        1.516   5.825   7.858  0.00  0.00    +0.510 C 
ATOM      8  N   LIG    1        1.387   7.041   8.424  0.00  0.00    -0.600 N 
ATOM      9  C   LIG    1        0.769   8.114   7.649  0.00  0.00    +0.270 C 
ATOM     10  C   LIG    1        1.781   9.230   7.403  0.00  0.00    +0.290 C 
ATOM     11  N   LIG    1        1.847  10.085   8.596  0.00  0.00    -0.730 N 
ATOM     12  H   LIG    1        1.466  10.977   8.569  0.00  0.00    +0.400 HD
ATOM     13  C   LIG    1        2.426   9.646   9.717  0.00  0.00    +0.520 C 
ATOM     14  C   LIG    1        3.019   8.257   9.781  0.00  0.00    +0.050 C 
ATOM     15  O   LIG    1        2.476  10.367  10.691  0.00  0.00    -0.540 OA
ATOM     16  C   LIG    1        1.875   7.236   9.788  0.00  0.00    +0.310 C 
ATOM     17  O   LIG    1        1.948   4.896   8.508  0.00  0.00    -0.510 OA
ENDBRANCH   4   7
BRANCH   1  18
ATOM     18  C   LIG    1        0.209   2.491   4.779  0.00  0.00    +0.240 C 
BRANCH  18  22
ATOM     19  C   LIG    1        0.203   1.128  -0.056  0.00  0.00    +0.120 C 
ATOM     20  C   LIG    1       -0.518   1.549   1.198  0.00  0.00    -0.100 A 
ATOM     21  C   LIG    1        0.190   1.811   2.361  0.00  0.00    +0.100 A 
ATOM     22  C   LIG    1       -0.516   2.195   3.491  0.00  0.00    -0.110 A 
ATOM     23  C   LIG    1       -1.891   2.304   3.423  0.00  0.00    +0.270 A 
ATOM     24  N   LIG    1       -2.534   2.046   2.300  0.00  0.00    -0.450 NA
ATOM     25  C   LIG    1       -1.895   1.684   1.203  0.00  0.00    +0.120 A 
ATOM     26 BR   LIG    1       -2.874   1.337  -0.377  0.00  0.00    -0.000 Br
ENDBRANCH  18  22
ENDBRANCH   1  18
TORSDOF 3
