REMARK  Name = ZINCb800000011gW.0
REMARK                            x       y       z     vdW  Elec       q    Type
REMARK                         _______ _______ _______ _____ _____    ______ ____
ROOT
ATOM      1  C   LIG    1       -2.525   3.830   0.045  0.00  0.00    +0.350 C 
ATOM      2  N   LIG    1       -1.246   3.116   0.030  0.00  0.00    -0.490 N 
ATOM      3  C   LIG    1       -0.085   3.819   0.022  0.00  0.00    +0.440 A 
ATOM      4  C   LIG    1        1.109   3.182   0.008  0.00  0.00    -0.150 A 
ATOM      5  C   LIG    1        1.155   1.781   0.001  0.00  0.00    +0.170 A 
ATOM      6  C   LIG    1       -0.013   1.076   0.008  0.00  0.00    -0.040 A 
ATOM      7  C   LIG    1       -1.235   1.769   0.018  0.00  0.00    +0.510 A 
ATOM      8  O   LIG    1       -2.287   1.151   0.019  0.00  0.00    -0.510 OA
ENDROOT
BRANCH   4   9
ATOM      9  N   LIG    1        2.366   3.964  -0.000  0.00  0.00    +0.050 N 
ATOM     10  O   LIG    1        3.440   3.390  -0.014  0.00  0.00    -0.150 OA
ATOM     11  O   LIG    1        2.326   5.181   0.006  0.00  0.00    -0.170 OA
ENDBRANCH   4   9
TORSDOF 1
