REMARK  Name = ZINCrH000004uvLO.0
REMARK                            x       y       z     vdW  Elec       q    Type
REMARK                         _______ _______ _______ _____ _____    ______ ____
ROOT
ATOM      1  C   LIG    1       -1.867  -0.526  -0.856  0.00  0.00    +0.240 C 
ATOM      2  C   LIG    1       -3.281  -0.973  -0.458  0.00  0.00    +0.020 C 
ATOM      3  C   LIG    1       -4.308  -0.071  -1.149  0.00  0.00    +0.020 C 
ATOM      4  C   LIG    1       -4.112   1.375  -0.687  0.00  0.00    +0.010 C 
ATOM      5  C   LIG    1       -2.709   1.847  -1.083  0.00  0.00    +0.280 C 
ATOM      6  N   LIG    1       -1.722   0.902  -0.543  0.00  0.00    -1.000 NA
ENDROOT
BRANCH   6   7
ATOM      7  S   LIG    1       -0.467   1.438   0.394  0.00  0.00    +2.670 S 
ATOM      8  O   LIG    1        0.372   2.206  -0.458  0.00  0.00    -0.940 OA
ATOM      9  O   LIG    1       -0.006   0.313   1.129  0.00  0.00    -0.930 OA
BRANCH   7  10
ATOM     10  C   LIG    1       -1.139   2.562   1.574  0.00  0.00    -0.680 A 
ATOM     11  C   LIG    1       -1.888   2.085   2.633  0.00  0.00    +0.140 A 
ATOM     12  C   LIG    1       -2.415   2.967   3.559  0.00  0.00    +0.000 A 
ATOM     13  C   LIG    1       -2.194   4.325   3.425  0.00  0.00    +0.090 A 
ATOM     14  C   LIG    1       -1.446   4.802   2.365  0.00  0.00    +0.010 A 
ATOM     15  C   LIG    1       -0.912   3.920   1.443  0.00  0.00    +0.040 A 
ATOM     16 CL   LIG    1        0.035   4.519   0.117  0.00  0.00    -0.010 Cl
ENDBRANCH   7  10
ENDBRANCH   6   7
BRANCH   1  17
ATOM     17  C   LIG    1       -0.832  -1.331  -0.067  0.00  0.00    +0.320 C 
BRANCH  17  22
ATOM     18  O   LIG    1        1.449  -2.295   1.002  0.00  0.00    -0.560 OA
ATOM     19  C   LIG    1        1.594  -1.492   0.100  0.00  0.00    +0.720 C 
ATOM     20  N   LIG    1        2.833  -1.144  -0.298  0.00  0.00    -0.690 N 
ATOM     21  H   LIG    1        2.951  -0.442  -0.957  0.00  0.00    +0.410 HD
ATOM     22  N   LIG    1        0.515  -0.952  -0.500  0.00  0.00    -0.740 N 
ATOM     23  H   LIG    1        0.631  -0.311  -1.220  0.00  0.00    +0.390 HD
BRANCH  20  24
ATOM     24  C   LIG    1        3.950  -1.794   0.239  0.00  0.00    +0.170 A 
ATOM     25  C   LIG    1        5.134  -1.095   0.437  0.00  0.00    -0.030 A 
ATOM     26  C   LIG    1        6.232  -1.739   0.971  0.00  0.00    +0.030 A 
ATOM     27  C   LIG    1        6.158  -3.080   1.300  0.00  0.00    -0.020 A 
ATOM     28  C   LIG    1        4.982  -3.780   1.099  0.00  0.00    +0.020 A 
ATOM     29  C   LIG    1        3.878  -3.141   0.570  0.00  0.00    +0.010 A 
ENDBRANCH  20  24
ENDBRANCH  17  22
ENDBRANCH   1  17
TORSDOF 5
