REMARK  Name = ZINCrH000004jdxV.0
REMARK                            x       y       z     vdW  Elec       q    Type
REMARK                         _______ _______ _______ _____ _____    ______ ____
ROOT
ATOM      1  C   LIG    1       -1.790   3.127  -0.384  0.00  0.00    +0.630 A 
ATOM      2  N   LIG    1       -0.613   3.692  -0.122  0.00  0.00    -0.630 NA
ATOM      3  C   LIG    1        0.445   2.937   0.117  0.00  0.00    +0.440 A 
ATOM      4  N   LIG    1        0.341   1.620   0.096  0.00  0.00    -0.610 NA
ATOM      5  C   LIG    1       -0.833   1.048  -0.165  0.00  0.00    +0.630 A 
ATOM      6  N   LIG    1       -1.898   1.803  -0.411  0.00  0.00    -0.640 NA
ENDROOT
BRANCH   5   7
ATOM      7  N   LIG    1       -0.941  -0.327  -0.187  0.00  0.00    -0.800 N 
ATOM      8  H   LIG    1       -1.796  -0.744  -0.377  0.00  0.00    +0.420 HD
ATOM      9  H   LIG    1       -0.162  -0.878  -0.011  0.00  0.00    +0.420 HD
ENDBRANCH   5   7
BRANCH   1  10
ATOM     10  N   LIG    1       -2.896   3.916  -0.633  0.00  0.00    -0.620 N 
ATOM     11  H   LIG    1       -2.799   4.879  -0.703  0.00  0.00    +0.420 HD
BRANCH  10  17
ATOM     12  C   LIG    1       -5.142   3.975  -1.518  0.00  0.00    -0.110 A 
ATOM     13  C   LIG    1       -6.384   3.391  -1.667  0.00  0.00    +0.030 A 
ATOM     14  C   LIG    1       -6.646   2.163  -1.088  0.00  0.00    -0.020 A 
ATOM     15  C   LIG    1       -5.666   1.516  -0.358  0.00  0.00    +0.020 A 
ATOM     16  C   LIG    1       -4.419   2.092  -0.210  0.00  0.00    +0.030 A 
ATOM     17  C   LIG    1       -4.155   3.328  -0.786  0.00  0.00    +0.160 A 
BRANCH  12  19
ATOM     18  C   LIG    1       -4.190   5.104  -3.511  0.00  0.00    +0.020 C 
ATOM     19  C   LIG    1       -4.857   5.314  -2.150  0.00  0.00    +0.060 C 
ENDBRANCH  12  19
ENDBRANCH  10  17
ENDBRANCH   1  10
BRANCH   3  20
ATOM     20  C   LIG    1        1.775   3.581   0.413  0.00  0.00    +0.300 C 
BRANCH  20  21
ATOM     21  N   LIG    1        2.510   3.788  -0.842  0.00  0.00    -0.520 NA
BRANCH  21  22
ATOM     22  C   LIG    1        1.828   4.770  -1.696  0.00  0.00    +0.170 C 
ATOM     23  C   LIG    1        2.353   4.653  -3.128  0.00  0.00    +0.030 C 
ENDBRANCH  21  22
BRANCH  21  24
ATOM     24  C   LIG    1        3.898   4.191  -0.580  0.00  0.00    +0.230 C 
BRANCH  24  25
ATOM     25  C   LIG    1        4.696   2.990  -0.142  0.00  0.00    -0.080 A 
ATOM     26  C   LIG    1        4.869   2.729   1.205  0.00  0.00    +0.010 A 
ATOM     27  C   LIG    1        5.596   1.624   1.607  0.00  0.00    +0.000 A 
ATOM     28  C   LIG    1        6.160   0.787   0.662  0.00  0.00    +0.000 A 
ATOM     29  C   LIG    1        5.992   1.051  -0.684  0.00  0.00    +0.000 A 
ATOM     30  C   LIG    1        5.259   2.152  -1.086  0.00  0.00    +0.030 A 
ENDBRANCH  24  25
ENDBRANCH  21  24
ENDBRANCH  20  21
ENDBRANCH   3  20
TORSDOF 9
