REMARK  Name = ZINCrD00000dfcjl.0
REMARK                            x       y       z     vdW  Elec       q    Type
REMARK                         _______ _______ _______ _____ _____    ______ ____
ROOT
ATOM      1  C   LIG    1       -0.067   0.027   0.101  0.00  0.00    +0.510 C 
ATOM      2  N   LIG    1       -1.194  -0.711   0.045  0.00  0.00    -0.610 N 
ATOM      3  C   LIG    1       -2.470  -0.034   0.107  0.00  0.00    +0.280 C 
ATOM      4  C   LIG    1       -2.916   0.112   1.576  0.00  0.00    +0.000 C 
ATOM      5  C   LIG    1       -3.308  -1.196   2.123  0.00  0.00    +0.240 C 
ATOM      6  C   LIG    1       -2.179  -2.221   2.170  0.00  0.00    +0.040 C 
ATOM      7  C   LIG    1       -2.078  -2.915   0.834  0.00  0.00    -0.070 C 
ATOM      8  C   LIG    1       -1.609  -4.356   1.045  0.00  0.00    +0.040 C 
ATOM      9  C   LIG    1       -3.453  -2.925   0.162  0.00  0.00    +0.030 C 
ATOM     10  C   LIG    1       -1.073  -2.178  -0.070  0.00  0.00    +0.280 C 
ATOM     11  O   LIG    1        1.016  -0.516   0.056  0.00  0.00    -0.530 OA
ENDROOT
BRANCH   5  12
ATOM     12  N   LIG    1       -3.814  -0.999   3.484  0.00  0.00    -0.710 N 
ATOM     13  H   LIG    1       -3.241  -1.177   4.245  0.00  0.00    +0.400 HD
ATOM     14  C   LIG    1       -5.077  -0.569   3.677  0.00  0.00    +0.600 C 
ATOM     15  O   LIG    1       -5.825  -0.432   2.728  0.00  0.00    -0.540 OA
BRANCH  14  16
ATOM     16  C   LIG    1       -5.550  -0.265   5.037  0.00  0.00    -0.040 A 
ATOM     17  C   LIG    1       -4.800  -0.276   6.200  0.00  0.00    -0.030 A 
ATOM     18  C   LIG    1       -5.689   0.077   7.218  0.00  0.00    +0.020 A 
ATOM     19  N   LIG    1       -6.862   0.277   6.674  0.00  0.00    -0.270 NA
ATOM     20  C   LIG    1       -5.356   0.207   8.681  0.00  0.00    +0.160 C 
ATOM     21  N   LIG    1       -6.817   0.092   5.404  0.00  0.00    -0.260 N 
ATOM     22  C   LIG    1       -7.952   0.237   4.488  0.00  0.00    +0.390 C 
ENDBRANCH  14  16
ENDBRANCH   5  12
BRANCH   1  23
ATOM     23  C   LIG    1       -0.154   1.527   0.218  0.00  0.00    +0.040 C 
BRANCH  23  24
ATOM     24  C   LIG    1        1.256   2.118   0.261  0.00  0.00    +0.000 C 
ATOM     25  C   LIG    1        1.960   1.856  -1.072  0.00  0.00    +0.030 C 
BRANCH  24  26
ATOM     26  C   LIG    1        1.170   3.626   0.505  0.00  0.00    +0.000 C 
BRANCH  26  28
ATOM     27  C   LIG    1        2.494   5.704   0.917  0.00  0.00    +0.000 C 
ATOM     28  C   LIG    1        2.580   4.196   0.673  0.00  0.00    -0.010 C 
ENDBRANCH  26  28
ENDBRANCH  24  26
ENDBRANCH  23  24
ENDBRANCH   1  23
TORSDOF 6
