REMARK  Name = ZINCrH000004tZqp.0
REMARK                            x       y       z     vdW  Elec       q    Type
REMARK                         _______ _______ _______ _____ _____    ______ ____
ROOT
ATOM      1  O   LIG    1       -4.678  -1.558   0.726  0.00  0.00    -0.520 OA
ATOM      2  C   LIG    1       -4.831  -0.493   1.285  0.00  0.00    +0.500 C 
ATOM      3  N   LIG    1       -4.000   0.534   1.016  0.00  0.00    -0.720 N 
ATOM      4  H   LIG    1       -4.122   1.386   1.463  0.00  0.00    +0.400 HD
ENDROOT
BRANCH   3   5
ATOM      5  C   LIG    1       -2.913   0.363   0.049  0.00  0.00    +0.300 C 
BRANCH   5   6
ATOM      6  C   LIG    1       -2.081   1.646  -0.015  0.00  0.00    -0.060 C 
ATOM      7  C   LIG    1       -0.831   1.525  -0.903  0.00  0.00    +0.040 C 
ATOM      8  C   LIG    1       -0.084   1.042   0.351  0.00  0.00    +0.010 C 
ATOM      9  C   LIG    1       -1.121   1.820   1.177  0.00  0.00    +0.030 C 
BRANCH   6  10
ATOM     10  C   LIG    1       -2.912   2.869  -0.305  0.00  0.00    -0.070 A 
ATOM     11  C   LIG    1       -3.339   3.125  -1.595  0.00  0.00    +0.010 A 
ATOM     12  C   LIG    1       -4.105   4.244  -1.860  0.00  0.00    +0.010 A 
ATOM     13  C   LIG    1       -4.436   5.113  -0.837  0.00  0.00    +0.000 A 
ATOM     14  C   LIG    1       -4.006   4.860   0.452  0.00  0.00    +0.000 A 
ATOM     15  C   LIG    1       -3.243   3.738   0.718  0.00  0.00    +0.000 A 
ENDBRANCH   6  10
ENDBRANCH   5   6
ENDBRANCH   3   5
BRANCH   2  16
ATOM     16  C   LIG    1       -5.949  -0.317   2.280  0.00  0.00    +0.340 C 
BRANCH  16  17
ATOM     17  N   LIG    1       -6.702  -1.568   2.393  0.00  0.00    -0.470 N 
ATOM     18  C   LIG    1       -6.330  -2.495   3.314  0.00  0.00    +0.400 A 
ATOM     19  C   LIG    1       -7.011  -3.658   3.439  0.00  0.00    -0.290 A 
ATOM     20  C   LIG    1       -8.113  -3.916   2.611  0.00  0.00    +0.180 A 
ATOM     21  C   LIG    1       -8.486  -2.985   1.687  0.00  0.00    -0.150 A 
ATOM     22 CL   LIG    1       -9.847  -3.275   0.648  0.00  0.00    -0.010 Cl
ATOM     23  C   LIG    1       -7.759  -1.784   1.588  0.00  0.00    +0.530 A 
ATOM     24  O   LIG    1       -8.085  -0.940   0.768  0.00  0.00    -0.500 OA
BRANCH  19  25
ATOM     25  C   LIG    1       -6.584  -4.675   4.466  0.00  0.00    +0.530 C 
ATOM     26  F   LIG    1       -5.225  -4.506   4.753  0.00  0.00    -0.180 F 
ATOM     27  F   LIG    1       -6.798  -5.963   3.964  0.00  0.00    -0.170 F 
ATOM     28  F   LIG    1       -7.333  -4.499   5.635  0.00  0.00    -0.170 F 
ENDBRANCH  19  25
ENDBRANCH  16  17
ENDBRANCH   2  16
TORSDOF 6
