REMARK  Name = ZINCrg00000fSkId.0
REMARK                            x       y       z     vdW  Elec       q    Type
REMARK                         _______ _______ _______ _____ _____    ______ ____
ROOT
ATOM      1  C   LIG    1       -0.844   1.649  -6.006  0.00  0.00    +0.450 C 
ATOM      2  O   LIG    1       -1.839   2.333  -6.040  0.00  0.00    -0.490 OA
ENDROOT
BRANCH   1   3
ATOM      3  O   LIG    1       -0.317   1.289  -4.825  0.00  0.00    -0.330 OA
BRANCH   3   4
ATOM      4  C   LIG    1       -0.997   1.758  -3.630  0.00  0.00    +0.260 C 
BRANCH   4   7
ATOM      5  N   LIG    1       -0.721   1.571  -1.179  0.00  0.00    -0.720 N 
ATOM      6  H   LIG    1       -1.516   2.118  -1.079  0.00  0.00    +0.400 HD
ATOM      7  C   LIG    1       -0.268   1.258  -2.409  0.00  0.00    +0.520 C 
ATOM      8  O   LIG    1        0.726   0.575  -2.534  0.00  0.00    -0.510 OA
BRANCH   5   9
ATOM      9  C   LIG    1       -0.013   1.086   0.008  0.00  0.00    +0.320 C 
BRANCH   9  16
ATOM     10  C   LIG    1       -2.386  -0.270   0.945  0.00  0.00    +0.090 C 
ATOM     11  C   LIG    1       -1.854   0.923   1.696  0.00  0.00    -0.070 A 
ATOM     12  C   LIG    1       -2.498   1.366   2.836  0.00  0.00    +0.000 A 
ATOM     13  C   LIG    1       -2.012   2.464   3.522  0.00  0.00    +0.020 A 
ATOM     14  C   LIG    1       -0.880   3.115   3.071  0.00  0.00    +0.000 A 
ATOM     15  C   LIG    1       -0.233   2.670   1.933  0.00  0.00    +0.040 A 
ATOM     16  C   LIG    1       -0.718   1.572   1.248  0.00  0.00    -0.120 A 
ENDBRANCH   9  16
ENDBRANCH   5   9
ENDBRANCH   4   7
ENDBRANCH   3   4
ENDBRANCH   1   3
BRANCH   1  17
ATOM     17  C   LIG    1       -0.193   1.201  -7.289  0.00  0.00    +0.420 C 
BRANCH  17  18
ATOM     18  N   LIG    1       -0.952   1.721  -8.429  0.00  0.00    -0.570 N 
ATOM     19  C   LIG    1       -1.965   1.072  -9.018  0.00  0.00    +0.710 C 
ATOM     20  N   LIG    1       -2.496   1.771 -10.041  0.00  0.00    -0.710 N 
ATOM     21  H   LIG    1       -3.236   1.501 -10.608  0.00  0.00    +0.440 HD
ATOM     22  C   LIG    1       -1.727   3.014 -10.131  0.00  0.00    +0.120 C 
ATOM     23  C   LIG    1       -1.040   3.144 -11.497  0.00  0.00    +0.060 C 
ATOM     24  C   LIG    1       -1.976   4.084 -12.299  0.00  0.00    +0.030 C 
ATOM     25  C   LIG    1       -2.453   5.095 -11.225  0.00  0.00    +0.040 C 
ATOM     26  C   LIG    1       -2.626   4.240  -9.950  0.00  0.00    +0.050 C 
ATOM     27  O   LIG    1       -2.363  -0.021  -8.666  0.00  0.00    -0.530 OA
ATOM     28  C   LIG    1       -0.712   2.911  -9.021  0.00  0.00    +0.540 C 
ATOM     29  O   LIG    1        0.137   3.723  -8.724  0.00  0.00    -0.450 OA
ENDBRANCH  17  18
ENDBRANCH   1  17
TORSDOF 7
