REMARK  Name = ZINCkj000005l9Ik.0
REMARK                            x       y       z     vdW  Elec       q    Type
REMARK                         _______ _______ _______ _____ _____    ______ ____
ROOT
ATOM      1  C   LIG    1       -2.139   1.604  -1.110  0.00  0.00    +0.300 C 
ENDROOT
BRANCH   1   2
ATOM      2  N   LIG    1       -0.729   2.012  -1.180  0.00  0.00    -0.500 N 
ATOM      3  H   LIG    1       -0.306   1.620  -2.008  0.00  0.00    +0.430 HD
ATOM      4  H   LIG    1       -0.672   3.019  -1.217  0.00  0.00    +0.430 HD
BRANCH   2   9
ATOM      5  C   LIG    1        2.157   1.548   1.239  0.00  0.00    +0.150 C 
ATOM      6  C   LIG    1        2.178   0.019   1.231  0.00  0.00    +0.040 C 
ATOM      7  C   LIG    1        0.742  -0.511   1.242  0.00  0.00    +0.070 C 
ATOM      8  C   LIG    1        0.002  -0.004   0.002  0.00  0.00    +0.030 C 
ATOM      9  C   LIG    1       -0.019   1.526   0.010  0.00  0.00    +0.170 C 
ATOM     10  C   LIG    1        1.417   2.055  -0.000  0.00  0.00    +0.060 C 
BRANCH   5  12
ATOM     11  N   LIG    1        4.603   2.451   1.221  0.00  0.00    -0.390 NA
ATOM     12  C   LIG    1        3.538   2.058   1.229  0.00  0.00    +0.190 C 
ENDBRANCH   5  12
ENDBRANCH   2   9
ENDBRANCH   1   2
BRANCH   1  13
ATOM     13  C   LIG    1       -2.879   2.111  -2.349  0.00  0.00    -0.380 C 
BRANCH  13  14
ATOM     14  S   LIG    1       -4.619   1.607  -2.263  0.00  0.00    +2.620 S 
ATOM     15  O   LIG    1       -5.287   2.298  -1.216  0.00  0.00    -0.930 OA
ATOM     16  O   LIG    1       -4.738   0.198  -2.402  0.00  0.00    -0.930 OA
BRANCH  14  17
ATOM     17  N   LIG    1       -5.294   2.213  -3.648  0.00  0.00    -1.110 NA
ATOM     18  H   LIG    1       -5.975   2.902  -3.594  0.00  0.00    +0.430 HD
BRANCH  17  19
ATOM     19  C   LIG    1       -4.863   1.710  -4.954  0.00  0.00    +0.280 C 
BRANCH  19  20
ATOM     20  C   LIG    1       -5.870   2.137  -6.024  0.00  0.00    -0.020 C 
ATOM     21  C   LIG    1       -7.060   1.174  -6.168  0.00  0.00    +0.020 C 
ATOM     22  C   LIG    1       -6.945   1.388  -7.689  0.00  0.00    +0.010 C 
ATOM     23  C   LIG    1       -5.464   1.729  -7.450  0.00  0.00    +0.020 C 
ENDBRANCH  19  20
ENDBRANCH  17  19
ENDBRANCH  14  17
ENDBRANCH  13  14
ENDBRANCH   1  13
TORSDOF 8
