REMARK  Name = ZINCc70000001Zp8.0
REMARK                            x       y       z     vdW  Elec       q    Type
REMARK                         _______ _______ _______ _____ _____    ______ ____
ROOT
ATOM      1  C   LIG    1        0.002  -0.004   0.002  0.00  0.00    -0.020 C 
ATOM      2  C   LIG    1       -0.019   1.534   0.011  0.00  0.00    +0.070 C 
ATOM      3  C   LIG    1        1.518   1.476  -0.004  0.00  0.00    +0.100 C 
ATOM      4  F   LIG    1        2.122   2.432   0.819  0.00  0.00    -0.190 F 
ATOM      5  C   LIG    1        1.394   0.090   0.649  0.00  0.00    +0.060 C 
ENDROOT
BRANCH   1   8
ATOM      6  C   LIG    1       -2.146  -2.574   1.856  0.00  0.00    +0.290 C 
ATOM      7  N   LIG    1       -1.134  -1.968   0.987  0.00  0.00    -0.620 N 
ATOM      8  C   LIG    1       -1.039  -0.627   0.897  0.00  0.00    +0.520 C 
ATOM      9  O   LIG    1       -1.790   0.079   1.535  0.00  0.00    -0.530 OA
ATOM     10  C   LIG    1       -0.227  -2.821   0.215  0.00  0.00    +0.280 C 
ENDBRANCH   1   8
BRANCH   3  11
ATOM     11  C   LIG    1        2.116   1.439  -1.412  0.00  0.00    +0.200 C 
BRANCH  11  12
ATOM     12  O   LIG    1        3.541   1.387  -1.323  0.00  0.00    -0.560 OA
ATOM     13  H   LIG    1        3.989   1.361  -2.180  0.00  0.00    +0.390 HD
ENDBRANCH  11  12
ENDBRANCH   3  11
TORSDOF 3
