REMARK  Name = ZINCrD000000flqO.0
REMARK                            x       y       z     vdW  Elec       q    Type
REMARK                         _______ _______ _______ _____ _____    ______ ____
ROOT
ATOM      1  N   LIG    1       -0.377   1.450   0.009  0.00  0.00    -0.980 NA
ENDROOT
BRANCH   1   2
ATOM      2  S   LIG    1        0.917   2.481   0.074  0.00  0.00    +2.690 S 
ATOM      3  O   LIG    1        1.986   1.749   0.658  0.00  0.00    -0.950 OA
ATOM      4  O   LIG    1        0.430   3.704   0.609  0.00  0.00    -0.940 OA
BRANCH   2   5
ATOM      5  C   LIG    1        1.397   2.821  -1.588  0.00  0.00    -0.720 A 
ATOM      6  C   LIG    1        2.334   2.020  -2.213  0.00  0.00    +0.160 A 
ATOM      7  C   LIG    1        2.708   2.281  -3.517  0.00  0.00    -0.090 A 
ATOM      8  C   LIG    1        2.149   3.355  -4.196  0.00  0.00    +0.180 A 
ATOM      9  C   LIG    1        1.213   4.160  -3.564  0.00  0.00    -0.030 A 
ATOM     10  C   LIG    1        0.839   3.892  -2.262  0.00  0.00    +0.170 A 
BRANCH   8  11
ATOM     11  O   LIG    1        2.520   3.617  -5.476  0.00  0.00    -0.310 OA
ATOM     12  C   LIG    1        3.489   2.746  -6.063  0.00  0.00    +0.250 C 
ENDBRANCH   8  11
ENDBRANCH   2   5
ENDBRANCH   1   2
BRANCH   1  13
ATOM     13  C   LIG    1       -1.739   1.986  -0.050  0.00  0.00    +0.330 C 
BRANCH  13  15
ATOM     14  C   LIG    1       -2.789   3.171   1.809  0.00  0.00    +0.030 C 
ATOM     15  C   LIG    1       -2.318   2.042   1.340  0.00  0.00    -0.060 C 
ENDBRANCH  13  15
ENDBRANCH   1  13
BRANCH   1  16
ATOM     16  C   LIG    1       -0.159   0.001   0.006  0.00  0.00    +0.350 C 
BRANCH  16  17
ATOM     17  C   LIG    1       -0.268  -0.526   1.413  0.00  0.00    +0.490 C 
ATOM     18  N   LIG    1       -0.103  -1.842   1.654  0.00  0.00    -0.670 N 
ATOM     19  H   LIG    1        0.009  -2.460   0.915  0.00  0.00    +0.420 HD
ATOM     20  O   LIG    1       -0.503   0.233   2.329  0.00  0.00    -0.490 OA
BRANCH  18  21
ATOM     21  C   LIG    1       -0.093  -2.317   2.971  0.00  0.00    +0.150 A 
ATOM     22  C   LIG    1       -0.602  -3.576   3.260  0.00  0.00    +0.030 A 
ATOM     23  C   LIG    1       -0.591  -4.043   4.560  0.00  0.00    +0.030 A 
ATOM     24  C   LIG    1       -0.074  -3.257   5.575  0.00  0.00    +0.090 A 
ATOM     25  C   LIG    1        0.434  -2.000   5.290  0.00  0.00    -0.050 A 
ATOM     26 CL   LIG    1        1.081  -1.015   6.565  0.00  0.00    -0.040 Cl
ATOM     27  F   LIG    1       -0.066  -3.716   6.846  0.00  0.00    -0.130 F 
ATOM     28  C   LIG    1        0.430  -1.531   3.990  0.00  0.00    +0.070 A 
ENDBRANCH  18  21
ENDBRANCH  16  17
ENDBRANCH   1  16
TORSDOF 8
