REMARK  Name = ZINCbw0000000Hid.0
REMARK                            x       y       z     vdW  Elec       q    Type
REMARK                         _______ _______ _______ _____ _____    ______ ____
ROOT
ATOM      1  C   LIG    1        2.418  -2.655   0.866  0.00  0.00    +0.040 C 
ATOM      2  C   LIG    1        1.271  -2.186  -0.030  0.00  0.00    +0.040 C 
ATOM      3  C   LIG    1       -0.043  -2.778   0.480  0.00  0.00    +0.020 C 
ATOM      4  C   LIG    1       -1.207  -2.139  -0.288  0.00  0.00    +0.260 C 
ATOM      5  N   LIG    1       -1.211  -0.702   0.017  0.00  0.00    -0.750 N 
ATOM      6  H   LIG    1       -2.040  -0.244   0.226  0.00  0.00    +0.400 HD
ATOM      7  C   LIG    1        0.002  -0.004   0.002  0.00  0.00    +0.210 A 
ATOM      8  C   LIG    1       -0.017   1.386   0.010  0.00  0.00    -0.070 A 
ATOM      9  C   LIG    1        1.169   2.093   0.002  0.00  0.00    +0.040 A 
ATOM     10  C   LIG    1        2.375   1.417  -0.013  0.00  0.00    -0.050 A 
ATOM     11  C   LIG    1        2.396   0.036  -0.021  0.00  0.00    +0.040 A 
ATOM     12  C   LIG    1        1.212  -0.681  -0.015  0.00  0.00    -0.150 A 
ENDROOT
TORSDOF 0
