REMARK  Name = ZINCqH0000050e3A.0
REMARK                            x       y       z     vdW  Elec       q    Type
REMARK                         _______ _______ _______ _____ _____    ______ ____
ROOT
ATOM      1  C   LIG    1       -2.901  -3.761   7.622  0.00  0.00    +0.140 C 
ATOM      2  C   LIG    1       -3.741  -2.841   6.775  0.00  0.00    +0.200 A 
ATOM      3  C   LIG    1       -3.308  -2.456   5.521  0.00  0.00    -0.090 A 
ATOM      4  C   LIG    1       -4.117  -1.597   4.771  0.00  0.00    +0.370 A 
ATOM      5  N   LIG    1       -5.273  -1.190   5.282  0.00  0.00    -0.550 NA
ATOM      6  C   LIG    1       -5.654  -1.586   6.488  0.00  0.00    +0.390 A 
ATOM      7  N   LIG    1       -4.905  -2.396   7.223  0.00  0.00    -0.530 NA
ENDROOT
BRANCH   6   8
ATOM      8  C   LIG    1       -6.952  -1.112   7.029  0.00  0.00    -0.000 A 
ATOM      9  C   LIG    1       -7.768  -0.253   6.287  0.00  0.00    +0.020 A 
ATOM     10  C   LIG    1       -8.970   0.161   6.826  0.00  0.00    +0.250 A 
ATOM     11  N   LIG    1       -9.345  -0.236   8.026  0.00  0.00    -0.470 NA
ATOM     12  C   LIG    1       -8.604  -1.042   8.761  0.00  0.00    +0.250 A 
ATOM     13  C   LIG    1       -7.390  -1.507   8.296  0.00  0.00    +0.030 A 
ENDBRANCH   6   8
BRANCH   4  14
ATOM     14  N   LIG    1       -3.720  -1.181   3.510  0.00  0.00    -0.470 N 
ATOM     15  C   LIG    1       -4.724  -0.293   2.909  0.00  0.00    +0.200 C 
ATOM     16  C   LIG    1       -4.325   0.029   1.467  0.00  0.00    +0.040 C 
ATOM     17  C   LIG    1       -2.950   0.703   1.462  0.00  0.00    -0.020 C 
ATOM     18  C   LIG    1       -1.933  -0.221   2.137  0.00  0.00    +0.050 C 
ATOM     19  C   LIG    1       -2.402  -0.536   3.559  0.00  0.00    +0.200 C 
BRANCH  17  20
ATOM     20  C   LIG    1       -2.519   0.972   0.019  0.00  0.00    +0.090 C 
BRANCH  20  21
ATOM     21  C   LIG    1       -1.223   1.743   0.017  0.00  0.00    -0.130 A 
ATOM     22  C   LIG    1       -1.231   3.129   0.031  0.00  0.00    +0.060 A 
ATOM     23  C   LIG    1       -0.015   3.796   0.023  0.00  0.00    -0.030 A 
ATOM     24  C   LIG    1        1.155   3.062   0.007  0.00  0.00    +0.250 A 
ATOM     25  N   LIG    1        1.125   1.743   0.001  0.00  0.00    -0.480 NA
ATOM     26  C   LIG    1       -0.013   1.076   0.008  0.00  0.00    +0.250 A 
ENDBRANCH  20  21
ENDBRANCH  17  20
ENDBRANCH   4  14
TORSDOF 4
