REMARK  Name = ZINCnE000001PbW3.0
REMARK                            x       y       z     vdW  Elec       q    Type
REMARK                         _______ _______ _______ _____ _____    ______ ____
ROOT
ATOM      1  S   LIG    1       -1.492  -0.865  -0.485  0.00  0.00    +2.610 S 
ATOM      2  O   LIG    1       -1.135  -2.230  -0.649  0.00  0.00    -1.030 OA
ATOM      3  O   LIG    1       -2.220  -0.130  -1.460  0.00  0.00    -1.010 OA
ENDROOT
BRANCH   1   4
ATOM      4  C   LIG    1        0.011   0.015  -0.218  0.00  0.00    -0.630 A 
ATOM      5  C   LIG    1        1.217  -0.658  -0.234  0.00  0.00    +0.140 A 
ATOM      6  C   LIG    1        2.399   0.033  -0.025  0.00  0.00    +0.030 A 
ATOM      7  C   LIG    1        2.373   1.399   0.201  0.00  0.00    +0.070 A 
ATOM      8  C   LIG    1        1.167   2.074   0.218  0.00  0.00    -0.070 A 
ATOM      9  F   LIG    1        3.578  -0.626  -0.040  0.00  0.00    -0.140 F 
ATOM     10  C   LIG    1       -0.017   1.383   0.008  0.00  0.00    +0.230 A 
BRANCH  10  11
ATOM     11  O   LIG    1       -1.203   2.047   0.019  0.00  0.00    -0.280 OA
BRANCH  11  12
ATOM     12  C   LIG    1       -1.148   3.471   0.131  0.00  0.00    +0.140 C 
ATOM     13  C   LIG    1       -1.054   3.863   1.607  0.00  0.00    +0.020 C 
ATOM     14  C   LIG    1       -2.413   4.079  -0.478  0.00  0.00    +0.060 C 
ENDBRANCH  11  12
ENDBRANCH  10  11
ENDBRANCH   1   4
BRANCH   1  15
ATOM     15  N   LIG    1       -2.368  -0.776   0.917  0.00  0.00    -1.070 NA
BRANCH  15  19
ATOM     16  C   LIG    1       -6.445  -1.904   3.455  0.00  0.00    +0.080 C 
ATOM     17  C   LIG    1       -5.601  -1.948   2.207  0.00  0.00    -0.100 A 
ATOM     18  C   LIG    1       -4.363  -1.328   2.176  0.00  0.00    -0.030 A 
ATOM     19  C   LIG    1       -3.620  -1.391   1.000  0.00  0.00    +0.240 A 
ATOM     20  C   LIG    1       -4.140  -2.079  -0.089  0.00  0.00    +0.070 A 
ATOM     21  N   LIG    1       -5.321  -2.661  -0.015  0.00  0.00    -0.440 NA
ATOM     22  C   LIG    1       -6.050  -2.614   1.082  0.00  0.00    +0.000 A 
ATOM     23  C   LIG    1       -7.394  -3.297   1.110  0.00  0.00    +0.100 C 
ENDBRANCH  15  19
ENDBRANCH   1  15
TORSDOF 5
