REMARK  Name = ZINCvU0000000GDk.0
REMARK                            x       y       z     vdW  Elec       q    Type
REMARK                         _______ _______ _______ _____ _____    ______ ____
ROOT
ATOM      1  C   LIG    1       -2.602  -3.217  -0.146  0.00  0.00    -0.130 A 
ATOM      2  C   LIG    1       -2.389  -4.588   0.016  0.00  0.00    +0.070 A 
ATOM      3  C   LIG    1       -1.106  -5.090   0.005  0.00  0.00    -0.010 A 
ATOM      4  C   LIG    1       -0.024  -4.243  -0.172  0.00  0.00    +0.070 A 
ATOM      5  C   LIG    1       -0.217  -2.888  -0.340  0.00  0.00    -0.020 A 
ATOM      6  C   LIG    1       -1.504  -2.362  -0.332  0.00  0.00    -0.060 A 
ENDROOT
BRANCH   1   9
ATOM      7  N   LIG    1       -5.023  -3.497   0.049  0.00  0.00    -0.670 N 
ATOM      8  H   LIG    1       -4.885  -4.456   0.089  0.00  0.00    +0.410 HD
ATOM      9  C   LIG    1       -3.971  -2.672  -0.130  0.00  0.00    +0.550 C 
ATOM     10  O   LIG    1       -4.153  -1.479  -0.277  0.00  0.00    -0.480 OA
BRANCH   7  17
ATOM     11  C   LIG    1      -11.231   0.701   1.520  0.00  0.00    +0.190 C 
ATOM     12  C   LIG    1      -10.022  -0.147   1.218  0.00  0.00    +0.120 A 
ATOM     13  N   LIG    1      -10.056  -1.282   0.626  0.00  0.00    -0.460 NA
ATOM     14  C   LIG    1       -8.891  -1.928   0.423  0.00  0.00    +0.070 A 
ATOM     15  C   LIG    1       -8.668  -3.175  -0.198  0.00  0.00    +0.100 A 
ATOM     16  C   LIG    1       -7.408  -3.676  -0.315  0.00  0.00    +0.010 A 
ATOM     17  C   LIG    1       -6.312  -2.969   0.175  0.00  0.00    +0.160 A 
ATOM     18  C   LIG    1       -6.503  -1.746   0.793  0.00  0.00    +0.060 A 
ATOM     19  C   LIG    1       -7.788  -1.221   0.913  0.00  0.00    -0.150 A 
ATOM     20  S   LIG    1       -8.367   0.282   1.627  0.00  0.00    +0.060 S 
ENDBRANCH   7  17
ENDBRANCH   1   9
BRANCH   6  21
ATOM     21  S   LIG    1       -1.754  -0.631  -0.546  0.00  0.00    +0.090 S 
BRANCH  21  22
ATOM     22  C   LIG    1       -0.066   0.006  -0.733  0.00  0.00    +0.010 C 
BRANCH  22  23
ATOM     23  C   LIG    1       -0.111   1.500  -0.928  0.00  0.00    +0.530 C 
ATOM     24  N   LIG    1        1.033   2.193  -1.089  0.00  0.00    -0.730 N 
ATOM     25  H   LIG    1        1.886   1.731  -1.079  0.00  0.00    +0.400 HD
ATOM     26  O   LIG    1       -1.178   2.077  -0.945  0.00  0.00    -0.520 OA
BRANCH  24  27
ATOM     27  C   LIG    1        0.989   3.645  -1.279  0.00  0.00    +0.260 C 
BRANCH  27  28
ATOM     28  C   LIG    1        2.413   4.183  -1.436  0.00  0.00    -0.020 C 
ATOM     29  C   LIG    1        3.186   3.968  -0.133  0.00  0.00    +0.010 C 
ATOM     30  C   LIG    1        4.610   4.505  -0.290  0.00  0.00    +0.000 C 
ATOM     31  C   LIG    1        4.558   6.000  -0.612  0.00  0.00    +0.000 C 
ATOM     32  C   LIG    1        3.785   6.215  -1.915  0.00  0.00    +0.000 C 
ATOM     33  C   LIG    1        2.361   5.677  -1.758  0.00  0.00    +0.030 C 
ENDBRANCH  27  28
ENDBRANCH  24  27
ENDBRANCH  22  23
ENDBRANCH  21  22
ENDBRANCH   6  21
TORSDOF 7
