REMARK  Name = ZINCqH0000035LvQ.0
REMARK                            x       y       z     vdW  Elec       q    Type
REMARK                         _______ _______ _______ _____ _____    ______ ____
ROOT
ATOM      1  N   LIG    1        4.269  -0.747   1.319  0.00  0.00    -0.720 N 
ATOM      2  H   LIG    1        3.789  -0.331   2.051  0.00  0.00    +0.400 HD
ATOM      3  C   LIG    1        5.448  -1.359   1.547  0.00  0.00    +0.560 C 
ATOM      4  O   LIG    1        6.050  -1.880   0.629  0.00  0.00    -0.540 OA
ENDROOT
BRANCH   3   5
ATOM      5  C   LIG    1        6.009  -1.396   2.914  0.00  0.00    -0.140 A 
ATOM      6  C   LIG    1        7.220  -2.026   3.143  0.00  0.00    +0.110 A 
ATOM      7  C   LIG    1        7.747  -2.058   4.443  0.00  0.00    -0.060 A 
ATOM      8  C   LIG    1        8.974  -2.687   4.715  0.00  0.00    +0.030 A 
ATOM      9  C   LIG    1        9.458  -2.700   5.987  0.00  0.00    +0.010 A 
ATOM     10  C   LIG    1        8.753  -2.097   7.027  0.00  0.00    +0.030 A 
ATOM     11  C   LIG    1        7.561  -1.478   6.801  0.00  0.00    +0.020 A 
ATOM     12  C   LIG    1        7.030  -1.443   5.502  0.00  0.00    -0.030 A 
ATOM     13  C   LIG    1        5.801  -0.811   5.236  0.00  0.00    +0.020 A 
ATOM     14  C   LIG    1        5.310  -0.786   3.972  0.00  0.00    +0.030 A 
ENDBRANCH   3   5
BRANCH   1  15
ATOM     15  C   LIG    1        3.714  -0.710  -0.036  0.00  0.00    +0.340 C 
BRANCH  15  21
ATOM     16  C   LIG    1        2.383   1.414  -0.012  0.00  0.00    +0.150 A 
ATOM     17  C   LIG    1        1.175   2.094   0.002  0.00  0.00    -0.120 A 
ATOM     18  C   LIG    1       -0.017   1.387   0.010  0.00  0.00    +0.150 A 
ATOM     19  C   LIG    1        0.002  -0.004   0.002  0.00  0.00    +0.060 A 
ATOM     20  C   LIG    1        1.212  -0.680  -0.013  0.00  0.00    +0.040 A 
ATOM     21  C   LIG    1        2.399   0.028  -0.020  0.00  0.00    -0.140 A 
BRANCH  16  23
ATOM     22  C   LIG    1        3.462   3.534  -0.009  0.00  0.00    +0.240 C 
ATOM     23  O   LIG    1        3.553   2.108  -0.018  0.00  0.00    -0.310 OA
ENDBRANCH  16  23
BRANCH  19  24
ATOM     24  O   LIG    1       -1.167  -0.701   0.010  0.00  0.00    -0.310 OA
ATOM     25  C   LIG    1       -1.072  -2.127   0.001  0.00  0.00    +0.230 C 
ENDBRANCH  19  24
BRANCH  18  26
ATOM     26  O   LIG    1       -1.203   2.052   0.019  0.00  0.00    -0.300 OA
ATOM     27  C   LIG    1       -1.147   3.480   0.026  0.00  0.00    +0.240 C 
ENDBRANCH  18  26
ENDBRANCH  15  21
ENDBRANCH   1  15
TORSDOF 6
