REMARK  Name = ZINCrH000004tQcV.0
REMARK                            x       y       z     vdW  Elec       q    Type
REMARK                         _______ _______ _______ _____ _____    ______ ____
ROOT
ATOM      1  O   LIG    1        1.315  -4.645  -0.046  0.00  0.00    -0.480 OA
ATOM      2  C   LIG    1        0.187  -4.198  -0.024  0.00  0.00    +0.510 C 
ATOM      3  N   LIG    1       -0.869  -5.035  -0.016  0.00  0.00    -0.670 N 
ATOM      4  H   LIG    1       -1.768  -4.681   0.069  0.00  0.00    +0.410 HD
ENDROOT
BRANCH   3   5
ATOM      5  C   LIG    1       -0.669  -6.417  -0.132  0.00  0.00    +0.130 A 
ATOM      6  C   LIG    1       -1.589  -7.197  -0.818  0.00  0.00    +0.040 A 
ATOM      7  C   LIG    1       -1.388  -8.559  -0.936  0.00  0.00    -0.030 A 
ATOM      8  C   LIG    1       -0.273  -9.148  -0.359  0.00  0.00    +0.090 A 
ATOM      9  C   LIG    1        0.644  -8.370   0.332  0.00  0.00    +0.050 A 
ATOM     10  C   LIG    1        0.447  -7.008   0.446  0.00  0.00    +0.070 A 
BRANCH   8  11
ATOM     11  O   LIG    1       -0.079 -10.489  -0.471  0.00  0.00    -0.310 OA
BRANCH  11  12
ATOM     12  C   LIG    1       -1.063 -11.229  -1.196  0.00  0.00    +0.600 C 
ATOM     13  F   LIG    1       -2.309 -11.080  -0.577  0.00  0.00    -0.160 F 
ATOM     14  F   LIG    1       -0.710 -12.583  -1.213  0.00  0.00    -0.130 F 
ATOM     15  F   LIG    1       -1.134 -10.749  -2.508  0.00  0.00    -0.160 F 
ENDBRANCH  11  12
ENDBRANCH   8  11
ENDBRANCH   3   5
BRANCH   2  16
ATOM     16  C   LIG    1       -0.032  -2.708  -0.005  0.00  0.00    +0.240 C 
BRANCH  16  17
ATOM     17  O   LIG    1        1.231  -2.040  -0.018  0.00  0.00    -0.280 OA
BRANCH  17  18
ATOM     18  C   LIG    1        1.211  -0.680  -0.004  0.00  0.00    +0.130 A 
ATOM     19  C   LIG    1        0.002  -0.004   0.022  0.00  0.00    -0.060 A 
ATOM     20  C   LIG    1       -0.017   1.378   0.036  0.00  0.00    +0.070 A 
ATOM     21  C   LIG    1        1.168   2.089   0.026  0.00  0.00    +0.000 A 
ATOM     22  C   LIG    1        2.379   1.422   0.001  0.00  0.00    +0.070 A 
ATOM     23  C   LIG    1        2.405   0.036  -0.015  0.00  0.00    +0.090 A 
BRANCH  23  24
ATOM     24  N   LIG    1        3.633  -0.644  -0.040  0.00  0.00    -0.410 N 
ATOM     25  C   LIG    1        4.676  -0.410  -0.898  0.00  0.00    +0.110 A 
ATOM     26  C   LIG    1        5.650  -1.282  -0.575  0.00  0.00    +0.150 A 
ATOM     27  N   LIG    1        5.219  -2.030   0.451  0.00  0.00    -0.490 NA
ATOM     28  C   LIG    1        4.014  -1.654   0.784  0.00  0.00    +0.410 A 
ENDBRANCH  23  24
ENDBRANCH  17  18
ENDBRANCH  16  17
ENDBRANCH   2  16
TORSDOF 7
