REMARK  Name = ZINCqH0000050a1U.0
REMARK                            x       y       z     vdW  Elec       q    Type
REMARK                         _______ _______ _______ _____ _____    ______ ____
ROOT
ATOM      1  C   LIG    1        4.750   0.781   1.321  0.00  0.00    +0.240 C 
ATOM      2  C   LIG    1        5.992   1.645   1.015  0.00  0.00    +0.060 C 
ATOM      3  C   LIG    1        5.581   2.402  -0.275  0.00  0.00    +0.040 C 
ATOM      4  C   LIG    1        4.068   2.632  -0.033  0.00  0.00    +0.250 C 
ATOM      5  N   LIG    1        3.605   1.408   0.646  0.00  0.00    -0.620 N 
ATOM      6  C   LIG    1        2.339   0.944   0.650  0.00  0.00    +0.730 C 
ATOM      7  N   LIG    1        1.373   1.616  -0.006  0.00  0.00    -0.740 N 
ATOM      8  H   LIG    1        1.587   2.434  -0.481  0.00  0.00    +0.390 HD
ATOM      9  O   LIG    1        2.070  -0.081   1.246  0.00  0.00    -0.570 OA
ENDROOT
BRANCH   7  10
ATOM     10  C   LIG    1       -0.003   1.111  -0.001  0.00  0.00    +0.260 C 
ATOM     11  C   LIG    1       -0.721   1.601   1.259  0.00  0.00    +0.000 C 
ATOM     12  C   LIG    1       -2.157   1.074   1.264  0.00  0.00    +0.000 C 
ATOM     13  C   LIG    1       -2.893   1.588   0.025  0.00  0.00    +0.000 C 
ATOM     14  C   LIG    1       -2.175   1.098  -1.234  0.00  0.00    +0.020 C 
ATOM     15  C   LIG    1       -0.739   1.625  -1.240  0.00  0.00    +0.010 C 
ENDBRANCH   7  10
BRANCH   1  17
ATOM     16  N   LIG    1        5.433   0.200   3.627  0.00  0.00    -0.580 N 
ATOM     17  C   LIG    1        4.506   0.737   2.808  0.00  0.00    +0.510 C 
ATOM     18  O   LIG    1        3.477   1.185   3.268  0.00  0.00    -0.500 OA
ATOM     19  C   LIG    1        6.622  -0.444   3.065  0.00  0.00    +0.300 C 
BRANCH  16  25
ATOM     20  C   LIG    1        6.914   1.855   8.013  0.00  0.00    +0.100 C 
ATOM     21  C   LIG    1        5.962   1.053   7.164  0.00  0.00    -0.070 A 
ATOM     22  C   LIG    1        4.914   0.372   7.757  0.00  0.00    +0.000 A 
ATOM     23  C   LIG    1        4.038  -0.365   6.982  0.00  0.00    -0.070 A 
ATOM     24  C   LIG    1        4.207  -0.424   5.612  0.00  0.00    +0.010 A 
ATOM     25  C   LIG    1        5.258   0.258   5.014  0.00  0.00    +0.150 A 
ATOM     26  C   LIG    1        2.897  -1.105   7.632  0.00  0.00    +0.090 C 
ATOM     27  C   LIG    1        6.139   0.994   5.796  0.00  0.00    -0.010 A 
ENDBRANCH  16  25
ENDBRANCH   1  17
TORSDOF 3
