REMARK  Name = ZINCrD0000071uSE.0
REMARK                            x       y       z     vdW  Elec       q    Type
REMARK                         _______ _______ _______ _____ _____    ______ ____
ROOT
ATOM      1  N   LIG    1        3.404   2.135   0.901  0.00  0.00    -0.740 N 
ATOM      2  H   LIG    1        3.519   1.807   1.806  0.00  0.00    +0.400 HD
ATOM      3  C   LIG    1        4.071   3.232   0.492  0.00  0.00    +0.700 C 
ATOM      4  N   LIG    1        4.899   3.873   1.341  0.00  0.00    -0.730 N 
ATOM      5  H   LIG    1        5.014   3.545   2.247  0.00  0.00    +0.410 HD
ATOM      6  O   LIG    1        3.927   3.644  -0.643  0.00  0.00    -0.580 OA
ENDROOT
BRANCH   1  10
ATOM      7  C   LIG    1        1.123  -2.147  -0.064  0.00  0.00    +0.080 C 
ATOM      8  C   LIG    1        1.214  -0.653  -0.383  0.00  0.00    +0.120 C 
ATOM      9  C   LIG    1        2.371  -0.026   0.405  0.00  0.00    +0.030 C 
ATOM     10  C   LIG    1        2.505   1.438  -0.022  0.00  0.00    +0.320 C 
ATOM     11  C   LIG    1        1.150   2.100   0.002  0.00  0.00    -0.190 A 
ATOM     12  C   LIG    1        1.085   3.483   0.016  0.00  0.00    +0.100 A 
ATOM     13  C   LIG    1       -0.139   4.124   0.034  0.00  0.00    -0.050 A 
ATOM     14  C   LIG    1       -1.308   3.381   0.039  0.00  0.00    +0.140 A 
ATOM     15  C   LIG    1       -1.248   2.001   0.031  0.00  0.00    -0.050 A 
ATOM     16  F   LIG    1       -2.506   4.006   0.054  0.00  0.00    -0.130 F 
ATOM     17  C   LIG    1       -0.016   1.354   0.009  0.00  0.00    +0.180 A 
ATOM     18  C   LIG    1        1.448  -0.461  -1.883  0.00  0.00    +0.040 C 
ATOM     19  O   LIG    1        0.002  -0.004   0.002  0.00  0.00    -0.300 OA
ENDBRANCH   1  10
BRANCH   4  20
ATOM     20  C   LIG    1        5.624   5.066   0.897  0.00  0.00    +0.320 C 
ATOM     21  C   LIG    1        4.784   6.306   1.121  0.00  0.00    -0.110 A 
ATOM     22  C   LIG    1        3.441   6.536   0.873  0.00  0.00    +0.040 A 
ATOM     23  C   LIG    1        2.882   7.766   1.162  0.00  0.00    +0.000 A 
ATOM     24  C   LIG    1        3.665   8.770   1.700  0.00  0.00    +0.020 A 
ATOM     25  C   LIG    1        5.008   8.541   1.952  0.00  0.00    +0.010 A 
ATOM     26  C   LIG    1        5.569   7.309   1.661  0.00  0.00    -0.090 A 
ATOM     27  C   LIG    1        6.989   6.812   1.833  0.00  0.00    +0.070 C 
ATOM     28  C   LIG    1        6.890   5.274   1.754  0.00  0.00    +0.180 C 
BRANCH  28  29
ATOM     29  O   LIG    1        6.721   4.708   3.055  0.00  0.00    -0.560 OA
ATOM     30  H   LIG    1        7.490   4.812   3.633  0.00  0.00    +0.390 HD
ENDBRANCH  28  29
ENDBRANCH   4  20
TORSDOF 3
