REMARK  Name = ZINCtV000002pPYE.0
REMARK                            x       y       z     vdW  Elec       q    Type
REMARK                         _______ _______ _______ _____ _____    ______ ____
ROOT
ATOM      1  C   LIG    1        0.017  -0.036  -0.033  0.00  0.00    -0.060 A 
ATOM      2  C   LIG    1        1.251  -0.669  -0.039  0.00  0.00    +0.020 A 
ATOM      3  C   LIG    1        2.422   0.104  -0.064  0.00  0.00    +0.200 A 
ATOM      4  N   LIG    1        2.395   1.420  -0.080  0.00  0.00    -0.450 NA
ATOM      5  C   LIG    1        1.253   2.111  -0.075  0.00  0.00    +0.140 A 
ATOM      6  C   LIG    1        1.255   3.517  -0.094  0.00  0.00    +0.050 A 
ATOM      7  C   LIG    1        0.074   4.194  -0.088  0.00  0.00    +0.040 A 
ATOM      8  C   LIG    1       -1.143   3.517  -0.065  0.00  0.00    +0.030 A 
ATOM      9  C   LIG    1       -1.183   2.154  -0.041  0.00  0.00    +0.030 A 
ATOM     10  C   LIG    1        0.012   1.427  -0.051  0.00  0.00    -0.070 A 
ENDROOT
BRANCH   3  11
ATOM     11  C   LIG    1        3.735  -0.584  -0.071  0.00  0.00    -0.040 A 
ATOM     12  C   LIG    1        3.794  -1.977  -0.048  0.00  0.00    +0.050 A 
ATOM     13  C   LIG    1        5.019  -2.613  -0.060  0.00  0.00    +0.050 A 
ATOM     14  C   LIG    1        6.187  -1.871  -0.084  0.00  0.00    -0.080 A 
ATOM     15  C   LIG    1        6.133  -0.487  -0.101  0.00  0.00    +0.050 A 
ATOM     16 BR   LIG    1        7.861  -2.749  -0.093  0.00  0.00    -0.040 Br
ATOM     17  C   LIG    1        4.914   0.158  -0.095  0.00  0.00    +0.080 A 
ENDBRANCH   3  11
BRANCH   1  19
ATOM     18  N   LIG    1       -1.456  -1.721   0.962  0.00  0.00    -0.540 N 
ATOM     19  C   LIG    1       -1.244  -0.810  -0.008  0.00  0.00    +0.570 C 
ATOM     20  O   LIG    1       -2.088  -0.623  -0.862  0.00  0.00    -0.490 OA
BRANCH  18  21
ATOM     21  C   LIG    1       -2.589  -2.539   0.916  0.00  0.00    +0.150 A 
ATOM     22  C   LIG    1       -2.742  -3.568   1.837  0.00  0.00    -0.030 A 
ATOM     23  C   LIG    1       -3.864  -4.372   1.792  0.00  0.00    +0.030 A 
ATOM     24  C   LIG    1       -4.830  -4.159   0.826  0.00  0.00    -0.020 A 
ATOM     25  C   LIG    1       -4.678  -3.139  -0.096  0.00  0.00    +0.030 A 
ATOM     26  C   LIG    1       -3.561  -2.329  -0.053  0.00  0.00    +0.010 A 
ENDBRANCH  18  21
BRANCH  18  27
ATOM     27  C   LIG    1       -0.500  -1.854   2.064  0.00  0.00    +0.310 C 
BRANCH  27  29
ATOM     28  C   LIG    1       -1.124  -1.589   4.410  0.00  0.00    +0.050 C 
ATOM     29  C   LIG    1       -0.967  -1.030   3.236  0.00  0.00    -0.070 C 
ENDBRANCH  27  29
ENDBRANCH  18  27
ENDBRANCH   1  19
TORSDOF 5
