REMARK  Name = ZINCrH000004nR7F.0
REMARK                            x       y       z     vdW  Elec       q    Type
REMARK                         _______ _______ _______ _____ _____    ______ ____
ROOT
ATOM      1  C   LIG    1        7.205   4.289  -0.046  0.00  0.00    +0.360 C 
ENDROOT
BRANCH   1   2
ATOM      2  C   LIG    1        6.994   5.651   0.564  0.00  0.00    +0.270 A 
ATOM      3  N   LIG    1        7.893   6.589   0.623  0.00  0.00    -0.470 NA
ATOM      4  C   LIG    1        7.372   7.684   1.234  0.00  0.00    +0.050 A 
ATOM      5  C   LIG    1        7.883   8.944   1.554  0.00  0.00    +0.070 A 
ATOM      6  C   LIG    1        7.091   9.859   2.189  0.00  0.00    +0.000 A 
ATOM      7  C   LIG    1        5.780   9.550   2.521  0.00  0.00    +0.030 A 
ATOM      8  C   LIG    1        5.254   8.312   2.216  0.00  0.00    +0.010 A 
ATOM      9  C   LIG    1        6.044   7.370   1.571  0.00  0.00    +0.050 A 
ATOM     10  N   LIG    1        5.833   6.080   1.129  0.00  0.00    -0.600 N 
ATOM     11  H   LIG    1        5.010   5.572   1.208  0.00  0.00    +0.420 HD
ENDBRANCH   1   2
BRANCH   1  12
ATOM     12  N   LIG    1        5.942   3.548  -0.037  0.00  0.00    -0.710 N 
ATOM     13  H   LIG    1        5.099   4.028  -0.026  0.00  0.00    +0.410 HD
ATOM     14  C   LIG    1        5.951   2.200  -0.045  0.00  0.00    +0.590 C 
ATOM     15  O   LIG    1        7.007   1.600  -0.059  0.00  0.00    -0.510 OA
BRANCH  14  16
ATOM     16  C   LIG    1        4.672   1.451  -0.036  0.00  0.00    +0.050 A 
ATOM     17  N   LIG    1        3.526   2.109  -0.021  0.00  0.00    -0.390 NA
ATOM     18  C   LIG    1        2.376   1.433  -0.013  0.00  0.00    +0.080 A 
ATOM     19  C   LIG    1        1.140   2.106   0.003  0.00  0.00    +0.060 A 
ATOM     20  C   LIG    1       -0.017   1.390   0.010  0.00  0.00    +0.040 A 
ATOM     21  C   LIG    1        0.002  -0.004   0.002  0.00  0.00    +0.060 A 
ATOM     22  C   LIG    1        1.178  -0.690  -0.013  0.00  0.00    +0.060 A 
ATOM     23  C   LIG    1        2.395   0.013  -0.021  0.00  0.00    +0.100 A 
ATOM     24  N   LIG    1        3.565  -0.635  -0.036  0.00  0.00    -0.420 NA
ATOM     25  C   LIG    1        4.687   0.045  -0.043  0.00  0.00    +0.320 A 
ENDBRANCH  14  16
ENDBRANCH   1  12
BRANCH   1  26
ATOM     26  C   LIG    1        7.694   4.447  -1.487  0.00  0.00    +0.070 C 
BRANCH  26  27
ATOM     27  C   LIG    1        8.028   3.070  -2.066  0.00  0.00    +0.090 C 
BRANCH  27  29
ATOM     28  C   LIG    1        8.947   1.548  -4.279  0.00  0.00    +0.130 C 
ATOM     29  S   LIG    1        8.607   3.256  -3.775  0.00  0.00    -0.270 S 
ENDBRANCH  27  29
ENDBRANCH  26  27
ENDBRANCH   1  26
TORSDOF 6
