REMARK  Name = ZINCrH000004oNJU.0
REMARK                            x       y       z     vdW  Elec       q    Type
REMARK                         _______ _______ _______ _____ _____    ______ ____
ROOT
ATOM      1  N   LIG    1        3.229   1.704  -1.084  0.00  0.00    -0.740 N 
ATOM      2  H   LIG    1        3.133   2.659  -1.223  0.00  0.00    +0.400 HD
ATOM      3  C   LIG    1        4.251   1.038  -1.657  0.00  0.00    +0.710 C 
ATOM      4  N   LIG    1        5.082   1.678  -2.504  0.00  0.00    -0.620 N 
ATOM      5  C   LIG    1        4.975   3.130  -2.703  0.00  0.00    +0.260 C 
ATOM      6  C   LIG    1        4.837   3.413  -4.202  0.00  0.00    +0.010 C 
ATOM      7  C   LIG    1        6.002   2.760  -4.950  0.00  0.00    +0.020 C 
ATOM      8  C   LIG    1        5.960   1.244  -4.739  0.00  0.00    +0.010 C 
ATOM      9  C   LIG    1        6.114   0.938  -3.241  0.00  0.00    +0.260 C 
ATOM     10  O   LIG    1        4.425  -0.140  -1.409  0.00  0.00    -0.570 OA
ENDROOT
BRANCH   9  11
ATOM     11  C   LIG    1        5.939  -0.564  -3.003  0.00  0.00    +0.030 C 
ATOM     12  C   LIG    1        6.992  -1.375  -3.788  0.00  0.00    +0.240 C 
ATOM     13  N   LIG    1        6.299  -2.590  -4.232  0.00  0.00    -0.730 N 
ATOM     14  H   LIG    1        6.746  -3.394  -4.540  0.00  0.00    +0.410 HD
ATOM     15  C   LIG    1        4.965  -2.446  -4.158  0.00  0.00    +0.520 C 
ATOM     16  O   LIG    1        4.156  -3.294  -4.469  0.00  0.00    -0.540 OA
ATOM     17  C   LIG    1        4.619  -1.072  -3.627  0.00  0.00    +0.060 C 
ENDBRANCH   9  11
BRANCH   1  18
ATOM     18  C   LIG    1        2.261   0.985  -0.251  0.00  0.00    +0.340 C 
BRANCH  18  19
ATOM     19  C   LIG    1        1.259   0.287  -1.134  0.00  0.00    -0.090 A 
ATOM     20  C   LIG    1        0.822  -0.984  -0.813  0.00  0.00    +0.040 A 
ATOM     21  C   LIG    1       -0.093  -1.626  -1.626  0.00  0.00    +0.020 A 
ATOM     22  C   LIG    1       -0.581  -0.992  -2.754  0.00  0.00    -0.030 A 
ATOM     23  C   LIG    1       -0.143   0.281  -3.075  0.00  0.00    +0.020 A 
ATOM     24 CL   LIG    1       -1.735  -1.795  -3.772  0.00  0.00    -0.070 Cl
ATOM     25  C   LIG    1        0.776   0.920  -2.264  0.00  0.00    +0.030 A 
ENDBRANCH  18  19
BRANCH  18  29
ATOM     26  C   LIG    1        3.861   2.375   1.790  0.00  0.00    +0.060 C 
ATOM     27  C   LIG    1        2.368   2.700   1.721  0.00  0.00    -0.030 C 
ATOM     28  C   LIG    1        1.385   1.601   2.135  0.00  0.00    +0.040 C 
ATOM     29  C   LIG    1        1.536   1.977   0.660  0.00  0.00    -0.060 C 
ENDBRANCH  18  29
ENDBRANCH   1  18
TORSDOF 4
