REMARK  Name = ZINCvU0000000D4X.0
REMARK                            x       y       z     vdW  Elec       q    Type
REMARK                         _______ _______ _______ _____ _____    ______ ____
ROOT
ATOM      1  O   LIG    1       -5.478   0.334  -0.084  0.00  0.00    -0.500 OA
ATOM      2  C   LIG    1       -5.356   1.536   0.019  0.00  0.00    +0.540 C 
ATOM      3  N   LIG    1       -6.448   2.316   0.147  0.00  0.00    -0.580 N 
ENDROOT
BRANCH   3   4
ATOM      4  C   LIG    1       -6.309   3.775   0.154  0.00  0.00    +0.190 C 
ATOM      5  C   LIG    1       -7.520   4.597   0.599  0.00  0.00    +0.040 C 
ATOM      6  C   LIG    1       -7.115   4.566  -0.877  0.00  0.00    +0.020 C 
ENDBRANCH   3   4
BRANCH   3   7
ATOM      7  C   LIG    1       -7.773   1.706   0.279  0.00  0.00    +0.470 C 
BRANCH   7   8
ATOM      8  C   LIG    1       -8.077   1.475   1.736  0.00  0.00    +0.140 A 
ATOM      9  N   LIG    1       -8.662   2.315   2.543  0.00  0.00    -0.260 NA
ATOM     10  N   LIG    1       -8.763   1.789   3.713  0.00  0.00    -0.270 NA
ATOM     11  C   LIG    1       -8.233   0.588   3.695  0.00  0.00    +0.220 A 
ATOM     12  O   LIG    1       -7.789   0.367   2.441  0.00  0.00    -0.210 OA
BRANCH  11  13
ATOM     13  C   LIG    1       -8.141  -0.347   4.836  0.00  0.00    -0.030 A 
ATOM     14  C   LIG    1       -7.552  -1.601   4.668  0.00  0.00    +0.070 A 
ATOM     15  C   LIG    1       -7.464  -2.467   5.737  0.00  0.00    +0.040 A 
ATOM     16  C   LIG    1       -7.969  -2.099   6.973  0.00  0.00    -0.010 A 
ATOM     17  C   LIG    1       -8.559  -0.858   7.145  0.00  0.00    +0.040 A 
ATOM     18 CL   LIG    1       -7.861  -3.198   8.313  0.00  0.00    -0.050 Cl
ATOM     19  C   LIG    1       -8.647   0.019   6.084  0.00  0.00    +0.100 A 
ENDBRANCH  11  13
ENDBRANCH   7   8
ENDBRANCH   3   7
BRANCH   2  20
ATOM     20  C   LIG    1       -3.983   2.158   0.003  0.00  0.00    +0.090 C 
BRANCH  20  21
ATOM     21  S   LIG    1       -2.727   0.850  -0.033  0.00  0.00    -0.030 S 
BRANCH  21  22
ATOM     22  C   LIG    1       -1.214   1.753  -0.048  0.00  0.00    -0.100 A 
ATOM     23  C   LIG    1       -0.015   1.074  -0.076  0.00  0.00    +0.050 A 
ATOM     24  C   LIG    1        1.188   1.798  -0.093  0.00  0.00    -0.030 A 
ATOM     25  C   LIG    1        2.431   1.142  -0.128  0.00  0.00    +0.020 A 
ATOM     26  C   LIG    1        3.579   1.875  -0.145  0.00  0.00    +0.020 A 
ATOM     27  C   LIG    1        3.541   3.267  -0.127  0.00  0.00    +0.000 A 
ATOM     28  C   LIG    1        2.355   3.936  -0.093  0.00  0.00    +0.030 A 
ATOM     29  C   LIG    1        1.150   3.215  -0.076  0.00  0.00    -0.060 A 
ATOM     30  C   LIG    1       -0.092   3.875  -0.042  0.00  0.00    +0.050 A 
ATOM     31  C   LIG    1       -1.243   3.153  -0.025  0.00  0.00    -0.010 A 
ENDBRANCH  21  22
ENDBRANCH  20  21
ENDBRANCH   2  20
TORSDOF 7
