REMARK  Name = ZINCqH000000135W.0
REMARK                            x       y       z     vdW  Elec       q    Type
REMARK                         _______ _______ _______ _____ _____    ______ ____
ROOT
ATOM      1  C   LIG    1       -4.006  -3.801   1.565  0.00  0.00    +0.470 C 
ATOM      2  O   LIG    1       -4.648  -4.173   0.611  0.00  0.00    -0.500 OA
ENDROOT
BRANCH   1   3
ATOM      3  C   LIG    1       -4.488  -4.103   2.961  0.00  0.00    +0.030 C 
ATOM      4  C   LIG    1       -3.440  -4.946   3.693  0.00  0.00    +0.060 C 
ATOM      5  C   LIG    1       -3.961  -5.301   5.087  0.00  0.00    +0.200 C 
ATOM      6  N   LIG    1       -5.219  -6.048   4.966  0.00  0.00    -0.470 N 
ATOM      7  C   LIG    1       -6.255  -5.241   4.308  0.00  0.00    +0.230 C 
ATOM      8  C   LIG    1       -5.803  -4.885   2.890  0.00  0.00    +0.050 C 
BRANCH   6   9
ATOM      9  C   LIG    1       -5.653  -6.499   6.207  0.00  0.00    +0.270 A 
ATOM     10  C   LIG    1       -4.816  -7.285   6.996  0.00  0.00    +0.210 A 
ATOM     11  N   LIG    1       -5.231  -7.711   8.174  0.00  0.00    -0.420 NA
ATOM     12  C   LIG    1       -6.439  -7.392   8.605  0.00  0.00    +0.180 A 
ATOM     13  C   LIG    1       -7.273  -6.613   7.826  0.00  0.00    +0.250 A 
ATOM     14  N   LIG    1       -6.863  -6.178   6.646  0.00  0.00    -0.480 NA
ENDBRANCH   6   9
ENDBRANCH   1   3
BRANCH   1  15
ATOM     15  O   LIG    1       -2.865  -3.119   1.382  0.00  0.00    -0.350 OA
BRANCH  15  16
ATOM     16  C   LIG    1       -2.462  -2.865   0.011  0.00  0.00    +0.270 C 
BRANCH  16  21
ATOM     17  C   LIG    1        0.002  -0.004   0.002  0.00  0.00    -0.070 A 
ATOM     18  C   LIG    1        1.208  -0.679  -0.013  0.00  0.00    +0.020 A 
ATOM     19  C   LIG    1        1.227  -2.061  -0.020  0.00  0.00    +0.010 A 
ATOM     20  C   LIG    1        0.040  -2.768  -0.012  0.00  0.00    +0.020 A 
ATOM     21  C   LIG    1       -1.167  -2.094   0.002  0.00  0.00    -0.100 A 
ATOM     22  C   LIG    1       -1.186  -0.712   0.015  0.00  0.00    +0.030 A 
BRANCH  17  24
ATOM     23  C   LIG    1        1.417   2.032  -0.001  0.00  0.00    +0.030 C 
ATOM     24  C   LIG    1       -0.018   1.503   0.010  0.00  0.00    -0.030 C 
ATOM     25  C   LIG    1       -0.735   1.996   1.269  0.00  0.00    +0.040 C 
ATOM     26  C   LIG    1       -0.758   2.010  -1.229  0.00  0.00    +0.040 C 
ENDBRANCH  17  24
ENDBRANCH  16  21
ENDBRANCH  15  16
ENDBRANCH   1  15
TORSDOF 6
