REMARK  Name = ZINCbw0000000Hmv.0
REMARK                            x       y       z     vdW  Elec       q    Type
REMARK                         _______ _______ _______ _____ _____    ______ ____
ROOT
ATOM      1 CL   LIG    1       -2.862   0.685   0.552  0.00  0.00    -0.060 Cl
ATOM      2  C   LIG    1       -2.193   1.400  -0.882  0.00  0.00    -0.050 A 
ATOM      3  C   LIG    1       -3.033   1.865  -1.871  0.00  0.00    +0.030 A 
ATOM      4  C   LIG    1       -2.503   2.434  -3.015  0.00  0.00    +0.010 A 
ATOM      5  C   LIG    1       -1.135   2.538  -3.162  0.00  0.00    +0.030 A 
ATOM      6  C   LIG    1       -0.283   2.075  -2.170  0.00  0.00    -0.120 A 
ATOM      7  C   LIG    1        1.202   2.221  -2.383  0.00  0.00    +0.080 C 
ATOM      8  C   LIG    1        1.954   1.327  -1.394  0.00  0.00    -0.010 C 
ATOM      9  C   LIG    1        1.348   1.548  -0.003  0.00  0.00    +0.230 C 
ATOM     10  N   LIG    1       -0.012   1.005   0.008  0.00  0.00    -0.630 N 
ATOM     11  H   LIG    1        0.002  -0.004   0.002  0.00  0.00    +0.360 HD
ATOM     12  C   LIG    1       -0.807   1.500  -1.026  0.00  0.00    +0.120 A 
ENDROOT
TORSDOF 0
