REMARK  Name = ZINCqH0000034kk8.0
REMARK                            x       y       z     vdW  Elec       q    Type
REMARK                         _______ _______ _______ _____ _____    ______ ____
ROOT
ATOM      1  N   LIG    1       -0.016   1.344   0.009  0.00  0.00    -0.680 N 
ATOM      2  H   LIG    1       -0.910   1.697   0.140  0.00  0.00    +0.410 HD
ATOM      3  C   LIG    1        0.166   0.021  -0.177  0.00  0.00    +0.700 C 
ATOM      4  N   LIG    1       -0.878  -0.824  -0.070  0.00  0.00    -0.620 N 
ATOM      5  O   LIG    1        1.272  -0.409  -0.442  0.00  0.00    -0.540 OA
ENDROOT
BRANCH   1  10
ATOM      6  C   LIG    1        5.307   3.641   0.672  0.00  0.00    +0.250 A 
ATOM      7  N   LIG    1        4.693   2.518   0.897  0.00  0.00    -0.480 NA
ATOM      8  C   LIG    1        3.398   2.639   0.497  0.00  0.00    +0.050 A 
ATOM      9  C   LIG    1        2.302   1.776   0.504  0.00  0.00    +0.090 A 
ATOM     10  C   LIG    1        1.086   2.209   0.009  0.00  0.00    +0.160 A 
ATOM     11  C   LIG    1        0.950   3.504  -0.484  0.00  0.00    +0.020 A 
ATOM     12  C   LIG    1        2.027   4.365  -0.489  0.00  0.00    +0.070 A 
ATOM     13  C   LIG    1        3.254   3.943  -0.001  0.00  0.00    -0.010 A 
ATOM     14  O   LIG    1        4.464   4.532   0.126  0.00  0.00    -0.210 OA
BRANCH   6  16
ATOM     15  C   LIG    1        7.613   3.532  -0.234  0.00  0.00    +0.060 C 
ATOM     16  C   LIG    1        6.758   3.906   0.979  0.00  0.00    +0.180 C 
ENDBRANCH   6  16
ENDBRANCH   1  10
BRANCH   4  17
ATOM     17  C   LIG    1       -0.681  -2.262  -0.273  0.00  0.00    +0.390 C 
BRANCH  17  18
ATOM     18  C   LIG    1       -0.342  -2.913   1.044  0.00  0.00    +0.100 A 
ATOM     19  C   LIG    1       -1.347  -3.485   1.801  0.00  0.00    -0.030 A 
ATOM     20  C   LIG    1       -1.024  -4.086   3.008  0.00  0.00    +0.050 A 
ATOM     21  C   LIG    1        0.301  -4.079   3.415  0.00  0.00    -0.030 A 
ATOM     22  C   LIG    1        1.251  -3.483   2.607  0.00  0.00    +0.260 A 
ATOM     23  N   LIG    1        0.908  -2.925   1.462  0.00  0.00    -0.450 NA
ENDBRANCH  17  18
ENDBRANCH   4  17
BRANCH   4  24
ATOM     24  C   LIG    1       -2.211  -0.306   0.250  0.00  0.00    +0.300 C 
BRANCH  24  25
ATOM     25  C   LIG    1       -2.950   0.035  -1.046  0.00  0.00    +0.180 C 
BRANCH  25  26
ATOM     26  C   LIG    1       -4.288   0.556  -0.725  0.00  0.00    +0.200 C 
ATOM     27  N   LIG    1       -5.322   0.958  -0.477  0.00  0.00    -0.420 NA
ENDBRANCH  25  26
ENDBRANCH  24  25
ENDBRANCH   4  24
TORSDOF 7
