REMARK  Name = ZINCkj000005f3ca.0
REMARK                            x       y       z     vdW  Elec       q    Type
REMARK                         _______ _______ _______ _____ _____    ______ ____
ROOT
ATOM      1  C   LIG    1        7.396  -1.848   4.532  0.00  0.00    +0.160 C 
ATOM      2  C   LIG    1        7.816  -2.347   3.147  0.00  0.00    +0.080 C 
ATOM      3  C   LIG    1        7.421  -1.308   2.095  0.00  0.00    +0.260 C 
ATOM      4  N   LIG    1        5.967  -1.107   2.123  0.00  0.00    -0.380 N 
ATOM      5  C   LIG    1        5.565  -0.561   3.425  0.00  0.00    +0.260 C 
ATOM      6  H   LIG    1        5.503  -1.991   1.974  0.00  0.00    +0.430 HD
ATOM      7  C   LIG    1        5.889  -1.571   4.528  0.00  0.00    +0.040 C 
ENDROOT
BRANCH   1   8
ATOM      8  O   LIG    1        7.695  -2.845   5.511  0.00  0.00    -0.370 OA
BRANCH   8   9
ATOM      9  C   LIG    1        7.995  -2.319   6.805  0.00  0.00    +0.170 C 
BRANCH   9  11
ATOM     10  C   LIG    1        8.741  -2.903   9.117  0.00  0.00    +0.040 C 
ATOM     11  C   LIG    1        8.299  -3.470   7.766  0.00  0.00    -0.020 C 
ATOM     12  C   LIG    1        7.041  -4.320   7.957  0.00  0.00    +0.020 C 
ENDBRANCH   9  11
ENDBRANCH   8   9
ENDBRANCH   1   8
BRANCH   4  13
ATOM     13  C   LIG    1        5.583  -0.169   1.061  0.00  0.00    +0.240 C 
BRANCH  13  14
ATOM     14  C   LIG    1        5.854  -0.805  -0.304  0.00  0.00    +0.210 C 
BRANCH  14  15
ATOM     15  O   LIG    1        5.079  -1.998  -0.436  0.00  0.00    -0.540 OA
ATOM     16  H   LIG    1        4.125  -1.856  -0.372  0.00  0.00    +0.390 HD
ENDBRANCH  14  15
BRANCH  14  17
ATOM     17  C   LIG    1        5.469   0.179  -1.411  0.00  0.00    +0.320 C 
BRANCH  17  18
ATOM     18  N   LIG    1        5.839  -0.382  -2.713  0.00  0.00    -0.380 N 
ATOM     19  C   LIG    1        5.012  -0.560  -3.764  0.00  0.00    +0.240 A 
ATOM     20  C   LIG    1        5.737  -1.101  -4.771  0.00  0.00    -0.110 A 
ATOM     21  C   LIG    1        7.051  -1.258  -4.320  0.00  0.00    +0.250 A 
ATOM     22  N   LIG    1        7.114  -0.827  -3.086  0.00  0.00    -0.300 NA
ENDBRANCH  17  18
ENDBRANCH  14  17
ENDBRANCH  13  14
ENDBRANCH   4  13
TORSDOF 8
