REMARK  Name = ZINCrD0000049hiR.1
REMARK                            x       y       z     vdW  Elec       q    Type
REMARK                         _______ _______ _______ _____ _____    ______ ____
ROOT
ATOM      1  O   LIG    1       -1.278   2.833   0.198  0.00  0.00    -0.520 OA
ATOM      2  C   LIG    1       -1.181   1.626   0.128  0.00  0.00    +0.520 C 
ATOM      3  N   LIG    1        0.029   1.054  -0.032  0.00  0.00    -0.670 N 
ATOM      4  H   LIG    1        0.100   0.095  -0.157  0.00  0.00    +0.410 HD
ENDROOT
BRANCH   3   5
ATOM      5  C   LIG    1        1.184   1.847  -0.023  0.00  0.00    +0.120 A 
ATOM      6  C   LIG    1        1.156   3.122  -0.573  0.00  0.00    +0.040 A 
ATOM      7  C   LIG    1        2.293   3.905  -0.560  0.00  0.00    +0.040 A 
ATOM      8  C   LIG    1        3.468   3.413  -0.006  0.00  0.00    +0.150 A 
ATOM      9  C   LIG    1        3.497   2.136   0.540  0.00  0.00    +0.000 A 
ATOM     10  C   LIG    1        2.359   1.356   0.531  0.00  0.00    +0.010 A 
BRANCH   8  11
ATOM     11  N   LIG    1        4.622   4.205   0.003  0.00  0.00    -0.640 N 
ATOM     12  H   LIG    1        5.257   4.129   0.733  0.00  0.00    +0.420 HD
BRANCH  11  13
ATOM     13  C   LIG    1        4.858   5.097  -1.030  0.00  0.00    +0.560 A 
ATOM     14  N   LIG    1        4.041   5.110  -2.073  0.00  0.00    -0.550 NA
ATOM     15  C   LIG    1        4.235   5.953  -3.074  0.00  0.00    +0.360 A 
ATOM     16  C   LIG    1        5.315   6.821  -3.027  0.00  0.00    -0.130 A 
ATOM     17  C   LIG    1        6.153   6.777  -1.924  0.00  0.00    +0.360 A 
ATOM     18  N   LIG    1        5.899   5.913  -0.954  0.00  0.00    -0.560 NA
ENDBRANCH  11  13
ENDBRANCH   8  11
ENDBRANCH   3   5
BRANCH   2  19
ATOM     19  C   LIG    1       -2.415   0.765   0.220  0.00  0.00    +0.070 C 
BRANCH  19  20
ATOM     20  C   LIG    1       -3.646   1.655   0.398  0.00  0.00    +0.160 C 
BRANCH  20  21
ATOM     21  C   LIG    1       -4.880   0.794   0.490  0.00  0.00    +0.080 A 
ATOM     22  N   LIG    1       -5.628   0.410  -0.516  0.00  0.00    -0.290 NA
ATOM     23  N   LIG    1       -6.673  -0.378  -0.011  0.00  0.00    -0.470 N 
ATOM     24  H   LIG    1       -7.376  -0.796  -0.532  0.00  0.00    +0.440 HD
ATOM     25  C   LIG    1       -6.529  -0.446   1.323  0.00  0.00    +0.090 A 
ATOM     26  C   LIG    1       -7.401  -1.173   2.315  0.00  0.00    +0.110 C 
ATOM     27  C   LIG    1       -6.626  -1.310   3.631  0.00  0.00    +0.030 C 
ATOM     28  C   LIG    1       -6.058   0.053   4.035  0.00  0.00    +0.010 C 
ATOM     29  C   LIG    1       -4.928   0.443   3.073  0.00  0.00    +0.100 C 
ATOM     30  C   LIG    1       -5.427   0.272   1.660  0.00  0.00    -0.230 A 
ENDBRANCH  20  21
ENDBRANCH  19  20
ENDBRANCH   2  19
TORSDOF 6
