REMARK  Name = ZINCrD0000049hiR.0
REMARK                            x       y       z     vdW  Elec       q    Type
REMARK                         _______ _______ _______ _____ _____    ______ ____
ROOT
ATOM      1  O   LIG    1       -5.222   5.451   3.375  0.00  0.00    -0.520 OA
ATOM      2  C   LIG    1       -5.567   4.333   3.056  0.00  0.00    +0.510 C 
ATOM      3  N   LIG    1       -6.871   3.993   3.096  0.00  0.00    -0.670 N 
ATOM      4  H   LIG    1       -7.155   3.123   2.776  0.00  0.00    +0.410 HD
ENDROOT
BRANCH   3   5
ATOM      5  C   LIG    1       -7.815   4.896   3.601  0.00  0.00    +0.120 A 
ATOM      6  C   LIG    1       -8.910   4.429   4.317  0.00  0.00    +0.010 A 
ATOM      7  C   LIG    1       -9.837   5.320   4.819  0.00  0.00    +0.040 A 
ATOM      8  C   LIG    1       -9.682   6.682   4.599  0.00  0.00    +0.150 A 
ATOM      9  C   LIG    1       -8.590   7.149   3.878  0.00  0.00    +0.000 A 
ATOM     10  C   LIG    1       -7.659   6.259   3.381  0.00  0.00    +0.040 A 
BRANCH   8  11
ATOM     11  N   LIG    1      -10.625   7.585   5.104  0.00  0.00    -0.640 N 
ATOM     12  H   LIG    1      -10.347   8.470   5.386  0.00  0.00    +0.420 HD
BRANCH  11  13
ATOM     13  C   LIG    1      -11.956   7.214   5.199  0.00  0.00    +0.560 A 
ATOM     14  N   LIG    1      -12.339   6.045   4.708  0.00  0.00    -0.560 NA
ATOM     15  C   LIG    1      -13.601   5.659   4.787  0.00  0.00    +0.360 A 
ATOM     16  C   LIG    1      -14.529   6.498   5.384  0.00  0.00    -0.130 A 
ATOM     17  C   LIG    1      -14.095   7.716   5.883  0.00  0.00    +0.360 A 
ATOM     18  N   LIG    1      -12.818   8.040   5.776  0.00  0.00    -0.560 NA
ENDBRANCH  11  13
ENDBRANCH   8  11
ENDBRANCH   3   5
BRANCH   2  19
ATOM     19  C   LIG    1       -4.539   3.324   2.614  0.00  0.00    +0.070 C 
BRANCH  19  20
ATOM     20  C   LIG    1       -3.148   3.960   2.659  0.00  0.00    +0.150 C 
BRANCH  20  21
ATOM     21  C   LIG    1       -2.120   2.951   2.217  0.00  0.00    +0.090 A 
ATOM     22  C   LIG    1       -1.763   2.683   0.947  0.00  0.00    -0.230 A 
ATOM     23  C   LIG    1       -2.285   3.308  -0.323  0.00  0.00    +0.100 C 
ATOM     24  C   LIG    1       -1.301   2.988  -1.454  0.00  0.00    +0.010 C 
ATOM     25  C   LIG    1       -1.006   1.486  -1.473  0.00  0.00    +0.020 C 
ATOM     26  C   LIG    1       -0.134   1.114  -0.268  0.00  0.00    +0.120 C 
ATOM     27  C   LIG    1       -0.777   1.682   0.974  0.00  0.00    +0.080 A 
ATOM     28  N   LIG    1       -0.553   1.365   2.216  0.00  0.00    -0.290 NA
ATOM     29  N   LIG    1       -1.388   2.151   3.025  0.00  0.00    -0.480 N 
ATOM     30  H   LIG    1       -1.432   2.125   3.994  0.00  0.00    +0.440 HD
ENDBRANCH  20  21
ENDBRANCH  19  20
ENDBRANCH   2  19
TORSDOF 6
