REMARK  Name = ZINCpk000004ATba.0
REMARK                            x       y       z     vdW  Elec       q    Type
REMARK                         _______ _______ _______ _____ _____    ______ ____
ROOT
ATOM      1  C   LIG    1        0.348  -6.387  -0.017  0.00  0.00    +0.560 C 
ATOM      2  N   LIG    1        0.230  -7.059   1.146  0.00  0.00    -0.720 N 
ATOM      3  H   LIG    1        0.308  -6.585   1.989  0.00  0.00    +0.400 HD
ATOM      4  O   LIG    1        0.249  -6.980  -1.074  0.00  0.00    -0.530 OA
ENDROOT
BRANCH   2   5
ATOM      5  C   LIG    1       -0.017  -8.502   1.136  0.00  0.00    +0.240 C 
ATOM      6  C   LIG    1        1.315  -9.294   1.047  0.00  0.00    +0.030 C 
ATOM      7  C   LIG    1        0.962 -10.639   1.715  0.00  0.00    +0.260 C 
ATOM      8  N   LIG    1       -0.203 -10.405   2.581  0.00  0.00    -0.620 N 
ATOM      9  C   LIG    1       -0.829 -11.339   3.324  0.00  0.00    +0.540 C 
ATOM     10  O   LIG    1       -1.724 -11.015   4.076  0.00  0.00    -0.530 OA
ATOM     11  C   LIG    1       -0.572  -8.980   2.501  0.00  0.00    +0.260 C 
BRANCH   9  12
ATOM     12  C   LIG    1       -0.419 -12.785   3.220  0.00  0.00    -0.020 C 
ATOM     13  C   LIG    1       -1.161 -13.444   2.056  0.00  0.00    +0.050 C 
ATOM     14  C   LIG    1       -0.767 -13.509   4.523  0.00  0.00    +0.060 C 
ENDBRANCH   9  12
ENDBRANCH   2   5
BRANCH   1  18
ATOM     15  C   LIG    1        1.062  -2.200   0.011  0.00  0.00    -0.080 A 
ATOM     16  C   LIG    1        0.947  -2.887   1.206  0.00  0.00    +0.020 A 
ATOM     17  C   LIG    1        0.710  -4.246   1.204  0.00  0.00    +0.040 A 
ATOM     18  C   LIG    1        0.597  -4.930  -0.007  0.00  0.00    -0.130 A 
ATOM     19  C   LIG    1        0.720  -4.232  -1.210  0.00  0.00    +0.080 A 
ATOM     20  C   LIG    1        0.952  -2.872  -1.194  0.00  0.00    +0.020 A 
BRANCH  15  21
ATOM     21  C   LIG    1        1.316  -0.715   0.021  0.00  0.00    +0.320 C 
BRANCH  21  23
ATOM     22  C   LIG    1        0.017   1.347   0.028  0.00  0.00    +0.540 C 
ATOM     23  N   LIG    1        0.036  -0.001   0.020  0.00  0.00    -0.720 N 
ATOM     24  H   LIG    1       -0.796  -0.498   0.013  0.00  0.00    +0.400 HD
ATOM     25  O   LIG    1        1.061   1.970   0.036  0.00  0.00    -0.540 OA
BRANCH  22  27
ATOM     26  C   LIG    1       -1.287   3.393   0.028  0.00  0.00    +0.150 C 
ATOM     27  C   LIG    1       -1.268   2.063   0.020  0.00  0.00    -0.090 C 
ENDBRANCH  22  27
ENDBRANCH  21  23
ENDBRANCH  15  21
ENDBRANCH   1  18
TORSDOF 6
