REMARK  Name = ZINCvU00000008Oz.0
REMARK                            x       y       z     vdW  Elec       q    Type
REMARK                         _______ _______ _______ _____ _____    ______ ____
ROOT
ATOM      1  C   LIG    1        1.180   2.557  -0.048  0.00  0.00    -0.080 A 
ATOM      2  C   LIG    1        2.489   2.071  -0.107  0.00  0.00    +0.030 A 
ATOM      3  C   LIG    1        2.716   0.712  -0.164  0.00  0.00    +0.030 A 
ATOM      4  C   LIG    1        1.652  -0.176  -0.162  0.00  0.00    +0.030 A 
ATOM      5  C   LIG    1        0.354   0.288  -0.103  0.00  0.00    +0.070 A 
ATOM      6  C   LIG    1        0.105   1.654  -0.046  0.00  0.00    -0.100 A 
ENDROOT
BRANCH   1   9
ATOM      7  N   LIG    1        1.966   4.871   0.010  0.00  0.00    -0.730 N 
ATOM      8  H   LIG    1        2.876   4.537  -0.031  0.00  0.00    +0.400 HD
ATOM      9  C   LIG    1        0.930   4.008   0.012  0.00  0.00    +0.550 C 
ATOM     10  O   LIG    1       -0.210   4.427   0.063  0.00  0.00    -0.510 OA
BRANCH   7  11
ATOM     11  C   LIG    1        1.718   6.314   0.069  0.00  0.00    +0.270 C 
BRANCH  11  12
ATOM     12  C   LIG    1        3.052   7.062   0.053  0.00  0.00    +0.070 C 
BRANCH  12  16
ATOM     13  C   LIG    1        2.328  11.270   0.227  0.00  0.00    +0.130 A 
ATOM     14  C   LIG    1        2.484  10.543   1.398  0.00  0.00    -0.020 A 
ATOM     15  C   LIG    1        2.718   9.183   1.339  0.00  0.00    +0.060 A 
ATOM     16  C   LIG    1        2.797   8.546   0.115  0.00  0.00    -0.120 A 
ATOM     17  C   LIG    1        2.647   9.269  -1.054  0.00  0.00    +0.060 A 
ATOM     18  C   LIG    1        2.407  10.629  -1.000  0.00  0.00    -0.080 A 
BRANCH  13  20
ATOM     19  C   LIG    1        1.948  13.293  -0.963  0.00  0.00    +0.250 C 
ATOM     20  O   LIG    1        2.099  12.608   0.282  0.00  0.00    -0.320 OA
ENDBRANCH  13  20
ENDBRANCH  12  16
ENDBRANCH  11  12
ENDBRANCH   7  11
ENDBRANCH   1   9
BRANCH   6  21
ATOM     21  S   LIG    1       -1.552   2.250   0.022  0.00  0.00    +0.140 S 
BRANCH  21  22
ATOM     22  C   LIG    1       -1.662   2.654   1.733  0.00  0.00    +0.220 A 
ATOM     23  C   LIG    1       -2.820   3.290   2.251  0.00  0.00    -0.160 A 
ATOM     24  C   LIG    1       -2.843   3.577   3.618  0.00  0.00    +0.100 A 
ATOM     25  S   LIG    1       -4.366   4.350   4.033  0.00  0.00    +0.170 S 
ATOM     26  C   LIG    1       -4.930   4.281   2.374  0.00  0.00    -0.170 A 
ATOM     27  C   LIG    1       -6.268   4.797   1.910  0.00  0.00    +0.150 C 
ATOM     28  N   LIG    1       -1.783   3.253   4.370  0.00  0.00    -0.500 NA
ATOM     29  C   LIG    1       -0.732   2.669   3.842  0.00  0.00    +0.520 A 
ATOM     30  C   LIG    1       -4.039   3.711   1.586  0.00  0.00    -0.070 A 
ATOM     31  C   LIG    1       -4.269   3.512   0.110  0.00  0.00    +0.130 C 
ATOM     32  N   LIG    1       -0.663   2.372   2.557  0.00  0.00    -0.530 NA
ENDBRANCH  21  22
ENDBRANCH   6  21
TORSDOF 7
