REMARK  Name = ZINCqH0000007edu.0
REMARK                            x       y       z     vdW  Elec       q    Type
REMARK                         _______ _______ _______ _____ _____    ______ ____
ROOT
ATOM      1  C   LIG    1        3.497   4.047  -1.140  0.00  0.00    +0.180 A 
ATOM      2  N   LIG    1        3.038   5.107  -1.737  0.00  0.00    -0.380 NA
ATOM      3  O   LIG    1        3.313   5.075  -2.918  0.00  0.00    +0.090 OA
ATOM      4  C   LIG    1        3.994   3.958  -3.195  0.00  0.00    +0.190 A 
ATOM      5  N   LIG    1        4.120   3.300  -2.068  0.00  0.00    -0.470 NA
ENDROOT
BRANCH   4   6
ATOM      6  C   LIG    1        4.521   3.539  -4.543  0.00  0.00    +0.270 C 
ATOM      7  C   LIG    1        3.359   3.067  -5.420  0.00  0.00    +0.080 C 
BRANCH   6   8
ATOM      8  N   LIG    1        5.187   4.680  -5.185  0.00  0.00    -0.520 NA
ATOM      9  C   LIG    1        6.225   5.246  -4.308  0.00  0.00    +0.220 C 
ATOM     10  C   LIG    1        7.149   4.115  -3.858  0.00  0.00    +0.040 C 
ATOM     11  C   LIG    1        7.609   3.319  -5.052  0.00  0.00    -0.080 A 
ATOM     12  C   LIG    1        8.711   2.490  -4.910  0.00  0.00    +0.000 A 
ATOM     13  C   LIG    1        9.162   1.741  -5.979  0.00  0.00    +0.000 A 
ATOM     14  C   LIG    1        8.513   1.818  -7.196  0.00  0.00    +0.000 A 
ATOM     15  C   LIG    1        7.416   2.645  -7.339  0.00  0.00    +0.010 A 
ATOM     16  C   LIG    1        6.963   3.399  -6.267  0.00  0.00    -0.120 A 
ATOM     17  C   LIG    1        5.768   4.293  -6.474  0.00  0.00    +0.290 C 
ENDBRANCH   6   8
ENDBRANCH   4   6
BRANCH   1  18
ATOM     18  C   LIG    1        3.360   3.720   0.325  0.00  0.00    +0.230 C 
BRANCH  18  22
ATOM     19  C   LIG    1       -0.229   1.488   0.953  0.00  0.00    +0.130 A 
ATOM     20  C   LIG    1        0.961   0.828   0.683  0.00  0.00    -0.020 A 
ATOM     21  C   LIG    1        2.119   1.552   0.478  0.00  0.00    +0.070 A 
ATOM     22  C   LIG    1        2.095   2.933   0.548  0.00  0.00    -0.130 A 
ATOM     23  C   LIG    1        0.911   3.592   0.822  0.00  0.00    +0.070 A 
ATOM     24  C   LIG    1       -0.251   2.873   1.027  0.00  0.00    -0.080 A 
BRANCH  19  26
ATOM     25  C   LIG    1       -2.560   1.524   1.423  0.00  0.00    +0.250 C 
ATOM     26  O   LIG    1       -1.372   0.778   1.149  0.00  0.00    -0.320 OA
ENDBRANCH  19  26
ENDBRANCH  18  22
ENDBRANCH   1  18
TORSDOF 5
