REMARK  Name = ZINCb70000002DhS.0
REMARK                            x       y       z     vdW  Elec       q    Type
REMARK                         _______ _______ _______ _____ _____    ______ ____
ROOT
ATOM      1  C   LIG    1       -0.686   3.105   1.326  0.00  0.00    -0.010 C 
ATOM      2  C   LIG    1       -0.733   1.581   1.264  0.00  0.00    +0.070 C 
ATOM      3  C   LIG    1       -0.013   1.086   0.008  0.00  0.00    -0.330 C 
ATOM      4  S   LIG    1       -0.896   1.690  -1.460  0.00  0.00    +2.420 S 
ATOM      5  C   LIG    1       -0.945   3.477  -1.136  0.00  0.00    -0.330 C 
ATOM      6  O   LIG    1       -2.224   1.184  -1.432  0.00  0.00    -0.930 OA
ATOM      7  O   LIG    1       -0.087   1.457  -2.605  0.00  0.00    -0.930 OA
ATOM      8  C   LIG    1       -1.567   3.717   0.241  0.00  0.00    +0.070 C 
ENDROOT
BRANCH   1   9
ATOM      9  C   LIG    1       -1.180   3.569   2.698  0.00  0.00    +0.050 C 
BRANCH   9  10
ATOM     10  C   LIG    1       -0.226   3.061   3.781  0.00  0.00    +0.260 C 
BRANCH  10  11
ATOM     11  N   LIG    1       -0.701   3.506   5.098  0.00  0.00    -0.640 N 
ATOM     12  H   LIG    1       -1.625   3.138   5.265  0.00  0.00    +0.440 HD
ATOM     13  H   LIG    1       -0.730   4.514   5.122  0.00  0.00    +0.440 HD
ATOM     14  H   LIG    1       -0.072   3.171   5.813  0.00  0.00    +0.440 HD
ENDBRANCH  10  11
ENDBRANCH   9  10
ENDBRANCH   1   9
TORSDOF 3
