REMARK  Name = ZINCqH0000000qEu.0
REMARK                            x       y       z     vdW  Elec       q    Type
REMARK                         _______ _______ _______ _____ _____    ______ ____
ROOT
ATOM      1  C   LIG    1       -4.612   0.451  -1.232  0.00  0.00    +0.240 A 
ATOM      2  N   LIG    1       -5.857   0.786  -1.366  0.00  0.00    -0.500 NA
ATOM      3  C   LIG    1       -6.660  -0.104  -1.918  0.00  0.00    +0.110 A 
ATOM      4  C   LIG    1       -6.067  -1.250  -2.258  0.00  0.00    -0.130 A 
ATOM      5  S   LIG    1       -4.362  -1.131  -1.829  0.00  0.00    +0.240 S 
ENDROOT
BRANCH   3   6
ATOM      6  C   LIG    1       -8.128   0.150  -2.140  0.00  0.00    +0.020 C 
ATOM      7  C   LIG    1       -8.380   0.416  -3.626  0.00  0.00    +0.020 C 
ATOM      8  C   LIG    1       -9.871   0.674  -3.852  0.00  0.00    -0.020 C 
ATOM      9  C   LIG    1      -10.674  -0.551  -3.410  0.00  0.00    +0.010 C 
ATOM     10  C   LIG    1      -10.422  -0.817  -1.924  0.00  0.00    -0.020 C 
ATOM     11  C   LIG    1      -10.858   0.401  -1.107  0.00  0.00    +0.010 C 
ATOM     12  C   LIG    1      -10.056   1.626  -1.549  0.00  0.00    -0.020 C 
ATOM     13  C   LIG    1      -10.308   1.892  -3.035  0.00  0.00    +0.010 C 
ATOM     14  C   LIG    1       -8.931  -1.075  -1.698  0.00  0.00    +0.020 C 
ATOM     15  C   LIG    1       -8.565   1.367  -1.323  0.00  0.00    +0.040 C 
ENDBRANCH   3   6
BRANCH   1  17
ATOM     16  C   LIG    1       -2.360   0.806  -0.583  0.00  0.00    +0.510 C 
ATOM     17  N   LIG    1       -3.625   1.258  -0.678  0.00  0.00    -0.620 N 
ATOM     18  H   LIG    1       -3.848   2.147  -0.361  0.00  0.00    +0.430 HD
ATOM     19  O   LIG    1       -2.081  -0.306  -0.980  0.00  0.00    -0.500 OA
BRANCH  16  20
ATOM     20  C   LIG    1       -1.290   1.681   0.017  0.00  0.00    +0.260 C 
BRANCH  20  23
ATOM     21  C   LIG    1        2.462   0.920  -0.017  0.00  0.00    +0.110 C 
ATOM     22  C   LIG    1        1.147   1.655   0.000  0.00  0.00    +0.520 C 
ATOM     23  N   LIG    1       -0.011   0.966   0.007  0.00  0.00    -0.710 N 
ATOM     24  H   LIG    1        0.002  -0.004   0.002  0.00  0.00    +0.410 HD
ATOM     25  O   LIG    1        1.130   2.868   0.007  0.00  0.00    -0.540 OA
ENDBRANCH  20  23
BRANCH  20  26
ATOM     26  C   LIG    1       -1.667   2.032   1.458  0.00  0.00    -0.020 C 
ATOM     27  C   LIG    1       -0.646   3.020   2.026  0.00  0.00    +0.040 C 
ATOM     28  C   LIG    1       -1.673   0.760   2.308  0.00  0.00    +0.030 C 
ENDBRANCH  20  26
ENDBRANCH  16  20
ENDBRANCH   1  17
TORSDOF 5
