REMARK  Name = ZINCrH000004jn53.0
REMARK                            x       y       z     vdW  Elec       q    Type
REMARK                         _______ _______ _______ _____ _____    ______ ____
ROOT
ATOM      1  N   LIG    1        9.995   5.603   1.405  0.00  0.00    -0.510 N 
ATOM      2  C   LIG    1        9.814   5.686   2.740  0.00  0.00    +0.570 A 
ATOM      3  C   LIG    1        8.472   5.430   3.294  0.00  0.00    -0.160 A 
ATOM      4  C   LIG    1        8.229   5.494   4.664  0.00  0.00    +0.130 A 
ATOM      5  C   LIG    1        6.959   5.247   5.143  0.00  0.00    +0.020 A 
ATOM      6  C   LIG    1        5.929   4.939   4.270  0.00  0.00    +0.100 A 
ATOM      7  C   LIG    1        6.157   4.872   2.909  0.00  0.00    +0.000 A 
ATOM      8  C   LIG    1        7.427   5.117   2.410  0.00  0.00    +0.170 A 
ATOM      9  N   LIG    1        7.689   5.058   1.047  0.00  0.00    -0.430 N 
ATOM     10  C   LIG    1        6.909   4.786  -0.041  0.00  0.00    +0.180 A 
ATOM     11  N   LIG    1        7.674   4.874  -1.094  0.00  0.00    -0.220 NA
ATOM     12  N   LIG    1        8.874   5.174  -0.744  0.00  0.00    -0.290 NA
ATOM     13  O   LIG    1       10.744   5.961   3.474  0.00  0.00    -0.490 OA
ATOM     14  C   LIG    1        8.943   5.296   0.563  0.00  0.00    +0.430 A 
ENDROOT
BRANCH   1  16
ATOM     15  C   LIG    1       11.466   7.349   0.528  0.00  0.00    +0.030 C 
ATOM     16  C   LIG    1       11.322   5.857   0.839  0.00  0.00    +0.310 C 
ENDBRANCH   1  16
BRANCH  10  17
ATOM     17  C   LIG    1        5.439   4.455  -0.027  0.00  0.00    +0.350 C 
BRANCH  17  18
ATOM     18  O   LIG    1        4.679   5.663   0.036  0.00  0.00    -0.310 OA
BRANCH  18  19
ATOM     19  C   LIG    1        3.326   5.539   0.056  0.00  0.00    +0.120 A 
ATOM     20  C   LIG    1        2.526   6.671   0.117  0.00  0.00    -0.010 A 
ATOM     21  C   LIG    1        1.150   6.543   0.137  0.00  0.00    +0.050 A 
ATOM     22  C   LIG    1        0.571   5.289   0.097  0.00  0.00    -0.110 A 
ATOM     23  C   LIG    1        1.366   4.159   0.042  0.00  0.00    +0.060 A 
ATOM     24  C   LIG    1        2.742   4.282   0.015  0.00  0.00    -0.080 A 
BRANCH  22  25
ATOM     25  C   LIG    1       -0.930   5.152   0.120  0.00  0.00    +0.030 C 
ATOM     26  C   LIG    1       -1.396   4.439  -1.150  0.00  0.00    +0.030 C 
ATOM     27  C   LIG    1       -1.349   4.338   1.346  0.00  0.00    +0.030 C 
ENDBRANCH  22  25
ENDBRANCH  18  19
ENDBRANCH  17  18
ENDBRANCH  10  17
TORSDOF 5
