REMARK  Name = ZINCkj000005jkVc.0
REMARK                            x       y       z     vdW  Elec       q    Type
REMARK                         _______ _______ _______ _____ _____    ______ ____
ROOT
ATOM      1  C   LIG    1       -4.560   0.416  -1.440  0.00  0.00    +0.110 C 
ATOM      2  C   LIG    1       -3.212   1.135  -1.533  0.00  0.00    +0.150 C 
ATOM      3  C   LIG    1       -2.442   0.947  -0.226  0.00  0.00    +0.330 C 
ATOM      4  N   LIG    1       -1.213   1.754  -0.283  0.00  0.00    -0.630 N 
ATOM      5  C   LIG    1       -1.329   3.167  -0.674  0.00  0.00    +0.310 C 
ATOM      6  C   LIG    1       -2.151   3.249  -1.965  0.00  0.00    +0.270 C 
ATOM      7  C   LIG    1       -0.014   1.211   0.009  0.00  0.00    +0.580 C 
ATOM      8  O   LIG    1        0.076   0.019   0.227  0.00  0.00    -0.500 OA
ATOM      9  N   LIG    1       -3.437   2.567  -1.769  0.00  0.00    -0.510 N 
ATOM     10  H   LIG    1       -4.008   2.685  -2.592  0.00  0.00    +0.430 HD
ATOM     11  H   LIG    1       -3.910   2.967  -0.973  0.00  0.00    +0.430 HD
ENDROOT
BRANCH   7  12
ATOM     12  C   LIG    1        1.191   2.066   0.058  0.00  0.00    -0.110 A 
ATOM     13  C   LIG    1        1.119   3.348   0.604  0.00  0.00    +0.030 A 
ATOM     14  C   LIG    1        2.247   4.142   0.652  0.00  0.00    +0.060 A 
ATOM     15  C   LIG    1        3.448   3.675   0.153  0.00  0.00    +0.040 A 
ATOM     16  C   LIG    1        3.529   2.401  -0.397  0.00  0.00    +0.150 A 
ATOM     17  C   LIG    1        2.404   1.595  -0.446  0.00  0.00    +0.060 A 
BRANCH  16  18
ATOM     18  N   LIG    1        4.751   1.932  -0.902  0.00  0.00    -0.420 N 
ATOM     19  C   LIG    1        5.939   2.615  -0.926  0.00  0.00    +0.120 A 
ATOM     20  C   LIG    1        6.848   1.798  -1.492  0.00  0.00    +0.170 A 
ATOM     21  N   LIG    1        6.234   0.649  -1.813  0.00  0.00    -0.480 NA
ATOM     22  C   LIG    1        4.978   0.717  -1.465  0.00  0.00    +0.400 A 
ENDBRANCH  16  18
ENDBRANCH   7  12
TORSDOF 2
