REMARK  Name = ZINCrD000000AlNk.0
REMARK                            x       y       z     vdW  Elec       q    Type
REMARK                         _______ _______ _______ _____ _____    ______ ____
ROOT
ATOM      1  O   LIG    1        6.320   5.533   3.023  0.00  0.00    -0.490 OA
ATOM      2  C   LIG    1        7.071   5.689   2.083  0.00  0.00    +0.510 C 
ATOM      3  N   LIG    1        6.681   5.332   0.843  0.00  0.00    -0.680 N 
ATOM      4  H   LIG    1        7.307   5.385   0.104  0.00  0.00    +0.410 HD
ENDROOT
BRANCH   3   5
ATOM      5  C   LIG    1        5.373   4.886   0.622  0.00  0.00    +0.150 A 
ATOM      6  C   LIG    1        4.325   5.406   1.369  0.00  0.00    +0.020 A 
ATOM      7  C   LIG    1        3.035   4.963   1.148  0.00  0.00    +0.050 A 
ATOM      8  C   LIG    1        2.788   4.004   0.183  0.00  0.00    -0.100 A 
ATOM      9  C   LIG    1        3.830   3.481  -0.559  0.00  0.00    +0.030 A 
ATOM     10  C   LIG    1        5.121   3.922  -0.346  0.00  0.00    -0.020 A 
BRANCH   8  11
ATOM     11  C   LIG    1        1.379   3.524  -0.055  0.00  0.00    +0.230 C 
BRANCH  11  12
ATOM     12  N   LIG    1        0.742   4.364  -1.078  0.00  0.00    -0.530 NA
ATOM     13  C   LIG    1       -0.540   3.788  -1.509  0.00  0.00    +0.150 C 
ATOM     14  C   LIG    1       -1.197   4.723  -2.528  0.00  0.00    +0.220 C 
ATOM     15  O   LIG    1       -0.301   4.931  -3.623  0.00  0.00    -0.390 OA
ATOM     16  C   LIG    1        0.957   5.492  -3.239  0.00  0.00    +0.220 C 
ATOM     17  C   LIG    1        1.636   4.564  -2.227  0.00  0.00    +0.140 C 
ENDBRANCH  11  12
ENDBRANCH   8  11
ENDBRANCH   3   5
BRANCH   2  18
ATOM     18  C   LIG    1        8.439   6.281   2.301  0.00  0.00    +0.210 C 
BRANCH  18  19
ATOM     19  N   LIG    1        8.620   6.582   3.728  0.00  0.00    -0.510 NA
ATOM     20  C   LIG    1        8.732   5.344   4.519  0.00  0.00    +0.190 C 
ATOM     21  C   LIG    1       10.072   5.408   5.282  0.00  0.00    +0.010 C 
ATOM     22  C   LIG    1       10.379   6.928   5.322  0.00  0.00    +0.040 C 
ATOM     23  C   LIG    1        9.836   7.393   3.948  0.00  0.00    +0.220 C 
BRANCH  23  24
ATOM     24  C   LIG    1        9.489   8.859   3.990  0.00  0.00    -0.170 A 
ATOM     25  C   LIG    1       10.216   9.837   3.447  0.00  0.00    +0.000 A 
ATOM     26  C   LIG    1        9.696  11.110   3.610  0.00  0.00    +0.000 A 
ATOM     27  C   LIG    1        8.551  11.166   4.293  0.00  0.00    -0.070 A 
ATOM     28  S   LIG    1        8.068   9.543   4.768  0.00  0.00    +0.150 S 
ENDBRANCH  23  24
ENDBRANCH  18  19
ENDBRANCH   2  18
TORSDOF 6
