REMARK  Name = ZINCrH00000tj150.0
REMARK                            x       y       z     vdW  Elec       q    Type
REMARK                         _______ _______ _______ _____ _____    ______ ____
ROOT
ATOM      1  C   LIG    1        1.131  -4.930   0.167  0.00  0.00    +0.250 C 
ATOM      2  C   LIG    1        1.977  -4.676  -1.082  0.00  0.00    +0.050 C 
ENDROOT
BRANCH   1   5
ATOM      3  N   LIG    1       -0.093  -2.788  -0.010  0.00  0.00    -0.660 N 
ATOM      4  H   LIG    1        0.762  -2.340  -0.101  0.00  0.00    +0.420 HD
ATOM      5  C   LIG    1       -0.144  -4.132   0.081  0.00  0.00    +0.510 C 
ATOM      6  O   LIG    1       -1.217  -4.699   0.093  0.00  0.00    -0.510 OA
BRANCH   3  13
ATOM      7  C   LIG    1       -1.320  -0.773  -0.555  0.00  0.00    +0.090 A 
ATOM      8  C   LIG    1       -2.494  -0.038  -0.520  0.00  0.00    -0.050 A 
ATOM      9  C   LIG    1       -3.617  -0.558   0.096  0.00  0.00    +0.030 A 
ATOM     10  C   LIG    1       -3.573  -1.811   0.678  0.00  0.00    -0.100 A 
ATOM     11  C   LIG    1       -2.406  -2.551   0.647  0.00  0.00    +0.050 A 
ATOM     12  C   LIG    1       -4.801  -2.372   1.347  0.00  0.00    +0.100 C 
ATOM     13  C   LIG    1       -1.276  -2.038   0.027  0.00  0.00    +0.120 A 
BRANCH   7  15
ATOM     14  C   LIG    1       -0.334   1.038  -1.741  0.00  0.00    +0.250 C 
ATOM     15  O   LIG    1       -0.214  -0.263  -1.161  0.00  0.00    -0.320 OA
ENDBRANCH   7  15
ENDBRANCH   3  13
ENDBRANCH   1   5
BRANCH   1  16
ATOM     16  N   LIG    1        0.809  -6.356   0.257  0.00  0.00    -0.730 N 
ATOM     17  H   LIG    1       -0.031  -6.687  -0.097  0.00  0.00    +0.410 HD
BRANCH  16  18
ATOM     18  C   LIG    1        1.713  -7.241   0.854  0.00  0.00    +0.210 A 
ATOM     19  C   LIG    1        2.919  -6.769   1.355  0.00  0.00    -0.060 A 
ATOM     20  C   LIG    1        3.810  -7.641   1.947  0.00  0.00    +0.030 A 
ATOM     21  C   LIG    1        3.505  -8.993   2.033  0.00  0.00    +0.080 A 
ATOM     22  C   LIG    1        2.301  -9.467   1.527  0.00  0.00    +0.070 A 
ATOM     23  C   LIG    1        1.408  -8.594   0.939  0.00  0.00    -0.040 A 
BRANCH  21  24
ATOM     24  N   LIG    1        4.411  -9.880   2.630  0.00  0.00    -0.670 N 
ATOM     25  H   LIG    1        4.947  -9.591   3.385  0.00  0.00    +0.410 HD
ATOM     26  C   LIG    1        4.539 -11.135   2.155  0.00  0.00    +0.540 C 
ATOM     27  O   LIG    1        3.809 -11.524   1.267  0.00  0.00    -0.520 OA
BRANCH  26  28
ATOM     28  C   LIG    1        5.588 -12.054   2.725  0.00  0.00    -0.070 C 
ATOM     29  C   LIG    1        6.763 -12.431   1.821  0.00  0.00    +0.060 C 
ATOM     30  C   LIG    1        5.683 -13.466   2.143  0.00  0.00    +0.070 C 
ENDBRANCH  26  28
ENDBRANCH  21  24
ENDBRANCH  16  18
ENDBRANCH   1  16
TORSDOF 7
