REMARK  Name = ZINCrD00000F5LpM.0
REMARK                            x       y       z     vdW  Elec       q    Type
REMARK                         _______ _______ _______ _____ _____    ______ ____
ROOT
ATOM      1  C   LIG    1       -4.169   8.619  -0.351  0.00  0.00    +0.260 C 
ATOM      2  C   LIG    1       -3.284   7.583  -0.286  0.00  0.00    -0.300 C 
ATOM      3  S   LIG    1       -1.517   7.656  -0.133  0.00  0.00    +0.100 S 
ATOM      4  C   LIG    1       -1.310   5.895  -0.135  0.00  0.00    +0.440 C 
ATOM      5  N   LIG    1       -2.507   5.370  -0.237  0.00  0.00    -0.600 NA
ATOM      6  C   LIG    1       -3.569   6.143  -0.319  0.00  0.00    +0.530 C 
ATOM      7  O   LIG    1       -4.702   5.697  -0.415  0.00  0.00    -0.420 OA
ENDROOT
BRANCH   1  11
ATOM      8  C   LIG    1       -7.777   8.610  -0.301  0.00  0.00    -0.250 A 
ATOM      9  C   LIG    1       -7.461   7.297  -0.018  0.00  0.00    +0.120 A 
ATOM     10  O   LIG    1       -6.130   7.176  -0.009  0.00  0.00    -0.100 OA
ATOM     11  C   LIG    1       -5.559   8.368  -0.278  0.00  0.00    -0.040 A 
ATOM     12  C   LIG    1       -8.448   6.188   0.238  0.00  0.00    +0.200 C 
ATOM     13  C   LIG    1       -6.547   9.294  -0.462  0.00  0.00    +0.080 A 
BRANCH   8  14
ATOM     14  C   LIG    1       -9.128   9.187  -0.410  0.00  0.00    +0.540 C 
ATOM     15  O   LIG    1      -10.105   8.484  -0.243  0.00  0.00    -0.510 OA
BRANCH  14  17
ATOM     16  C   LIG    1      -10.641  10.996  -0.787  0.00  0.00    +0.260 C 
ATOM     17  O   LIG    1       -9.281  10.496  -0.695  0.00  0.00    -0.350 OA
ENDBRANCH  14  17
ENDBRANCH   8  14
ENDBRANCH   1  11
BRANCH   4  18
ATOM     18  N   LIG    1       -0.117   5.209  -0.042  0.00  0.00    -0.460 N 
ATOM     19  C   LIG    1        1.032   5.880   0.167  0.00  0.00    +0.520 C 
ATOM     20  O   LIG    1        1.008   7.077   0.363  0.00  0.00    -0.480 OA
ATOM     21  C   LIG    1        2.347   5.145   0.156  0.00  0.00    +0.150 C 
BRANCH  18  22
ATOM     22  C   LIG    1       -0.101   3.813  -0.164  0.00  0.00    +0.100 A 
ATOM     23  C   LIG    1       -0.709   3.023   0.803  0.00  0.00    +0.050 A 
ATOM     24  C   LIG    1       -0.691   1.647   0.680  0.00  0.00    +0.020 A 
ATOM     25  C   LIG    1       -0.070   1.057  -0.406  0.00  0.00    +0.030 A 
ATOM     26  C   LIG    1        0.541   1.841  -1.367  0.00  0.00    +0.030 A 
ATOM     27  C   LIG    1        0.522   3.217  -1.252  0.00  0.00    +0.030 A 
ENDBRANCH  18  22
ENDBRANCH   4  18
TORSDOF 5
