REMARK  Name = ZINCrH000004tZU7.0
REMARK                            x       y       z     vdW  Elec       q    Type
REMARK                         _______ _______ _______ _____ _____    ______ ____
ROOT
ATOM      1  C   LIG    1        0.857  -1.027   2.059  0.00  0.00    +0.510 C 
ATOM      2  N   LIG    1        1.101  -0.492   0.847  0.00  0.00    -0.600 N 
ATOM      3  C   LIG    1        2.475  -0.380   0.335  0.00  0.00    +0.280 C 
ATOM      4  C   LIG    1        2.610  -1.277  -0.900  0.00  0.00    +0.120 C 
ATOM      5  C   LIG    1        1.410  -1.067  -1.798  0.00  0.00    -0.170 A 
ATOM      6  C   LIG    1        0.245  -0.509  -1.415  0.00  0.00    -0.110 A 
ATOM      7  C   LIG    1       -0.704  -0.440  -2.430  0.00  0.00    +0.020 A 
ATOM      8  C   LIG    1       -0.323  -0.923  -3.609  0.00  0.00    -0.040 A 
ATOM      9  S   LIG    1        1.327  -1.519  -3.496  0.00  0.00    +0.120 S 
ATOM     10  C   LIG    1        0.002  -0.004   0.002  0.00  0.00    +0.420 C 
ATOM     11  O   LIG    1       -0.283  -1.111   2.466  0.00  0.00    -0.510 OA
ENDROOT
BRANCH  10  12
ATOM     12  C   LIG    1       -0.018   1.503   0.010  0.00  0.00    -0.190 A 
ATOM     13  C   LIG    1       -1.119   2.257   0.019  0.00  0.00    +0.020 A 
ATOM     14  C   LIG    1       -0.890   3.622   0.029  0.00  0.00    +0.010 A 
ATOM     15  C   LIG    1        0.396   3.977   0.018  0.00  0.00    -0.050 A 
ATOM     16  S   LIG    1        1.405   2.536   0.002  0.00  0.00    +0.110 S 
ENDBRANCH  10  12
BRANCH   1  17
ATOM     17  C   LIG    1        1.999  -1.521   2.910  0.00  0.00    +0.350 C 
BRANCH  17  27
ATOM     18  O   LIG    1        1.643  -0.061   5.161  0.00  0.00    -0.520 OA
ATOM     19  C   LIG    1        1.336  -1.238   5.235  0.00  0.00    +0.570 A 
ATOM     20  C   LIG    1        0.818  -1.781   6.452  0.00  0.00    -0.230 A 
ATOM     21  C   LIG    1        0.493  -3.134   6.472  0.00  0.00    +0.070 A 
ATOM     22  S   LIG    1       -0.113  -3.572   8.064  0.00  0.00    +0.200 S 
ATOM     23  C   LIG    1        0.083  -1.936   8.662  0.00  0.00    -0.050 A 
ATOM     24  N   LIG    1        0.669  -3.878   5.359  0.00  0.00    -0.500 NA
ATOM     25  C   LIG    1        1.137  -3.365   4.261  0.00  0.00    +0.600 A 
ATOM     26  C   LIG    1        0.566  -1.139   7.726  0.00  0.00    +0.080 A 
ATOM     27  N   LIG    1        1.475  -2.053   4.170  0.00  0.00    -0.520 N 
ENDBRANCH  17  27
ENDBRANCH   1  17
TORSDOF 3
