REMARK  Name = ZINCrg00000KtHqx.0
REMARK                            x       y       z     vdW  Elec       q    Type
REMARK                         _______ _______ _______ _____ _____    ______ ____
ROOT
ATOM      1  N   LIG    1       -0.432   1.565  -7.357  0.00  0.00    -0.520 NA
ATOM      2  C   LIG    1        0.918   1.180  -7.788  0.00  0.00    +0.200 C 
ENDROOT
BRANCH   1   3
ATOM      3  C   LIG    1       -0.416   2.099  -5.988  0.00  0.00    +0.130 C 
ATOM      4  C   LIG    1       -1.856   2.380  -5.483  0.00  0.00    +0.040 C 
ATOM      5  C   LIG    1       -1.716   2.252  -3.952  0.00  0.00    +0.240 C 
ATOM      6  N   LIG    1       -0.524   1.433  -3.689  0.00  0.00    -0.620 N 
ATOM      7  C   LIG    1       -0.047   1.107  -2.471  0.00  0.00    +0.530 C 
ATOM      8  O   LIG    1        0.949   0.422  -2.373  0.00  0.00    -0.540 OA
ATOM      9  C   LIG    1        0.068   1.032  -4.979  0.00  0.00    +0.280 C 
BRANCH   7  10
ATOM     10  C   LIG    1       -0.753   1.593  -1.232  0.00  0.00    +0.060 C 
BRANCH  10  11
ATOM     11  C   LIG    1       -0.013   1.086   0.008  0.00  0.00    +0.130 C 
BRANCH  11  12
ATOM     12  C   LIG    1       -0.718   1.572   1.248  0.00  0.00    -0.180 A 
ATOM     13  C   LIG    1       -0.478   2.718   1.910  0.00  0.00    +0.160 A 
ATOM     14  O   LIG    1       -1.315   2.787   2.958  0.00  0.00    -0.180 OA
ATOM     15  C   LIG    1       -2.090   1.690   2.984  0.00  0.00    +0.160 A 
ATOM     16  C   LIG    1       -1.755   0.908   1.942  0.00  0.00    -0.060 A 
ENDBRANCH  11  12
ENDBRANCH  10  11
ENDBRANCH   7  10
ENDBRANCH   1   3
BRANCH   1  17
ATOM     17  C   LIG    1       -1.028   2.530  -8.291  0.00  0.00    +0.260 C 
BRANCH  17  20
ATOM     18  C   LIG    1       -0.379   0.862 -11.513  0.00  0.00    +0.640 A 
ATOM     19  N   LIG    1       -0.213   1.448 -10.343  0.00  0.00    -0.590 NA
ATOM     20  C   LIG    1       -1.253   1.865  -9.624  0.00  0.00    +0.240 A 
ATOM     21  C   LIG    1       -2.523   1.685 -10.090  0.00  0.00    -0.180 A 
ATOM     22  C   LIG    1       -2.708   1.066 -11.339  0.00  0.00    +0.540 A 
ATOM     23  O   LIG    1       -3.829   0.893 -11.787  0.00  0.00    -0.540 OA
ATOM     24  N   LIG    1       -1.621   0.661 -12.030  0.00  0.00    -0.650 N 
ATOM     25  H   LIG    1       -1.725   0.228 -12.891  0.00  0.00    +0.410 HD
BRANCH  18  27
ATOM     26  C   LIG    1        2.062   0.659 -11.674  0.00  0.00    +0.330 C 
ATOM     27  N   LIG    1        0.719   0.449 -12.219  0.00  0.00    -0.590 N 
ATOM     28  C   LIG    1        0.550  -0.203 -13.520  0.00  0.00    +0.300 C 
ENDBRANCH  18  27
ENDBRANCH  17  20
ENDBRANCH   1  17
TORSDOF 7
