REMARK  Name = ZINCrg000000rhXA.0
REMARK                            x       y       z     vdW  Elec       q    Type
REMARK                         _______ _______ _______ _____ _____    ______ ____
ROOT
ATOM      1  C   LIG    1       -0.825   1.992  -1.175  0.00  0.00    +0.520 C 
ATOM      2  N   LIG    1       -2.143   1.719  -1.243  0.00  0.00    -0.610 N 
ATOM      3  C   LIG    1       -2.836   1.059  -0.126  0.00  0.00    +0.290 C 
ATOM      4  C   LIG    1       -4.080   1.889   0.227  0.00  0.00    +0.200 C 
ATOM      5  N   LIG    1       -4.893   2.081  -0.981  0.00  0.00    -0.480 N 
ATOM      6  C   LIG    1       -4.165   2.853  -1.996  0.00  0.00    +0.200 C 
ATOM      7  C   LIG    1       -2.925   2.069  -2.438  0.00  0.00    +0.320 C 
ATOM      8  O   LIG    1       -0.287   2.614  -2.067  0.00  0.00    -0.530 OA
ENDROOT
BRANCH   5   9
ATOM      9  C   LIG    1       -6.114   2.686  -0.672  0.00  0.00    +0.110 A 
ATOM     10  C   LIG    1       -6.969   2.113   0.267  0.00  0.00    +0.070 A 
ATOM     11  C   LIG    1       -8.166   2.753   0.543  0.00  0.00    +0.100 A 
ATOM     12  C   LIG    1       -8.476   3.924  -0.124  0.00  0.00    +0.140 A 
ATOM     13  N   LIG    1       -7.647   4.438  -1.011  0.00  0.00    -0.400 NA
ATOM     14  C   LIG    1       -6.496   3.864  -1.300  0.00  0.00    +0.250 A 
BRANCH  12  15
ATOM     15  N   LIG    1       -9.755   4.610   0.163  0.00  0.00    +0.030 N 
ATOM     16  O   LIG    1      -10.527   4.143   0.981  0.00  0.00    -0.160 OA
ATOM     17  O   LIG    1      -10.037   5.642  -0.420  0.00  0.00    -0.120 OA
ENDBRANCH  12  15
ENDBRANCH   5   9
BRANCH   1  19
ATOM     18  C   LIG    1        0.300   0.037  -0.145  0.00  0.00    +0.060 C 
ATOM     19  C   LIG    1       -0.018   1.525   0.010  0.00  0.00    +0.240 C 
BRANCH  19  20
ATOM     20  N   LIG    1        1.231   2.287   0.082  0.00  0.00    -0.720 N 
ATOM     21  H   LIG    1        1.601   2.687  -0.720  0.00  0.00    +0.410 HD
ATOM     22  C   LIG    1        1.865   2.432   1.262  0.00  0.00    +0.600 C 
ATOM     23  O   LIG    1        1.400   1.931   2.268  0.00  0.00    -0.530 OA
BRANCH  22  24
ATOM     24  C   LIG    1        3.121   3.199   1.334  0.00  0.00    -0.240 A 
ATOM     25  C   LIG    1        3.772   3.814   0.305  0.00  0.00    +0.240 A 
ATOM     26  O   LIG    1        4.870   4.400   0.792  0.00  0.00    -0.170 OA
ATOM     27  C   LIG    1        4.981   4.190   2.113  0.00  0.00    +0.170 A 
ATOM     28  C   LIG    1        3.939   3.455   2.529  0.00  0.00    +0.000 A 
ENDBRANCH  22  24
ENDBRANCH  19  20
ENDBRANCH   1  19
TORSDOF 5
