REMARK  Name = ZINCnE000001TAvk.0
REMARK                            x       y       z     vdW  Elec       q    Type
REMARK                         _______ _______ _______ _____ _____    ______ ____
ROOT
ATOM      1  C   LIG    1       -1.335   1.861   0.072  0.00  0.00    +0.030 A 
ATOM      2  C   LIG    1       -2.485   1.157   0.181  0.00  0.00    -0.020 A 
ATOM      3  S   LIG    1       -3.804   2.243   0.225  0.00  0.00    +0.180 S 
ATOM      4  C   LIG    1       -2.706   3.612   0.091  0.00  0.00    +0.080 A 
ATOM      5  N   LIG    1       -1.483   3.178   0.031  0.00  0.00    -0.420 NA
ENDROOT
BRANCH   1  11
ATOM      6  C   LIG    1        3.147   1.579  -1.519  0.00  0.00    -0.110 C 
ATOM      7  C   LIG    1        3.146   3.076  -1.837  0.00  0.00    +0.030 C 
ATOM      8  C   LIG    1        1.704   3.569  -1.979  0.00  0.00    -0.010 C 
ATOM      9  C   LIG    1        0.963   3.354  -0.661  0.00  0.00    +0.270 C 
ATOM     10  N   LIG    1        1.083   1.944  -0.269  0.00  0.00    -0.580 N 
ATOM     11  C   LIG    1       -0.014   1.212   0.009  0.00  0.00    +0.580 C 
ATOM     12  O   LIG    1        0.085   0.015   0.202  0.00  0.00    -0.540 OA
ATOM     13  C   LIG    1        2.422   1.344  -0.190  0.00  0.00    +0.290 C 
BRANCH   6  15
ATOM     14  O   LIG    1        4.789  -0.085  -1.159  0.00  0.00    -0.700 OA
ATOM     15  C   LIG    1        4.567   1.087  -1.412  0.00  0.00    +0.500 C 
ATOM     16  O   LIG    1        5.494   1.861  -1.577  0.00  0.00    -0.690 OA
ENDBRANCH   6  15
ENDBRANCH   1  11
BRANCH   4  17
ATOM     17  C   LIG    1       -3.111   5.034   0.058  0.00  0.00    -0.020 A 
ATOM     18  C   LIG    1       -2.145   6.035  -0.046  0.00  0.00    +0.090 A 
ATOM     19  C   LIG    1       -2.529   7.359  -0.083  0.00  0.00    +0.030 A 
ATOM     20  C   LIG    1       -3.870   7.696  -0.005  0.00  0.00    -0.020 A 
ATOM     21  C   LIG    1       -4.833   6.707   0.104  0.00  0.00    +0.030 A 
ATOM     22 CL   LIG    1       -4.346   9.365  -0.045  0.00  0.00    -0.060 Cl
ATOM     23  C   LIG    1       -4.461   5.379   0.136  0.00  0.00    +0.050 A 
ENDBRANCH   4  17
TORSDOF 3
