REMARK  Name = ZINCrg000000rob3.0
REMARK                            x       y       z     vdW  Elec       q    Type
REMARK                         _______ _______ _______ _____ _____    ______ ____
ROOT
ATOM      1  N   LIG    1       -7.405   4.475  -1.129  0.00  0.00    -0.370 N 
ATOM      2  C   LIG    1       -6.342   5.245  -0.779  0.00  0.00    +0.200 A 
ATOM      3  C   LIG    1       -5.257   4.433  -0.699  0.00  0.00    +0.010 A 
ATOM      4  C   LIG    1       -5.674   3.128  -1.001  0.00  0.00    +0.260 A 
ATOM      5  N   LIG    1       -6.956   3.154  -1.258  0.00  0.00    -0.250 NA
ENDROOT
BRANCH   3   6
ATOM      6  N   LIG    1       -3.948   4.829  -0.366  0.00  0.00    -0.640 N 
ATOM      7  H   LIG    1       -3.757   5.760  -0.172  0.00  0.00    +0.410 HD
ATOM      8  C   LIG    1       -2.959   3.914  -0.316  0.00  0.00    +0.510 C 
ATOM      9  O   LIG    1       -3.197   2.749  -0.559  0.00  0.00    -0.470 OA
BRANCH   8  10
ATOM     10  C   LIG    1       -1.558   4.338   0.040  0.00  0.00    +0.180 C 
ATOM     11  C   LIG    1       -1.061   5.365  -0.979  0.00  0.00    +0.080 C 
ATOM     12  C   LIG    1       -1.554   4.962   1.437  0.00  0.00    +0.070 C 
BRANCH  10  13
ATOM     13  N   LIG    1       -0.675   3.169   0.025  0.00  0.00    -0.370 N 
ATOM     14  C   LIG    1        0.674   3.192   0.013  0.00  0.00    +0.220 A 
ATOM     15  C   LIG    1        1.109   1.911   0.002  0.00  0.00    -0.120 A 
ATOM     16  C   LIG    1       -0.013   1.076   0.008  0.00  0.00    +0.210 A 
ATOM     17  N   LIG    1       -1.083   1.829   0.017  0.00  0.00    -0.240 NA
ENDBRANCH  10  13
ENDBRANCH   8  10
ENDBRANCH   3   6
BRANCH   1  18
ATOM     18  C   LIG    1       -8.778   4.942  -1.331  0.00  0.00    +0.370 C 
BRANCH  18  26
ATOM     19  C   LIG    1      -12.252   5.288  -6.430  0.00  0.00    +0.070 C 
ATOM     20  C   LIG    1      -11.566   5.701  -5.126  0.00  0.00    +0.140 C 
ATOM     21  C   LIG    1      -10.984   4.460  -4.439  0.00  0.00    +0.260 C 
ATOM     22  N   LIG    1      -10.497   4.852  -3.107  0.00  0.00    -0.620 N 
ATOM     23  C   LIG    1      -11.411   5.603  -2.231  0.00  0.00    +0.250 C 
ATOM     24  C   LIG    1      -11.970   6.793  -3.027  0.00  0.00    +0.190 C 
ATOM     25  C   LIG    1      -10.846   7.788  -3.322  0.00  0.00    +0.010 C 
ATOM     26  C   LIG    1       -9.254   4.529  -2.700  0.00  0.00    +0.500 C 
ATOM     27  O   LIG    1       -8.518   3.906  -3.434  0.00  0.00    -0.500 OA
ATOM     28  O   LIG    1      -12.520   6.316  -4.258  0.00  0.00    -0.370 OA
ENDBRANCH  18  26
ENDBRANCH   1  18
TORSDOF 5
