REMARK  Name = ZINCtV00001bB34M.0
REMARK                            x       y       z     vdW  Elec       q    Type
REMARK                         _______ _______ _______ _____ _____    ______ ____
ROOT
ATOM      1  C   LIG    1       -0.292   5.614  -0.753  0.00  0.00    -0.150 C 
ATOM      2  C   LIG    1       -1.377   6.288  -0.235  0.00  0.00    +0.270 C 
ENDROOT
BRANCH   2   3
ATOM      3  C   LIG    1       -1.497   7.735  -0.422  0.00  0.00    -0.160 A 
ATOM      4  C   LIG    1       -0.350   8.543  -0.418  0.00  0.00    +0.080 A 
ATOM      5  C   LIG    1       -0.468   9.892  -0.599  0.00  0.00    -0.080 A 
ATOM      6  C   LIG    1       -1.722  10.466  -0.775  0.00  0.00    +0.160 A 
ATOM      7  C   LIG    1       -2.864   9.671  -0.775  0.00  0.00    -0.020 A 
ATOM      8  C   LIG    1       -2.759   8.320  -0.601  0.00  0.00    +0.110 A 
BRANCH   6   9
ATOM      9  O   LIG    1       -1.833  11.807  -0.949  0.00  0.00    -0.300 OA
BRANCH   9  10
ATOM     10  C   LIG    1       -0.622  12.565  -0.939  0.00  0.00    +0.260 C 
BRANCH  10  11
ATOM     11  C   LIG    1       -0.940  14.024  -1.144  0.00  0.00    -0.090 A 
ATOM     12  C   LIG    1       -0.980  14.549  -2.422  0.00  0.00    +0.040 A 
ATOM     13  C   LIG    1       -1.278  15.886  -2.612  0.00  0.00    +0.030 A 
ATOM     14  C   LIG    1       -1.524  16.700  -1.523  0.00  0.00    +0.040 A 
ATOM     15  C   LIG    1       -1.478  16.176  -0.243  0.00  0.00    -0.040 A 
ATOM     16 CL   LIG    1       -1.788  17.198   1.125  0.00  0.00    -0.060 Cl
ATOM     17  C   LIG    1       -1.186  14.837  -0.054  0.00  0.00    +0.050 A 
ENDBRANCH  10  11
ENDBRANCH   9  10
ENDBRANCH   6   9
ENDBRANCH   2   3
BRANCH   1  18
ATOM     18  C   LIG    1       -0.217   4.149  -0.644  0.00  0.00    +0.580 C 
ATOM     19  N   LIG    1        0.844   3.489  -1.150  0.00  0.00    -0.670 N 
ATOM     20  H   LIG    1        1.596   3.984  -1.510  0.00  0.00    +0.410 HD
ATOM     21  O   LIG    1       -1.112   3.532  -0.096  0.00  0.00    -0.500 OA
BRANCH  19  22
ATOM     22  C   LIG    1        0.860   2.091  -1.157  0.00  0.00    +0.180 A 
ATOM     23  C   LIG    1       -0.334   1.381  -1.143  0.00  0.00    +0.030 A 
ATOM     24  C   LIG    1       -0.314  -0.000  -1.150  0.00  0.00    +0.060 A 
ATOM     25  C   LIG    1        0.891  -0.677  -1.169  0.00  0.00    +0.000 A 
ATOM     26  C   LIG    1        2.082   0.027  -1.183  0.00  0.00    +0.070 A 
ATOM     27  C   LIG    1        2.070   1.408  -1.177  0.00  0.00    -0.140 A 
ATOM     28  I   LIG    1        3.874   2.473  -1.197  0.00  0.00    -0.040 I 
ENDBRANCH  19  22
ENDBRANCH   1  18
BRANCH   1  30
ATOM     29  N   LIG    1        1.596   6.914  -1.908  0.00  0.00    -0.400 NA
ATOM     30  C   LIG    1        0.761   6.339  -1.397  0.00  0.00    +0.240 C 
ENDBRANCH   1  30
TORSDOF 7
