REMARK  Name = ZINCpk00000y6vnA.0
REMARK                            x       y       z     vdW  Elec       q    Type
REMARK                         _______ _______ _______ _____ _____    ______ ____
ROOT
ATOM      1  N   LIG    1       -2.028   1.790   1.358  0.00  0.00    -0.300 N 
ATOM      2  N   LIG    1       -2.362   1.651   2.710  0.00  0.00    -0.270 NA
ATOM      3  C   LIG    1       -1.265   1.610   3.415  0.00  0.00    +0.260 A 
ATOM      4  C   LIG    1       -0.170   1.716   2.528  0.00  0.00    -0.290 A 
ATOM      5  C   LIG    1       -0.688   1.823   1.252  0.00  0.00    +0.160 A 
ATOM      6  C   LIG    1        0.104   1.959  -0.023  0.00  0.00    +0.160 C 
ENDROOT
BRANCH   4   7
ATOM      7  C   LIG    1        1.257   1.713   2.896  0.00  0.00    +0.610 C 
ATOM      8  N   LIG    1        1.619   1.764   4.193  0.00  0.00    -0.610 N 
ATOM      9  C   LIG    1        0.696   1.840   5.340  0.00  0.00    +0.240 C 
ATOM     10  C   LIG    1        1.528   2.483   6.477  0.00  0.00    +0.160 C 
ATOM     11  C   LIG    1        2.925   1.851   6.237  0.00  0.00    +0.060 C 
ATOM     12  C   LIG    1        2.999   1.746   4.699  0.00  0.00    +0.240 C 
ATOM     13  O   LIG    1        2.109   1.665   2.029  0.00  0.00    -0.500 OA
BRANCH  10  14
ATOM     14  O   LIG    1        1.013   2.118   7.759  0.00  0.00    -0.370 OA
ATOM     15  C   LIG    1        0.044   3.031   8.277  0.00  0.00    +0.210 C 
ENDBRANCH  10  14
BRANCH  12  16
ATOM     16  C   LIG    1        3.684   0.438   4.297  0.00  0.00    +0.160 C 
BRANCH  16  17
ATOM     17  O   LIG    1        3.837   0.398   2.877  0.00  0.00    -0.540 OA
ATOM     18  H   LIG    1        4.265  -0.405   2.550  0.00  0.00    +0.370 HD
ENDBRANCH  16  17
ENDBRANCH  12  16
ENDBRANCH   4   7
BRANCH   1  24
ATOM     19  C   LIG    1       -4.023   2.746   0.371  0.00  0.00    +0.150 A 
ATOM     20  C   LIG    1       -4.914   2.831  -0.686  0.00  0.00    -0.060 A 
ATOM     21  C   LIG    1       -4.732   2.046  -1.810  0.00  0.00    +0.070 A 
ATOM     22  C   LIG    1       -3.657   1.179  -1.885  0.00  0.00    +0.000 A 
ATOM     23  C   LIG    1       -2.760   1.093  -0.837  0.00  0.00    +0.060 A 
ATOM     24  C   LIG    1       -2.937   1.877   0.293  0.00  0.00    +0.100 A 
BRANCH  19  26
ATOM     25  C   LIG    1       -5.340   4.380   1.488  0.00  0.00    +0.240 C 
ATOM     26  O   LIG    1       -4.204   3.513   1.478  0.00  0.00    -0.300 OA
ENDBRANCH  19  26
ENDBRANCH   1  24
TORSDOF 6
