REMARK  Name = ZINCqH0000034x2U.0
REMARK                            x       y       z     vdW  Elec       q    Type
REMARK                         _______ _______ _______ _____ _____    ______ ____
ROOT
ATOM      1  N   LIG    1       -2.168   1.304   1.171  0.00  0.00    -0.500 NA
ATOM      2  C   LIG    1       -0.740   1.628   1.314  0.00  0.00    +0.220 C 
ATOM      3  C   LIG    1        0.029   1.119   0.087  0.00  0.00    +0.100 C 
ATOM      4  C   LIG    1       -0.704   1.587  -1.147  0.00  0.00    +0.010 A 
ATOM      5  C   LIG    1       -1.976   2.045  -1.120  0.00  0.00    -0.060 A 
ATOM      6  N   LIG    1       -2.308   2.377  -2.395  0.00  0.00    -0.550 N 
ATOM      7  H   LIG    1       -3.157   2.737  -2.695  0.00  0.00    +0.420 HD
ATOM      8  C   LIG    1       -1.228   2.111  -3.167  0.00  0.00    +0.390 A 
ATOM      9  N   LIG    1       -0.274   1.637  -2.408  0.00  0.00    -0.480 NA
ATOM     10  C   LIG    1       -2.806   2.134   0.134  0.00  0.00    +0.310 C 
ENDROOT
BRANCH  10  11
ATOM     11  C   LIG    1       -4.197   1.623  -0.140  0.00  0.00    -0.070 A 
ATOM     12  C   LIG    1       -5.253   2.035   0.650  0.00  0.00    +0.050 A 
ATOM     13  C   LIG    1       -6.530   1.571   0.396  0.00  0.00    +0.050 A 
ATOM     14  C   LIG    1       -6.749   0.685  -0.643  0.00  0.00    -0.080 A 
ATOM     15  C   LIG    1       -5.691   0.267  -1.430  0.00  0.00    +0.040 A 
ATOM     16 BR   LIG    1       -8.494   0.043  -0.987  0.00  0.00    -0.050 Br
ATOM     17  C   LIG    1       -4.415   0.736  -1.178  0.00  0.00    +0.020 A 
ENDBRANCH  10  11
BRANCH   1  18
ATOM     18  C   LIG    1       -2.358  -0.126   0.892  0.00  0.00    +0.230 C 
BRANCH  18  21
ATOM     19  C   LIG    1       -0.458  -2.119   3.486  0.00  0.00    +0.400 A 
ATOM     20  C   LIG    1       -0.733  -1.387   2.336  0.00  0.00    -0.110 A 
ATOM     21  C   LIG    1       -2.020  -0.926   2.123  0.00  0.00    +0.010 A 
ATOM     22  C   LIG    1       -2.994  -1.223   3.067  0.00  0.00    -0.080 A 
ATOM     23  C   LIG    1       -2.652  -1.960   4.184  0.00  0.00    +0.300 A 
ATOM     24  N   LIG    1       -1.415  -2.382   4.363  0.00  0.00    -0.540 NA
BRANCH  19  26
ATOM     25  C   LIG    1        1.918  -2.206   2.808  0.00  0.00    +0.280 C 
ATOM     26  N   LIG    1        0.832  -2.584   3.715  0.00  0.00    -0.620 N 
ATOM     27  C   LIG    1        1.105  -3.452   4.863  0.00  0.00    +0.290 C 
ENDBRANCH  19  26
ENDBRANCH  18  21
ENDBRANCH   1  18
TORSDOF 4
