REMARK  Name = ZINCpk00000eawwy.0
REMARK                            x       y       z     vdW  Elec       q    Type
REMARK                         _______ _______ _______ _____ _____    ______ ____
ROOT
ATOM      1  N   LIG    1       -0.698   1.558   1.213  0.00  0.00    -0.600 N 
ATOM      2  C   LIG    1       -1.675   0.814   1.769  0.00  0.00    +0.510 C 
ATOM      3  O   LIG    1       -1.986  -0.248   1.271  0.00  0.00    -0.520 OA
ATOM      4  C   LIG    1       -0.323   2.840   1.815  0.00  0.00    +0.290 C 
ENDROOT
BRANCH   1   5
ATOM      5  C   LIG    1       -0.013   1.086   0.008  0.00  0.00    +0.350 C 
BRANCH   5  11
ATOM      6  C   LIG    1       -0.551   2.888  -1.651  0.00  0.00    +0.140 A 
ATOM      7  C   LIG    1       -1.219   3.342  -2.779  0.00  0.00    -0.080 A 
ATOM      8  C   LIG    1       -2.081   2.501  -3.456  0.00  0.00    +0.050 A 
ATOM      9  C   LIG    1       -2.273   1.205  -3.014  0.00  0.00    -0.040 A 
ATOM     10  C   LIG    1       -1.604   0.748  -1.893  0.00  0.00    +0.070 A 
ATOM     11  C   LIG    1       -0.742   1.585  -1.213  0.00  0.00    -0.140 A 
BRANCH   6  13
ATOM     12  C   LIG    1        0.440   5.043  -1.488  0.00  0.00    +0.250 C 
ATOM     13  O   LIG    1        0.293   3.715  -0.980  0.00  0.00    -0.310 OA
ENDBRANCH   6  13
ENDBRANCH   5  11
ENDBRANCH   1   5
BRANCH   2  14
ATOM     14  C   LIG    1       -2.380   1.300   3.009  0.00  0.00    +0.390 C 
BRANCH  14  15
ATOM     15  N   LIG    1       -3.391   0.319   3.412  0.00  0.00    -0.270 N 
ATOM     16  N   LIG    1       -3.216  -0.678   4.213  0.00  0.00    -0.080 NA
ATOM     17  N   LIG    1       -4.325  -1.320   4.332  0.00  0.00    -0.060 NA
ATOM     18  N   LIG    1       -5.232  -0.754   3.614  0.00  0.00    -0.280 NA
ATOM     19  C   LIG    1       -4.686   0.289   3.019  0.00  0.00    +0.240 A 
BRANCH  19  20
ATOM     20  C   LIG    1       -5.356   1.238   2.101  0.00  0.00    +0.180 A 
ATOM     21  C   LIG    1       -6.704   1.065   1.791  0.00  0.00    +0.040 A 
ATOM     22  C   LIG    1       -7.318   1.964   0.935  0.00  0.00    +0.080 A 
ATOM     23  C   LIG    1       -6.561   3.000   0.409  0.00  0.00    -0.010 A 
ATOM     24  C   LIG    1       -5.226   3.110   0.756  0.00  0.00    +0.270 A 
ATOM     25  N   LIG    1       -4.667   2.244   1.576  0.00  0.00    -0.480 NA
ENDBRANCH  19  20
ENDBRANCH  14  15
ENDBRANCH   2  14
TORSDOF 6
