REMARK  Name = ZINCqH00000085GK.0
REMARK                            x       y       z     vdW  Elec       q    Type
REMARK                         _______ _______ _______ _____ _____    ______ ____
ROOT
ATOM      1  N   LIG    1        6.261   8.129  -2.159  0.00  0.00    -0.560 N 
ATOM      2  C   LIG    1        5.205   7.675  -1.246  0.00  0.00    +0.310 C 
ATOM      3  C   LIG    1        5.651   6.277  -0.764  0.00  0.00    +0.020 C 
ATOM      4  C   LIG    1        6.558   5.815  -1.929  0.00  0.00    +0.090 C 
ATOM      5  C   LIG    1        7.032   7.104  -2.563  0.00  0.00    +0.520 C 
ATOM      6  O   LIG    1        7.971   7.199  -3.325  0.00  0.00    -0.500 OA
ENDROOT
BRANCH   1  10
ATOM      7  C   LIG    1        6.800  12.090  -3.349  0.00  0.00    -0.110 A 
ATOM      8  C   LIG    1        5.699  11.740  -2.577  0.00  0.00    +0.060 A 
ATOM      9  C   LIG    1        5.520  10.429  -2.184  0.00  0.00    +0.000 A 
ATOM     10  C   LIG    1        6.442   9.460  -2.559  0.00  0.00    +0.160 A 
ATOM     11  C   LIG    1        7.545   9.810  -3.326  0.00  0.00    +0.030 A 
ATOM     12  C   LIG    1        7.721  11.120  -3.725  0.00  0.00    +0.030 A 
BRANCH   7  14
ATOM     13  C   LIG    1        8.566  13.696  -4.810  0.00  0.00    +0.120 C 
ATOM     14  S   LIG    1        7.028  13.764  -3.850  0.00  0.00    -0.120 S 
ENDBRANCH   7  14
ENDBRANCH   1  10
BRANCH   3  15
ATOM     15  C   LIG    1        4.467   5.358  -0.605  0.00  0.00    +0.530 C 
ATOM     16  N   LIG    1        4.656   4.071  -0.252  0.00  0.00    -0.620 N 
ATOM     17  H   LIG    1        5.553   3.736  -0.099  0.00  0.00    +0.430 HD
ATOM     18  O   LIG    1        3.345   5.776  -0.795  0.00  0.00    -0.490 OA
BRANCH  16  19
ATOM     19  C   LIG    1        3.564   3.223  -0.105  0.00  0.00    +0.230 A 
ATOM     20  N   LIG    1        3.634   1.977   0.229  0.00  0.00    -0.510 NA
ATOM     21  C   LIG    1        2.496   1.300   0.327  0.00  0.00    +0.090 A 
ATOM     22  C   LIG    1        1.411   2.045   0.052  0.00  0.00    -0.270 A 
ATOM     23  C   LIG    1       -0.016   1.549   0.081  0.00  0.00    +0.120 C 
ATOM     24  C   LIG    1       -0.001   0.017   0.070  0.00  0.00    +0.020 C 
ATOM     25  C   LIG    1        0.973  -0.480   1.142  0.00  0.00    +0.030 C 
ATOM     26  C   LIG    1        2.408  -0.170   0.710  0.00  0.00    +0.120 C 
ATOM     27  S   LIG    1        1.933   3.677  -0.342  0.00  0.00    +0.240 S 
ENDBRANCH  16  19
ENDBRANCH   3  15
TORSDOF 4
