REMARK  Name = ZINCqH0000002XYN.0
REMARK                            x       y       z     vdW  Elec       q    Type
REMARK                         _______ _______ _______ _____ _____    ______ ____
ROOT
ATOM      1  C   LIG    1       -3.670  -0.710   0.652  0.00  0.00    +0.350 C 
ENDROOT
BRANCH   1   2
ATOM      2  C   LIG    1       -4.512   0.169  -0.237  0.00  0.00    -0.100 A 
ATOM      3  C   LIG    1       -4.017   1.382  -0.678  0.00  0.00    +0.020 A 
ATOM      4  C   LIG    1       -4.787   2.186  -1.498  0.00  0.00    +0.000 A 
ATOM      5  C   LIG    1       -6.057   1.782  -1.866  0.00  0.00    -0.080 A 
ATOM      6  C   LIG    1       -6.554   0.572  -1.420  0.00  0.00    +0.000 A 
ATOM      7  C   LIG    1       -6.899   2.662  -2.755  0.00  0.00    +0.090 C 
ATOM      8  C   LIG    1       -5.782  -0.234  -0.605  0.00  0.00    +0.020 A 
ENDBRANCH   1   2
BRANCH   1   9
ATOM      9  C   LIG    1       -4.332  -0.842   2.000  0.00  0.00    -0.150 A 
ATOM     10  C   LIG    1       -4.561  -2.094   2.549  0.00  0.00    +0.080 A 
ATOM     11  C   LIG    1       -5.167  -2.168   3.794  0.00  0.00    -0.030 A 
ATOM     12  C   LIG    1       -5.531  -0.999   4.436  0.00  0.00    +0.260 A 
ATOM     13  N   LIG    1       -5.303   0.175   3.880  0.00  0.00    -0.480 NA
ATOM     14  C   LIG    1       -4.723   0.283   2.701  0.00  0.00    +0.270 A 
ENDBRANCH   1   9
BRANCH   1  15
ATOM     15  N   LIG    1       -2.344  -0.110   0.816  0.00  0.00    -0.590 N 
ATOM     16  C   LIG    1       -1.258  -0.726   0.306  0.00  0.00    +0.580 C 
ATOM     17  O   LIG    1       -1.390  -1.723  -0.376  0.00  0.00    -0.520 OA
BRANCH  16  18
ATOM     18  C   LIG    1        0.095  -0.186   0.576  0.00  0.00    +0.010 A 
ATOM     19  C   LIG    1        1.197  -0.683  -0.118  0.00  0.00    +0.300 A 
ATOM     20  N   LIG    1        2.401  -0.198   0.127  0.00  0.00    -0.440 NA
ATOM     21  C   LIG    1        2.561   0.756   1.026  0.00  0.00    +0.110 A 
ATOM     22  C   LIG    1        1.466   1.253   1.719  0.00  0.00    +0.220 A 
ATOM     23  C   LIG    1        3.937   1.306   1.302  0.00  0.00    +0.160 C 
ATOM     24  N   LIG    1        0.261   0.775   1.482  0.00  0.00    -0.390 NA
ENDBRANCH  16  18
BRANCH  15  26
ATOM     25  C   LIG    1       -1.750   0.880   2.972  0.00  0.00    +0.030 C 
ATOM     26  C   LIG    1       -2.197   1.158   1.535  0.00  0.00    +0.280 C 
ENDBRANCH  15  26
ENDBRANCH   1  15
TORSDOF 5
