REMARK  Name = ZINCrD00000F5Lm9.0
REMARK                            x       y       z     vdW  Elec       q    Type
REMARK                         _______ _______ _______ _____ _____    ______ ____
ROOT
ATOM      1  N   LIG    1       -2.370   0.429   0.768  0.00  0.00    -0.530 NA
ENDROOT
BRANCH   1   2
ATOM      2  C   LIG    1       -1.319   1.353   1.216  0.00  0.00    +0.220 C 
BRANCH   2   5
ATOM      3  C   LIG    1        1.271   1.441   1.571  0.00  0.00    -0.060 C 
ATOM      4  C   LIG    1        1.028   1.385   0.061  0.00  0.00    +0.060 C 
ATOM      5  C   LIG    1        0.051   0.701   1.019  0.00  0.00    -0.050 C 
BRANCH   3   7
ATOM      6  C   LIG    1        2.345   3.292   2.860  0.00  0.00    +0.010 C 
ATOM      7  C   LIG    1        1.028   2.776   2.276  0.00  0.00    +0.030 C 
ENDBRANCH   3   7
ENDBRANCH   2   5
ENDBRANCH   1   2
BRANCH   1   8
ATOM      8  C   LIG    1       -2.408   0.346  -0.698  0.00  0.00    +0.310 C 
BRANCH   8   9
ATOM      9  C   LIG    1       -1.287  -0.538  -1.181  0.00  0.00    +0.190 A 
ATOM     10  N   LIG    1       -0.128  -0.142  -1.631  0.00  0.00    -0.270 NA
ATOM     11  N   LIG    1        0.585  -1.163  -1.951  0.00  0.00    -0.300 NA
ATOM     12  C   LIG    1       -0.090  -2.257  -1.728  0.00  0.00    +0.360 A 
ATOM     13  N   LIG    1       -1.297  -1.892  -1.233  0.00  0.00    -0.470 N 
ATOM     14  C   LIG    1       -2.392  -2.781  -0.834  0.00  0.00    +0.340 C 
ENDBRANCH   8   9
ENDBRANCH   1   8
BRANCH   1  15
ATOM     15  C   LIG    1       -3.679   0.819   1.307  0.00  0.00    +0.230 C 
BRANCH  15  16
ATOM     16  C   LIG    1       -4.640  -0.335   1.179  0.00  0.00    -0.070 A 
ATOM     17  C   LIG    1       -4.665  -1.323   2.146  0.00  0.00    +0.050 A 
ATOM     18  C   LIG    1       -5.545  -2.381   2.031  0.00  0.00    +0.020 A 
ATOM     19  C   LIG    1       -6.405  -2.453   0.944  0.00  0.00    +0.110 A 
ATOM     20  C   LIG    1       -6.377  -1.459  -0.026  0.00  0.00    -0.080 A 
ATOM     21  C   LIG    1       -7.310  -1.533  -1.207  0.00  0.00    +0.100 C 
ATOM     22  C   LIG    1       -5.499  -0.400   0.097  0.00  0.00    +0.030 A 
BRANCH  19  23
ATOM     23  N   LIG    1       -7.299  -3.526   0.825  0.00  0.00    -0.420 N 
ATOM     24  C   LIG    1       -6.992  -4.858   0.931  0.00  0.00    +0.130 A 
ATOM     25  C   LIG    1       -8.140  -5.538   0.752  0.00  0.00    +0.150 A 
ATOM     26  N   LIG    1       -9.124  -4.652   0.542  0.00  0.00    -0.490 NA
ATOM     27  C   LIG    1       -8.634  -3.443   0.588  0.00  0.00    +0.400 A 
ENDBRANCH  19  23
ENDBRANCH  15  16
ENDBRANCH   1  15
TORSDOF 8
