REMARK  Name = ZINCtj00000txFu5.0
REMARK                            x       y       z     vdW  Elec       q    Type
REMARK                         _______ _______ _______ _____ _____    ______ ____
ROOT
ATOM      1  N   LIG    1       -2.333  -0.229   0.614  0.00  0.00    -0.720 N 
ATOM      2  H   LIG    1       -2.374   0.740   0.602  0.00  0.00    +0.410 HD
ATOM      3  C   LIG    1       -3.329  -0.939   1.181  0.00  0.00    +0.710 C 
ATOM      4  N   LIG    1       -4.382  -0.302   1.731  0.00  0.00    -0.680 N 
ATOM      5  H   LIG    1       -4.391   0.667   1.780  0.00  0.00    +0.420 HD
ATOM      6  O   LIG    1       -3.278  -2.154   1.196  0.00  0.00    -0.570 OA
ENDROOT
BRANCH   4   7
ATOM      7  C   LIG    1       -5.465  -1.040   2.232  0.00  0.00    +0.060 A 
ATOM      8  C   LIG    1       -5.264  -2.278   2.836  0.00  0.00    +0.370 A 
ATOM      9  N   LIG    1       -6.308  -2.943   3.302  0.00  0.00    -0.530 NA
ATOM     10  C   LIG    1       -7.532  -2.450   3.191  0.00  0.00    +0.450 A 
ATOM     11  N   LIG    1       -7.761  -1.278   2.618  0.00  0.00    -0.500 NA
ATOM     12  C   LIG    1       -6.765  -0.554   2.133  0.00  0.00    +0.330 A 
BRANCH  10  13
ATOM     13  N   LIG    1       -8.601  -3.179   3.686  0.00  0.00    -0.460 N 
ATOM     14  C   LIG    1       -9.370  -2.391   4.661  0.00  0.00    +0.240 C 
ATOM     15  C   LIG    1      -10.572  -3.208   5.138  0.00  0.00    +0.290 C 
ATOM     16  N   LIG    1      -10.103  -4.456   5.753  0.00  0.00    -0.510 N 
ATOM     17  C   LIG    1       -9.359  -5.244   4.761  0.00  0.00    +0.290 C 
ATOM     18  H   LIG    1       -9.500  -4.241   6.533  0.00  0.00    +0.430 HD
ATOM     19  H   LIG    1      -10.896  -4.989   6.079  0.00  0.00    +0.440 HD
ATOM     20  C   LIG    1       -8.146  -4.444   4.281  0.00  0.00    +0.250 C 
ENDBRANCH  10  13
ENDBRANCH   4   7
BRANCH   1  22
ATOM     21  C   LIG    1       -1.527  -1.318  -1.422  0.00  0.00    +0.040 C 
ATOM     22  C   LIG    1       -1.189  -0.922   0.017  0.00  0.00    +0.370 C 
BRANCH  22  23
ATOM     23  C   LIG    1        0.008  -0.006   0.017  0.00  0.00    -0.030 A 
ATOM     24  C   LIG    1        1.310  -0.376   0.006  0.00  0.00    +0.170 A 
ATOM     25  N   LIG    1        2.030   0.779   0.012  0.00  0.00    -0.230 N 
ATOM     26  N   LIG    1        1.203   1.765   0.026  0.00  0.00    -0.070 NA
ATOM     27  N   LIG    1       -0.007   1.331   0.029  0.00  0.00    -0.260 NA
BRANCH  25  28
ATOM     28  C   LIG    1        3.429   0.877   0.003  0.00  0.00    +0.110 A 
ATOM     29  C   LIG    1        4.207  -0.272  -0.007  0.00  0.00    +0.020 A 
ATOM     30  C   LIG    1        5.585  -0.172  -0.021  0.00  0.00    +0.040 A 
ATOM     31  C   LIG    1        6.189   1.071  -0.013  0.00  0.00    +0.040 A 
ATOM     32  C   LIG    1        5.417   2.218   0.002  0.00  0.00    +0.040 A 
ATOM     33  C   LIG    1        4.038   2.125   0.010  0.00  0.00    +0.040 A 
ENDBRANCH  25  28
ENDBRANCH  22  23
ENDBRANCH   1  22
TORSDOF 5
