REMARK  Name = ZINCrD000000Bgzc.0
REMARK                            x       y       z     vdW  Elec       q    Type
REMARK                         _______ _______ _______ _____ _____    ______ ____
ROOT
ATOM      1  C   LIG    1        4.275   3.269  -0.021  0.00  0.00    +0.110 C 
ENDROOT
BRANCH   1   2
ATOM      2  C   LIG    1        3.773   1.848  -0.024  0.00  0.00    -0.170 A 
ATOM      3  C   LIG    1        4.524   0.735  -0.036  0.00  0.00    +0.240 A 
ATOM      4  N   LIG    1        3.720  -0.371  -0.034  0.00  0.00    -0.590 N 
ATOM      5  H   LIG    1        4.034  -1.289  -0.042  0.00  0.00    +0.420 HD
ATOM      6  C   LIG    1        2.397   0.012  -0.020  0.00  0.00    +0.100 A 
ATOM      7  C   LIG    1        1.197  -0.691  -0.013  0.00  0.00    -0.010 A 
ATOM      8  C   LIG    1        0.002  -0.004   0.002  0.00  0.00    +0.030 A 
ATOM      9  C   LIG    1       -0.017   1.384   0.010  0.00  0.00    -0.020 A 
ATOM     10  C   LIG    1        1.151   2.094   0.002  0.00  0.00    +0.050 A 
ATOM     11  C   LIG    1        2.373   1.419  -0.013  0.00  0.00    -0.100 A 
ENDBRANCH   1   2
BRANCH   1  12
ATOM     12  C   LIG    1        5.123   3.499   1.204  0.00  0.00    -0.080 A 
ATOM     13  C   LIG    1        6.258   2.739   1.412  0.00  0.00    +0.010 A 
ATOM     14  C   LIG    1        7.037   2.953   2.534  0.00  0.00    +0.010 A 
ATOM     15  C   LIG    1        6.677   3.922   3.451  0.00  0.00    +0.000 A 
ATOM     16  C   LIG    1        5.539   4.679   3.245  0.00  0.00    +0.000 A 
ATOM     17  C   LIG    1        4.762   4.468   2.122  0.00  0.00    +0.000 A 
ENDBRANCH   1  12
BRANCH   1  18
ATOM     18  C   LIG    1        5.115   3.516  -1.276  0.00  0.00    +0.290 C 
BRANCH  18  21
ATOM     19  O   LIG    1        6.605   4.614  -3.236  0.00  0.00    -0.520 OA
ATOM     20  C   LIG    1        6.252   5.378  -2.359  0.00  0.00    +0.570 C 
ATOM     21  N   LIG    1        5.503   4.927  -1.333  0.00  0.00    -0.720 N 
ATOM     22  H   LIG    1        5.222   5.537  -0.633  0.00  0.00    +0.400 HD
BRANCH  20  23
ATOM     23  C   LIG    1        6.644   6.803  -2.417  0.00  0.00    -0.140 C 
ATOM     24  C   LIG    1        6.239   7.694  -1.417  0.00  0.00    +0.110 C 
ATOM     25  C   LIG    1        6.636   9.016  -1.515  0.00  0.00    +0.050 C 
ATOM     26  C   LIG    1        7.405   9.414  -2.594  0.00  0.00    +0.280 C 
ATOM     27  N   LIG    1        7.768   8.552  -3.526  0.00  0.00    -0.120 NA
ATOM     28  O   LIG    1        8.555   9.005  -4.612  0.00  0.00    -0.540 OA
ATOM     29  C   LIG    1        7.419   7.282  -3.474  0.00  0.00    +0.330 C 
ENDBRANCH  20  23
ENDBRANCH  18  21
ENDBRANCH   1  18
TORSDOF 5
