REMARK  Name = ZINCrD000000AkfO.0
REMARK                            x       y       z     vdW  Elec       q    Type
REMARK                         _______ _______ _______ _____ _____    ______ ____
ROOT
ATOM      1  O   LIG    1        2.586   4.134  -0.002  0.00  0.00    -0.510 OA
ATOM      2  C   LIG    1        1.466   3.654   0.007  0.00  0.00    +0.560 A 
ATOM      3  C   LIG    1        1.279   2.236   0.002  0.00  0.00    -0.220 A 
ATOM      4  C   LIG    1       -0.022   1.752   0.012  0.00  0.00    +0.070 A 
ATOM      5  S   LIG    1        0.002  -0.004   0.002  0.00  0.00    +0.200 S 
ATOM      6  C   LIG    1        1.757  -0.055  -0.015  0.00  0.00    -0.200 A 
ATOM      7  C   LIG    1        2.578  -1.332  -0.029  0.00  0.00    +0.120 C 
ATOM      8  C   LIG    1        4.009  -0.994  -0.454  0.00  0.00    +0.020 C 
ATOM      9  C   LIG    1        4.515   0.180   0.390  0.00  0.00    +0.020 C 
ATOM     10  C   LIG    1        3.774   1.452  -0.026  0.00  0.00    +0.110 C 
ATOM     11  N   LIG    1       -1.057   2.621   0.021  0.00  0.00    -0.500 NA
ATOM     12  C   LIG    1       -0.868   3.907   0.029  0.00  0.00    +0.590 A 
ATOM     13  C   LIG    1        2.277   1.175  -0.013  0.00  0.00    -0.030 A 
ATOM     14  N   LIG    1        0.377   4.449   0.021  0.00  0.00    -0.540 N 
ENDROOT
BRANCH  14  15
ATOM     15  C   LIG    1        0.538   5.905   0.026  0.00  0.00    +0.330 C 
BRANCH  15  16
ATOM     16  C   LIG    1        0.581   6.418  -1.415  0.00  0.00    +0.040 C 
BRANCH  16  17
ATOM     17  C   LIG    1        0.747   7.916  -1.409  0.00  0.00    +0.530 C 
ATOM     18  N   LIG    1        0.810   8.591  -2.574  0.00  0.00    -0.610 N 
ATOM     19  C   LIG    1        0.965  10.054  -2.591  0.00  0.00    +0.310 C 
ATOM     20  C   LIG    1        2.324  10.387  -3.225  0.00  0.00    +0.110 C 
ATOM     21  C   LIG    1        2.503   9.556  -4.477  0.00  0.00    -0.170 A 
ATOM     22  C   LIG    1        1.806   8.443  -4.774  0.00  0.00    -0.130 A 
ATOM     23  C   LIG    1        2.169   7.857  -5.982  0.00  0.00    +0.010 A 
ATOM     24  C   LIG    1        3.133   8.477  -6.655  0.00  0.00    -0.040 A 
ATOM     25  S   LIG    1        3.658   9.895  -5.760  0.00  0.00    +0.110 S 
ATOM     26  C   LIG    1        0.719   7.886  -3.860  0.00  0.00    +0.360 C 
ATOM     27  O   LIG    1        0.823   8.514  -0.357  0.00  0.00    -0.530 OA
ENDBRANCH  16  17
ENDBRANCH  15  16
ENDBRANCH  14  15
TORSDOF 3
