REMARK  Name = ZINCAx0000000j71.0
REMARK                            x       y       z     vdW  Elec       q    Type
REMARK                         _______ _______ _______ _____ _____    ______ ____
ROOT
ATOM      1  C   LIG    1        2.429   1.311  -0.169  0.00  0.00    +0.330 C 
ENDROOT
BRANCH   1   6
ATOM      2  N   LIG    1       -0.107   3.889  -0.820  0.00  0.00    -0.870 N 
ATOM      3  H   LIG    1       -0.863   3.546  -0.318  0.00  0.00    +0.390 HD
ATOM      4  H   LIG    1       -0.196   4.710  -1.330  0.00  0.00    +0.410 HD
ATOM      5  C   LIG    1        1.065   3.225  -0.810  0.00  0.00    +0.710 C 
ATOM      6  N   LIG    1        1.190   2.088  -0.097  0.00  0.00    -0.730 N 
ATOM      7  H   LIG    1        0.459   1.785   0.464  0.00  0.00    +0.390 HD
ATOM      8  O   LIG    1        2.013   3.655  -1.439  0.00  0.00    -0.590 OA
ENDBRANCH   1   6
BRANCH   1   9
ATOM      9  C   LIG    1        2.419   0.464  -1.416  0.00  0.00    -0.080 A 
ATOM     10  C   LIG    1        1.236  -0.097  -1.861  0.00  0.00    +0.020 A 
ATOM     11  C   LIG    1        1.224  -0.874  -3.004  0.00  0.00    +0.030 A 
ATOM     12  C   LIG    1        2.393  -1.092  -3.705  0.00  0.00    +0.010 A 
ATOM     13  C   LIG    1        3.582  -0.531  -3.261  0.00  0.00    +0.090 A 
ATOM     14  C   LIG    1        3.591   0.253  -2.116  0.00  0.00    +0.010 A 
BRANCH  13  15
ATOM     15  O   LIG    1        4.734  -0.744  -3.950  0.00  0.00    -0.260 OA
BRANCH  15  16
ATOM     16  C   LIG    1        5.701  -1.494  -3.359  0.00  0.00    +0.120 A 
ATOM     17  C   LIG    1        5.451  -2.120  -2.146  0.00  0.00    -0.060 A 
ATOM     18  C   LIG    1        6.433  -2.887  -1.551  0.00  0.00    +0.050 A 
ATOM     19  C   LIG    1        7.668  -3.023  -2.157  0.00  0.00    -0.030 A 
ATOM     20  C   LIG    1        7.922  -2.395  -3.362  0.00  0.00    +0.050 A 
ATOM     21  C   LIG    1        6.941  -1.632  -3.965  0.00  0.00    -0.020 A 
ENDBRANCH  15  16
ENDBRANCH  13  15
ENDBRANCH   1   9
BRANCH   1  22
ATOM     22  C   LIG    1        2.537   0.407   1.060  0.00  0.00    +0.060 C 
BRANCH  22  23
ATOM     23  C   LIG    1        2.670   1.256   2.298  0.00  0.00    +0.510 C 
ATOM     24  N   LIG    1        2.780   0.672   3.508  0.00  0.00    -0.610 N 
ATOM     25  C   LIG    1        2.760  -0.802   3.589  0.00  0.00    +0.260 C 
ATOM     26  C   LIG    1        3.815  -1.317   4.589  0.00  0.00    +0.030 C 
ATOM     27  C   LIG    1        5.083  -0.503   4.460  0.00  0.00    +0.200 C 
ATOM     28  N   LIG    1        5.037   0.608   5.410  0.00  0.00    -0.530 NA
ATOM     29  C   LIG    1        4.404   1.790   4.963  0.00  0.00    +0.180 C 
ATOM     30  C   LIG    1        2.907   1.514   4.679  0.00  0.00    +0.290 C 
ATOM     31  O   LIG    1        2.679   2.465   2.206  0.00  0.00    -0.520 OA
BRANCH  28  32
ATOM     32  C   LIG    1        6.374   0.897   5.947  0.00  0.00    +0.250 C 
BRANCH  32  33
ATOM     33  C   LIG    1        7.267   1.384   4.835  0.00  0.00    +0.490 C 
ATOM     34  N   LIG    1        8.548   1.712   5.094  0.00  0.00    -0.620 N 
ATOM     35  C   LIG    1        9.199   1.649   6.410  0.00  0.00    +0.240 C 
ATOM     36  C   LIG    1       10.651   2.139   6.228  0.00  0.00    +0.030 C 
ATOM     37  C   LIG    1       10.567   2.993   4.935  0.00  0.00    +0.040 C 
ATOM     38  C   LIG    1        9.527   2.199   4.105  0.00  0.00    +0.250 C 
ATOM     39  O   LIG    1        6.833   1.480   3.706  0.00  0.00    -0.530 OA
ENDBRANCH  32  33
ENDBRANCH  28  32
ENDBRANCH  22  23
ENDBRANCH   1  22
TORSDOF 8
