REMARK  Name = ZINCrD000000fO00.0
REMARK                            x       y       z     vdW  Elec       q    Type
REMARK                         _______ _______ _______ _____ _____    ______ ____
ROOT
ATOM      1  C   LIG    1        1.791  -1.577  -0.478  0.00  0.00    +0.590 C 
ATOM      2  N   LIG    1        1.081  -0.504  -0.881  0.00  0.00    -0.580 N 
ATOM      3  C   LIG    1        1.396   0.093  -2.160  0.00  0.00    +0.270 C 
ATOM      4  C   LIG    1        2.458   1.205  -1.966  0.00  0.00    +0.020 C 
ATOM      5  C   LIG    1        1.857   2.347  -1.251  0.00  0.00    +0.170 C 
ATOM      6  N   LIG    1        1.383   2.033   0.097  0.00  0.00    -0.530 NA
ATOM      7  C   LIG    1        0.019   1.550   0.059  0.00  0.00    +0.170 C 
ATOM      8  C   LIG    1        0.016   0.011   0.005  0.00  0.00    +0.280 C 
ATOM      9  O   LIG    1        1.621  -2.036   0.636  0.00  0.00    -0.530 OA
ENDROOT
BRANCH   1  14
ATOM     10  C   LIG    1        3.707  -3.326  -3.064  0.00  0.00    -0.250 A 
ATOM     11  C   LIG    1        4.711  -2.801  -2.266  0.00  0.00    +0.080 A 
ATOM     12  N   LIG    1        4.139  -2.123  -1.260  0.00  0.00    -0.510 N 
ATOM     13  H   LIG    1        4.616  -1.656  -0.555  0.00  0.00    +0.420 HD
ATOM     14  C   LIG    1        2.768  -2.193  -1.385  0.00  0.00    -0.030 A 
ATOM     15  C   LIG    1        6.193  -2.965  -2.489  0.00  0.00    +0.130 C 
ATOM     16  C   LIG    1        2.474  -2.935  -2.489  0.00  0.00    -0.080 A 
ATOM     17  C   LIG    1        1.098  -3.273  -3.002  0.00  0.00    +0.120 C 
BRANCH  10  19
ATOM     18  C   LIG    1        4.082  -5.627  -4.158  0.00  0.00    +0.070 C 
ATOM     19  C   LIG    1        3.888  -4.137  -4.272  0.00  0.00    +0.440 C 
ATOM     20  O   LIG    1        3.881  -3.608  -5.365  0.00  0.00    -0.450 OA
ENDBRANCH  10  19
ENDBRANCH   1  14
BRANCH   6  21
ATOM     21  C   LIG    1        1.504   3.200   0.982  0.00  0.00    +0.240 C 
BRANCH  21  22
ATOM     22  C   LIG    1        1.232   2.781   2.404  0.00  0.00    -0.090 A 
ATOM     23  C   LIG    1       -0.056   2.832   2.904  0.00  0.00    +0.040 A 
ATOM     24  C   LIG    1       -0.307   2.443   4.206  0.00  0.00    -0.010 A 
ATOM     25  C   LIG    1        0.733   2.014   5.014  0.00  0.00    +0.100 A 
ATOM     26  C   LIG    1        2.023   1.970   4.513  0.00  0.00    -0.010 A 
ATOM     27  F   LIG    1        0.489   1.640   6.289  0.00  0.00    -0.140 F 
ATOM     28  C   LIG    1        2.271   2.353   3.209  0.00  0.00    +0.060 A 
ENDBRANCH  21  22
ENDBRANCH   6  21
TORSDOF 4
