REMARK  Name = ZINCnE000001IQKT.0
REMARK                            x       y       z     vdW  Elec       q    Type
REMARK                         _______ _______ _______ _____ _____    ______ ____
ROOT
ATOM      1  C   LIG    1       -2.959  -0.234  -3.879  0.00  0.00    +0.280 C 
ATOM      2  N   LIG    1       -3.718   0.940  -3.438  0.00  0.00    -0.600 N 
ATOM      3  C   LIG    1       -3.507   1.456  -2.211  0.00  0.00    +0.540 C 
ATOM      4  O   LIG    1       -4.135   2.427  -1.846  0.00  0.00    -0.510 OA
ENDROOT
BRANCH   3   5
ATOM      5  C   LIG    1       -2.491   0.827  -1.293  0.00  0.00    +0.090 C 
ATOM      6  S   LIG    1       -0.906   1.695  -1.455  0.00  0.00    -0.180 S 
ATOM      7  C   LIG    1       -0.013   1.086   0.008  0.00  0.00    +0.120 C 
ATOM      8  C   LIG    1       -0.738   1.583   1.253  0.00  0.00    +0.140 C 
ATOM      9  C   LIG    1       -2.214   1.247   1.213  0.00  0.00    -0.160 A 
ATOM     10  S   LIG    1       -3.210   1.232   2.674  0.00  0.00    +0.090 S 
ATOM     11  C   LIG    1       -4.636   0.802   1.746  0.00  0.00    -0.040 A 
ATOM     12  C   LIG    1       -4.313   0.695   0.467  0.00  0.00    +0.030 A 
ATOM     13  C   LIG    1       -2.970   0.935   0.152  0.00  0.00    -0.090 A 
ENDBRANCH   3   5
BRANCH   2  14
ATOM     14  C   LIG    1       -4.705   1.551  -4.331  0.00  0.00    +0.330 C 
BRANCH  14  15
ATOM     15  C   LIG    1       -4.037   2.611  -5.168  0.00  0.00    -0.130 A 
ATOM     16  C   LIG    1       -3.988   3.918  -4.713  0.00  0.00    +0.010 A 
ATOM     17  C   LIG    1       -3.374   4.892  -5.472  0.00  0.00    +0.030 A 
ATOM     18  C   LIG    1       -2.810   4.560  -6.706  0.00  0.00    -0.130 A 
ATOM     19  C   LIG    1       -2.869   3.240  -7.161  0.00  0.00    +0.030 A 
ATOM     20  C   LIG    1       -3.482   2.275  -6.389  0.00  0.00    -0.010 A 
BRANCH  18  21
ATOM     21  C   LIG    1       -2.155   5.598  -7.525  0.00  0.00    +0.520 C 
ATOM     22  O   LIG    1       -2.106   6.752  -7.125  0.00  0.00    -0.690 OA
ATOM     23  O   LIG    1       -1.663   5.304  -8.605  0.00  0.00    -0.690 OA
ENDBRANCH  18  21
ENDBRANCH  14  15
ENDBRANCH   2  14
TORSDOF 4
