REMARK  Name = ZINCrD00000eg8Nm.0
REMARK                            x       y       z     vdW  Elec       q    Type
REMARK                         _______ _______ _______ _____ _____    ______ ____
ROOT
ATOM      1  N   LIG    1        3.021   3.440  -0.831  0.00  0.00    -0.740 N 
ATOM      2  H   LIG    1        3.650   3.093  -0.180  0.00  0.00    +0.400 HD
ATOM      3  C   LIG    1        1.774   2.932  -0.900  0.00  0.00    +0.710 C 
ATOM      4  N   LIG    1        1.369   2.014  -0.001  0.00  0.00    -0.630 N 
ATOM      5  C   LIG    1       -0.020   1.531   0.013  0.00  0.00    +0.310 C 
ATOM      6  C   LIG    1       -0.003  -0.001   0.003  0.00  0.00    +0.180 C 
ATOM      7  N   LIG    1        0.834  -0.486   1.108  0.00  0.00    -0.480 N 
ATOM      8  C   LIG    1        2.231  -0.062   0.945  0.00  0.00    +0.190 C 
ATOM      9  C   LIG    1        2.306   1.468   0.994  0.00  0.00    +0.290 C 
ATOM     10  O   LIG    1        1.014   3.303  -1.774  0.00  0.00    -0.580 OA
ENDROOT
BRANCH   7  11
ATOM     11  C   LIG    1        0.744  -1.874   1.232  0.00  0.00    +0.120 A 
ATOM     12  C   LIG    1        1.463  -2.533   2.222  0.00  0.00    -0.010 A 
ATOM     13  C   LIG    1        1.372  -3.906   2.342  0.00  0.00    +0.060 A 
ATOM     14  C   LIG    1        0.567  -4.625   1.479  0.00  0.00    -0.010 A 
ATOM     15  C   LIG    1       -0.151  -3.973   0.492  0.00  0.00    -0.010 A 
ATOM     16 CL   LIG    1       -1.161  -4.881  -0.590  0.00  0.00    -0.070 Cl
ATOM     17  C   LIG    1       -0.069  -2.599   0.370  0.00  0.00    -0.020 A 
ENDBRANCH   7  11
BRANCH   1  18
ATOM     18  C   LIG    1        3.425   4.516  -1.740  0.00  0.00    +0.340 C 
BRANCH  18  22
ATOM     19  C   LIG    1        7.484   5.603  -0.946  0.00  0.00    +0.110 A 
ATOM     20  C   LIG    1        7.197   4.612  -1.871  0.00  0.00    -0.040 A 
ATOM     21  C   LIG    1        5.884   4.263  -2.126  0.00  0.00    +0.040 A 
ATOM     22  C   LIG    1        4.854   4.900  -1.458  0.00  0.00    -0.110 A 
ATOM     23  C   LIG    1        5.133   5.893  -0.537  0.00  0.00    -0.010 A 
ATOM     24  C   LIG    1        6.447   6.244  -0.274  0.00  0.00    +0.100 A 
BRANCH  19  26
ATOM     25  C   LIG    1        9.787   5.246  -1.421  0.00  0.00    +0.240 C 
ATOM     26  O   LIG    1        8.775   5.947  -0.694  0.00  0.00    -0.310 OA
ENDBRANCH  19  26
BRANCH  24  27
ATOM     27  O   LIG    1        6.724   7.217   0.636  0.00  0.00    -0.310 OA
ATOM     28  C   LIG    1        5.610   7.831   1.287  0.00  0.00    +0.250 C 
ENDBRANCH  24  27
ENDBRANCH  18  22
ENDBRANCH   1  18
TORSDOF 5
