REMARK  Name = ZINCqH00000010aL.0
REMARK                            x       y       z     vdW  Elec       q    Type
REMARK                         _______ _______ _______ _____ _____    ______ ____
ROOT
ATOM      1  N   LIG    1       -0.912   2.514  -0.540  0.00  0.00    -0.730 N 
ATOM      2  H   LIG    1       -1.419   3.241  -0.145  0.00  0.00    +0.390 HD
ATOM      3  C   LIG    1       -0.748   2.455  -1.877  0.00  0.00    +0.590 C 
ATOM      4  O   LIG    1       -0.113   1.544  -2.372  0.00  0.00    -0.530 OA
ENDROOT
BRANCH   3   5
ATOM      5  C   LIG    1       -1.339   3.493  -2.738  0.00  0.00    -0.280 A 
ATOM      6  C   LIG    1       -2.087   4.579  -2.330  0.00  0.00    +0.300 A 
ATOM      7  N   LIG    1       -2.429   5.278  -3.422  0.00  0.00    -0.460 N 
ATOM      8  H   LIG    1       -2.955   6.092  -3.422  0.00  0.00    +0.450 HD
ATOM      9  N   LIG    1       -1.917   4.651  -4.562  0.00  0.00    -0.280 NA
ATOM     10  C   LIG    1       -1.255   3.575  -4.199  0.00  0.00    +0.180 A 
BRANCH  10  11
ATOM     11  C   LIG    1       -0.557   2.624  -5.097  0.00  0.00    -0.050 A 
ATOM     12  C   LIG    1        0.628   2.017  -4.687  0.00  0.00    +0.130 A 
ATOM     13  C   LIG    1        1.271   1.128  -5.523  0.00  0.00    -0.020 A 
ATOM     14  C   LIG    1        0.747   0.848  -6.775  0.00  0.00    +0.110 A 
ATOM     15  C   LIG    1       -0.428   1.454  -7.189  0.00  0.00    -0.030 A 
ATOM     16  F   LIG    1        1.383  -0.018  -7.593  0.00  0.00    -0.140 F 
ATOM     17  C   LIG    1       -1.081   2.339  -6.357  0.00  0.00    +0.070 A 
ENDBRANCH  10  11
ENDBRANCH   3   5
BRANCH   1  18
ATOM     18  C   LIG    1       -0.324   1.481   0.316  0.00  0.00    +0.280 C 
BRANCH  18  24
ATOM     19  C   LIG    1        0.091   0.800   2.686  0.00  0.00    +0.170 C 
ATOM     20  O   LIG    1       -0.175   1.120   4.053  0.00  0.00    -0.370 OA
ATOM     21  C   LIG    1        0.255   2.426   4.441  0.00  0.00    +0.200 C 
ATOM     22  C   LIG    1       -0.485   3.474   3.605  0.00  0.00    -0.020 C 
ATOM     23  C   LIG    1       -0.220   3.211   2.119  0.00  0.00    +0.010 C 
ATOM     24  C   LIG    1       -0.655   1.782   1.779  0.00  0.00    -0.040 C 
BRANCH  19  26
ATOM     25  C   LIG    1        0.393  -1.186   1.200  0.00  0.00    +0.030 C 
ATOM     26  C   LIG    1       -0.383  -0.625   2.393  0.00  0.00    -0.060 C 
ATOM     27  C   LIG    1       -1.878  -0.608   2.067  0.00  0.00    +0.030 C 
ATOM     28  C   LIG    1       -0.139  -1.506   3.621  0.00  0.00    +0.040 C 
ENDBRANCH  19  26
ENDBRANCH  18  24
ENDBRANCH   1  18
TORSDOF 5
