REMARK  Name = ZINCpe00000zmoFn.0
REMARK                            x       y       z     vdW  Elec       q    Type
REMARK                         _______ _______ _______ _____ _____    ______ ____
ROOT
ATOM      1  O   LIG    1        0.002  -0.004   0.002  0.00  0.00    -0.510 OA
ATOM      2  C   LIG    1       -0.014   1.209   0.009  0.00  0.00    +0.520 C 
ATOM      3  N   LIG    1       -1.191   1.867   0.018  0.00  0.00    -0.730 N 
ATOM      4  H   LIG    1       -1.204   2.837   0.023  0.00  0.00    +0.400 HD
ENDROOT
BRANCH   3   5
ATOM      5  C   LIG    1       -2.449   1.117   0.020  0.00  0.00    +0.260 C 
BRANCH   5   6
ATOM      6  C   LIG    1       -3.626   2.095   0.031  0.00  0.00    +0.070 C 
BRANCH   6   7
ATOM      7  C   LIG    1       -4.920   1.324   0.033  0.00  0.00    -0.080 A 
ATOM      8  C   LIG    1       -5.522   0.983  -1.164  0.00  0.00    +0.020 A 
ATOM      9  C   LIG    1       -6.707   0.271  -1.166  0.00  0.00    +0.030 A 
ATOM     10  C   LIG    1       -7.302  -0.091   0.032  0.00  0.00    +0.050 A 
ATOM     11  O   LIG    1       -8.474  -0.783   0.014  0.00  0.00    -0.310 OA
ATOM     12  C   LIG    1       -8.845  -1.452   1.225  0.00  0.00    +0.220 C 
ATOM     13  C   LIG    1       -8.643  -0.478   2.393  0.00  0.00    +0.220 C 
ATOM     14  O   LIG    1       -7.264  -0.094   2.424  0.00  0.00    -0.310 OA
ATOM     15  C   LIG    1       -6.699   0.256   1.236  0.00  0.00    +0.050 A 
ATOM     16  C   LIG    1       -5.507   0.965   1.231  0.00  0.00    +0.030 A 
ENDBRANCH   6   7
ENDBRANCH   5   6
ENDBRANCH   3   5
BRANCH   2  17
ATOM     17  C   LIG    1        1.280   1.980   0.001  0.00  0.00    +0.210 C 
BRANCH  17  18
ATOM     18  N   LIG    1        2.410   1.040  -0.015  0.00  0.00    -0.510 NA
ATOM     19  C   LIG    1        3.676   1.744  -0.262  0.00  0.00    +0.250 C 
ATOM     20  C   LIG    1        3.835   2.890   0.746  0.00  0.00    +0.250 C 
ATOM     21  N   LIG    1        3.587   2.357   2.088  0.00  0.00    -0.460 N 
ATOM     22  C   LIG    1        3.902   2.907   3.292  0.00  0.00    +0.130 A 
ATOM     23  C   LIG    1        3.474   2.042   4.235  0.00  0.00    +0.140 A 
ATOM     24  N   LIG    1        2.912   0.991   3.614  0.00  0.00    -0.480 NA
ATOM     25  C   LIG    1        2.973   1.172   2.329  0.00  0.00    +0.170 A 
ATOM     26  C   LIG    1        2.467   0.263   1.235  0.00  0.00    +0.370 C 
ENDBRANCH  17  18
ENDBRANCH   2  17
TORSDOF 5
