REMARK  Name = ZINCrD00000F5Lx6.0
REMARK                            x       y       z     vdW  Elec       q    Type
REMARK                         _______ _______ _______ _____ _____    ______ ____
ROOT
ATOM      1  C   LIG    1        1.596   3.163   0.004  0.00  0.00    +0.520 A 
ATOM      2  C   LIG    1        1.329   1.781  -0.001  0.00  0.00    -0.330 A 
ATOM      3  C   LIG    1        2.125   0.615  -0.015  0.00  0.00    +0.310 A 
ATOM      4  N   LIG    1        1.338  -0.424  -0.013  0.00  0.00    -0.250 NA
ATOM      5  N   LIG    1        0.002  -0.004   0.002  0.00  0.00    -0.330 N 
ATOM      6  C   LIG    1       -0.016   1.362   0.009  0.00  0.00    +0.370 A 
ATOM      7  N   LIG    1       -0.977   2.284   0.029  0.00  0.00    -0.570 NA
ATOM      8  C   LIG    1       -0.677   3.565   0.028  0.00  0.00    +0.600 A 
ATOM      9  N   LIG    1        0.569   4.005   0.019  0.00  0.00    -0.600 NA
ENDROOT
BRANCH   5  10
ATOM     10  C   LIG    1       -1.121  -0.841   0.009  0.00  0.00    +0.150 A 
ATOM     11  C   LIG    1       -2.258  -0.473   0.717  0.00  0.00    +0.030 A 
ATOM     12  C   LIG    1       -3.366  -1.298   0.717  0.00  0.00    +0.030 A 
ATOM     13  C   LIG    1       -3.340  -2.493   0.023  0.00  0.00    +0.010 A 
ATOM     14  C   LIG    1       -2.208  -2.865  -0.678  0.00  0.00    +0.030 A 
ATOM     15  C   LIG    1       -1.098  -2.042  -0.687  0.00  0.00    +0.020 A 
ENDBRANCH   5  10
BRANCH   1  16
ATOM     16  N   LIG    1        2.895   3.632  -0.005  0.00  0.00    -0.700 N 
ATOM     17  H   LIG    1        3.637   3.007  -0.016  0.00  0.00    +0.420 HD
BRANCH  16  18
ATOM     18  C   LIG    1        3.153   5.074   0.000  0.00  0.00    +0.330 C 
BRANCH  18  22
ATOM     19  C   LIG    1        5.734   7.109  -1.340  0.00  0.00    +0.170 C 
ATOM     20  C   LIG    1        5.353   5.932  -2.271  0.00  0.00    +0.020 C 
ATOM     21  C   LIG    1        5.285   4.732  -1.294  0.00  0.00    +0.060 C 
ATOM     22  C   LIG    1        4.663   5.322  -0.012  0.00  0.00    -0.120 C 
ATOM     23  C   LIG    1        4.949   6.834  -0.041  0.00  0.00    +0.080 C 
BRANCH  22  24
ATOM     24  C   LIG    1        5.308   4.690   1.222  0.00  0.00    +0.460 C 
ATOM     25  F   LIG    1        4.770   5.267   2.377  0.00  0.00    -0.170 F 
ATOM     26  F   LIG    1        6.689   4.909   1.191  0.00  0.00    -0.170 F 
ATOM     27  F   LIG    1        5.054   3.314   1.228  0.00  0.00    -0.180 F 
ENDBRANCH  22  24
BRANCH  19  28
ATOM     28  O   LIG    1        5.332   8.353  -1.917  0.00  0.00    -0.560 OA
ATOM     29  H   LIG    1        5.754   8.548  -2.765  0.00  0.00    +0.380 HD
ENDBRANCH  19  28
ENDBRANCH  18  22
ENDBRANCH  16  18
ENDBRANCH   1  16
TORSDOF 6
