REMARK  Name = ZINCrH00000No4UH.0
REMARK                            x       y       z     vdW  Elec       q    Type
REMARK                         _______ _______ _______ _____ _____    ______ ____
ROOT
ATOM      1  O   LIG    1       -1.275   3.387   0.045  0.00  0.00    -0.330 OA
ENDROOT
BRANCH   1   2
ATOM      2  C   LIG    1       -1.257   2.038   0.049  0.00  0.00    +0.510 C 
ATOM      3  O   LIG    1       -2.302   1.416   0.059  0.00  0.00    -0.510 OA
BRANCH   2   5
ATOM      4  C   LIG    1       -0.003  -0.006   0.044  0.00  0.00    +0.160 C 
ATOM      5  C   LIG    1       -0.020   1.345   0.041  0.00  0.00    -0.060 C 
BRANCH   4   8
ATOM      6  C   LIG    1        2.508  -2.793   0.020  0.00  0.00    +0.100 A 
ATOM      7  C   LIG    1        1.300  -2.124   0.034  0.00  0.00    -0.030 A 
ATOM      8  C   LIG    1        1.280  -0.724   0.030  0.00  0.00    -0.060 A 
ATOM      9  C   LIG    1        2.483  -0.011   0.007  0.00  0.00    +0.030 A 
ATOM     10  C   LIG    1        3.684  -0.687  -0.000  0.00  0.00    +0.030 A 
ATOM     11  C   LIG    1        3.703  -2.075   0.003  0.00  0.00    +0.100 A 
BRANCH   6  13
ATOM     12  C   LIG    1        1.270  -4.824   0.042  0.00  0.00    +0.240 C 
ATOM     13  O   LIG    1        2.531  -4.153   0.024  0.00  0.00    -0.310 OA
ENDBRANCH   6  13
BRANCH  11  14
ATOM     14  O   LIG    1        4.890  -2.736  -0.010  0.00  0.00    -0.480 OA
ATOM     15  H   LIG    1        5.222  -2.929  -0.897  0.00  0.00    +0.390 HD
ENDBRANCH  11  14
ENDBRANCH   4   8
ENDBRANCH   2   5
ENDBRANCH   1   2
BRANCH   1  16
ATOM     16  C   LIG    1       -2.556   4.019   0.054  0.00  0.00    +0.260 C 
BRANCH  16  17
ATOM     17  C   LIG    1       -2.378   5.515   0.049  0.00  0.00    +0.510 C 
ATOM     18  N   LIG    1       -3.458   6.322   0.055  0.00  0.00    -0.670 N 
ATOM     19  H   LIG    1       -4.347   5.943  -0.018  0.00  0.00    +0.410 HD
ATOM     20  O   LIG    1       -1.264   5.993   0.038  0.00  0.00    -0.490 OA
BRANCH  18  21
ATOM     21  C   LIG    1       -3.295   7.708   0.166  0.00  0.00    +0.150 A 
ATOM     22  C   LIG    1       -2.158   8.228   0.770  0.00  0.00    +0.010 A 
ATOM     23  C   LIG    1       -2.000   9.596   0.878  0.00  0.00    +0.030 A 
ATOM     24  C   LIG    1       -2.973  10.447   0.387  0.00  0.00    -0.010 A 
ATOM     25  C   LIG    1       -4.107   9.931  -0.214  0.00  0.00    +0.030 A 
ATOM     26  C   LIG    1       -4.268   8.565  -0.332  0.00  0.00    -0.100 A 
BRANCH  26  27
ATOM     27  C   LIG    1       -5.500   8.004  -0.993  0.00  0.00    +0.020 C 
ATOM     28  C   LIG    1       -5.512   8.403  -2.470  0.00  0.00    +0.040 C 
ATOM     29  C   LIG    1       -6.747   8.562  -0.304  0.00  0.00    +0.030 C 
ENDBRANCH  26  27
ENDBRANCH  18  21
ENDBRANCH  16  17
ENDBRANCH   1  16
TORSDOF 9
