REMARK  Name = ZINCpk000000pHiI.0
REMARK                            x       y       z     vdW  Elec       q    Type
REMARK                         _______ _______ _______ _____ _____    ______ ____
ROOT
ATOM      1  C   LIG    1       -0.657   3.417  -2.291  0.00  0.00    -0.010 C 
ATOM      2  C   LIG    1       -2.076   3.751  -1.774  0.00  0.00    +0.270 C 
ATOM      3  N   LIG    1       -2.849   2.503  -1.970  0.00  0.00    -0.620 N 
ATOM      4  C   LIG    1       -1.903   1.424  -1.599  0.00  0.00    +0.280 C 
ATOM      5  C   LIG    1       -4.123   2.377  -2.390  0.00  0.00    +0.600 C 
ATOM      6  O   LIG    1       -4.645   1.279  -2.427  0.00  0.00    -0.540 OA
ATOM      7  C   LIG    1       -0.545   1.882  -2.173  0.00  0.00    +0.130 C 
ENDROOT
BRANCH   5   8
ATOM      8  C   LIG    1       -4.885   3.570  -2.804  0.00  0.00    -0.240 A 
ATOM      9  C   LIG    1       -5.927   3.445  -3.713  0.00  0.00    +0.240 A 
ATOM     10  C   LIG    1       -6.628   4.610  -4.075  0.00  0.00    -0.280 A 
ATOM     11  C   LIG    1       -7.691   4.888  -4.918  0.00  0.00    +0.160 A 
ATOM     12  N   LIG    1       -7.922   6.204  -4.863  0.00  0.00    -0.410 N 
ATOM     13  H   LIG    1       -8.614   6.669  -5.358  0.00  0.00    +0.450 HD
ATOM     14  N   LIG    1       -7.017   6.813  -3.986  0.00  0.00    -0.290 NA
ATOM     15  C   LIG    1       -8.453   3.887  -5.748  0.00  0.00    +0.180 C 
ATOM     16  C   LIG    1       -6.215   5.894  -3.485  0.00  0.00    +0.280 A 
ATOM     17  N   LIG    1       -5.189   5.921  -2.616  0.00  0.00    -0.470 NA
ATOM     18  C   LIG    1       -4.549   4.834  -2.282  0.00  0.00    +0.380 A 
ENDBRANCH   5   8
BRANCH   7  19
ATOM     19  N   LIG    1        0.545   1.518  -1.258  0.00  0.00    -0.520 NA
ATOM     20  C   LIG    1        1.841   1.527  -1.952  0.00  0.00    +0.150 C 
ATOM     21  C   LIG    1        2.952   1.201  -0.951  0.00  0.00    +0.220 C 
ATOM     22  O   LIG    1        2.677  -0.059  -0.334  0.00  0.00    -0.380 OA
ATOM     23  C   LIG    1        1.423  -0.102   0.352  0.00  0.00    +0.220 C 
ATOM     24  C   LIG    1        0.296   0.210  -0.636  0.00  0.00    +0.150 C 
ENDBRANCH   7  19
BRANCH   1  26
ATOM     25  C   LIG    1        0.330   5.611  -1.617  0.00  0.00    +0.000 C 
ATOM     26  C   LIG    1        0.401   4.095  -1.419  0.00  0.00    +0.050 C 
ENDBRANCH   1  26
TORSDOF 3
