REMARK  Name = ZINCvU00000008VI.0
REMARK                            x       y       z     vdW  Elec       q    Type
REMARK                         _______ _______ _______ _____ _____    ______ ____
ROOT
ATOM      1  C   LIG    1        0.210   1.458  -0.061  0.00  0.00    +0.090 C 
ATOM      2  C   LIG    1        0.127  -0.070  -0.038  0.00  0.00    +0.170 C 
ATOM      3  N   LIG    1       -1.271  -0.511   0.108  0.00  0.00    -0.720 N 
ATOM      4  H   LIG    1       -2.001  -0.337  -0.507  0.00  0.00    +0.440 HD
ATOM      5  C   LIG    1       -1.338  -1.203   1.260  0.00  0.00    +0.710 C 
ATOM      6  N   LIG    1       -0.157  -1.269   1.886  0.00  0.00    -0.570 N 
ATOM      7  O   LIG    1       -2.357  -1.710   1.685  0.00  0.00    -0.520 OA
ATOM      8  C   LIG    1        0.806  -0.622   1.200  0.00  0.00    +0.530 C 
ATOM      9  O   LIG    1        1.972  -0.505   1.510  0.00  0.00    -0.460 OA
ENDROOT
BRANCH   2  10
ATOM     10  C   LIG    1        0.743  -0.652  -1.284  0.00  0.00    -0.110 A 
ATOM     11  C   LIG    1        2.087  -0.976  -1.304  0.00  0.00    +0.070 A 
ATOM     12  C   LIG    1        2.652  -1.514  -2.445  0.00  0.00    -0.010 A 
ATOM     13  C   LIG    1        1.874  -1.718  -3.571  0.00  0.00    +0.110 A 
ATOM     14  C   LIG    1        0.529  -1.389  -3.552  0.00  0.00    -0.010 A 
ATOM     15  F   LIG    1        2.426  -2.240  -4.689  0.00  0.00    -0.130 F 
ATOM     16  C   LIG    1       -0.035  -0.856  -2.408  0.00  0.00    +0.060 A 
ENDBRANCH   2  10
BRANCH   6  17
ATOM     17  C   LIG    1        0.061  -1.958   3.160  0.00  0.00    +0.310 C 
BRANCH  17  18
ATOM     18  C   LIG    1       -0.302  -3.413   3.013  0.00  0.00    -0.090 A 
ATOM     19  C   LIG    1       -0.927  -4.078   4.051  0.00  0.00    +0.030 A 
ATOM     20  C   LIG    1       -1.264  -5.412   3.914  0.00  0.00    +0.010 A 
ATOM     21  C   LIG    1       -0.969  -6.083   2.742  0.00  0.00    +0.010 A 
ATOM     22  C   LIG    1       -0.340  -5.419   1.705  0.00  0.00    +0.000 A 
ATOM     23  C   LIG    1       -0.006  -4.084   1.841  0.00  0.00    +0.010 A 
ENDBRANCH  17  18
BRANCH  17  24
ATOM     24  C   LIG    1       -0.814  -1.321   4.241  0.00  0.00    +0.040 C 
BRANCH  24  25
ATOM     25  C   LIG    1       -0.362   0.121   4.479  0.00  0.00    +0.020 C 
BRANCH  25  26
ATOM     26  C   LIG    1       -1.237   0.758   5.560  0.00  0.00    +0.070 C 
BRANCH  26  27
ATOM     27  C   LIG    1       -0.791   2.179   5.794  0.00  0.00    -0.080 A 
ATOM     28  C   LIG    1        0.173   2.453   6.746  0.00  0.00    +0.000 A 
ATOM     29  C   LIG    1        0.584   3.756   6.958  0.00  0.00    +0.000 A 
ATOM     30  C   LIG    1        0.025   4.785   6.224  0.00  0.00    -0.010 A 
ATOM     31  C   LIG    1       -0.942   4.511   5.275  0.00  0.00    +0.000 A 
ATOM     32  C   LIG    1       -1.351   3.208   5.061  0.00  0.00    +0.000 A 
ENDBRANCH  26  27
ENDBRANCH  25  26
ENDBRANCH  24  25
ENDBRANCH  17  24
ENDBRANCH   6  17
TORSDOF 7
