REMARK  Name = ZINCtj00001UqOm5.0
REMARK                            x       y       z     vdW  Elec       q    Type
REMARK                         _______ _______ _______ _____ _____    ______ ____
ROOT
ATOM      1  C   LIG    1        8.503   5.281  -0.144  0.00  0.00    +0.100 C 
ATOM      2  C   LIG    1        8.517   6.510  -1.098  0.00  0.00    +0.030 C 
ATOM      3  C   LIG    1        8.532   5.390  -2.169  0.00  0.00    +0.070 C 
ATOM      4  O   LIG    1        7.246   4.710  -1.989  0.00  0.00    -0.300 OA
ATOM      5  C   LIG    1        8.961   5.715  -3.601  0.00  0.00    +0.130 C 
ATOM      6  C   LIG    1        7.173   4.601  -0.563  0.00  0.00    +0.090 C 
ATOM      7  C   LIG    1        5.916   5.067   0.136  0.00  0.00    +0.290 C 
ATOM      8  N   LIG    1        5.461   3.664   0.105  0.00  0.00    -0.640 N 
ATOM      9  C   LIG    1        4.269   3.035   0.123  0.00  0.00    +0.590 C 
ATOM     10  O   LIG    1        3.239   3.683   0.177  0.00  0.00    -0.540 OA
ATOM     11  C   LIG    1        6.875   3.249   0.052  0.00  0.00    +0.290 C 
ATOM     12  C   LIG    1        9.568   4.785  -1.177  0.00  0.00    +0.060 C 
ENDROOT
BRANCH   1  14
ATOM     13  C   LIG    1        9.967   5.995   1.667  0.00  0.00    +0.520 C 
ATOM     14  N   LIG    1        8.817   5.408   1.281  0.00  0.00    -0.660 N 
ATOM     15  H   LIG    1        8.198   5.070   1.946  0.00  0.00    +0.410 HD
ATOM     16  O   LIG    1       10.742   6.418   0.835  0.00  0.00    -0.510 OA
BRANCH  13  17
ATOM     17  C   LIG    1       10.291   6.126   3.133  0.00  0.00    +0.160 C 
BRANCH  17  18
ATOM     18  N   LIG    1       11.721   6.420   3.294  0.00  0.00    -0.370 N 
ATOM     19  C   LIG    1       12.014   7.748   2.740  0.00  0.00    +0.330 C 
ATOM     20  C   LIG    1       12.513   5.407   2.583  0.00  0.00    +0.320 C 
ATOM     21  H   LIG    1       11.959   6.405   4.275  0.00  0.00    +0.430 HD
ENDBRANCH  17  18
BRANCH  17  23
ATOM     22  C   LIG    1        9.707   7.322   5.248  0.00  0.00    +0.050 C 
ATOM     23  C   LIG    1        9.465   7.263   3.738  0.00  0.00    +0.060 C 
ENDBRANCH  17  23
ENDBRANCH  13  17
ENDBRANCH   1  14
BRANCH   9  24
ATOM     24  C   LIG    1        4.215   1.620   0.079  0.00  0.00    -0.140 C 
ATOM     25  C   LIG    1        3.019   0.988   0.097  0.00  0.00    +0.190 C 
BRANCH  25  26
ATOM     26  C   LIG    1        2.963  -0.477   0.051  0.00  0.00    -0.190 A 
ATOM     27  C   LIG    1        1.830  -1.267   0.061  0.00  0.00    +0.220 A 
ATOM     28  N   LIG    1        2.217  -2.557   0.006  0.00  0.00    -0.440 N 
ATOM     29  C   LIG    1        3.578  -2.643  -0.041  0.00  0.00    +0.150 A 
ATOM     30  C   LIG    1        1.306  -3.704  -0.002  0.00  0.00    +0.320 C 
ATOM     31  C   LIG    1        4.099  -1.404  -0.017  0.00  0.00    -0.030 A 
ENDBRANCH  25  26
ENDBRANCH   9  24
TORSDOF 6
