REMARK  Name = ZINCrH000004pZ20.0
REMARK                            x       y       z     vdW  Elec       q    Type
REMARK                         _______ _______ _______ _____ _____    ______ ____
ROOT
ATOM      1  C   LIG    1       -0.257   4.319  -1.390  0.00  0.00    +0.530 C 
ATOM      2  N   LIG    1       -0.121   3.002  -1.137  0.00  0.00    -0.600 N 
ATOM      3  C   LIG    1       -1.198   2.094  -1.329  0.00  0.00    +0.260 C 
ATOM      4  C   LIG    1       -2.197   2.006  -0.129  0.00  0.00    +0.020 C 
ATOM      5  C   LIG    1       -1.356   2.101   1.179  0.00  0.00    +0.260 C 
ATOM      6  N   LIG    1       -0.105   1.429   1.138  0.00  0.00    -0.600 N 
ATOM      7  C   LIG    1        1.090   2.244   0.800  0.00  0.00    +0.290 C 
ATOM      8  C   LIG    1       -0.007   0.108   1.389  0.00  0.00    +0.600 C 
ATOM      9  O   LIG    1        1.065  -0.456   1.273  0.00  0.00    -0.520 OA
ATOM     10  C   LIG    1        1.161   2.435  -0.644  0.00  0.00    +0.280 C 
ATOM     11  O   LIG    1       -1.341   4.768  -1.697  0.00  0.00    -0.520 OA
ENDROOT
BRANCH   1  13
ATOM     12  C   LIG    1        1.524   5.146   0.118  0.00  0.00    +0.060 C 
ATOM     13  C   LIG    1        0.938   5.232  -1.292  0.00  0.00    -0.030 C 
ATOM     14  C   LIG    1        1.993   4.791  -2.304  0.00  0.00    +0.040 C 
ATOM     15  C   LIG    1        1.468   5.088  -3.713  0.00  0.00    +0.020 C 
ATOM     16  C   LIG    1        1.449   6.602  -3.910  0.00  0.00    +0.080 C 
ATOM     17  C   LIG    1        0.732   7.275  -2.769  0.00  0.00    -0.070 A 
ATOM     18  C   LIG    1        0.298   8.581  -2.959  0.00  0.00    +0.000 A 
ATOM     19  C   LIG    1       -0.355   9.256  -1.948  0.00  0.00    +0.010 A 
ATOM     20  C   LIG    1       -0.580   8.629  -0.737  0.00  0.00    +0.000 A 
ATOM     21  C   LIG    1       -0.152   7.331  -0.548  0.00  0.00    +0.020 A 
ATOM     22  C   LIG    1        0.503   6.649  -1.565  0.00  0.00    -0.050 A 
ENDBRANCH   1  13
BRANCH   8  23
ATOM     23  C   LIG    1       -1.193  -0.649   1.801  0.00  0.00    -0.280 A 
ATOM     24  C   LIG    1       -1.196  -1.950   2.220  0.00  0.00    +0.100 A 
ATOM     25  C   LIG    1       -2.449  -2.411   2.551  0.00  0.00    -0.010 A 
ATOM     26  C   LIG    1       -3.438  -1.524   2.400  0.00  0.00    -0.090 A 
ATOM     27  S   LIG    1       -2.839  -0.032   1.830  0.00  0.00    +0.230 S 
ENDBRANCH   8  23
TORSDOF 2
