REMARK  Name = ZINCvU0000000BJh.0
REMARK                            x       y       z     vdW  Elec       q    Type
REMARK                         _______ _______ _______ _____ _____    ______ ____
ROOT
ATOM      1  C   LIG    1       -7.298   1.276  -2.068  0.00  0.00    +0.520 C 
ATOM      2  N   LIG    1       -8.583   0.897  -2.211  0.00  0.00    -0.520 N 
ATOM      3  C   LIG    1       -9.206   0.070  -1.265  0.00  0.00    +0.130 A 
ATOM      4  C   LIG    1       -9.234   0.507   0.056  0.00  0.00    +0.000 A 
ATOM      5  C   LIG    1       -9.879  -0.232   1.025  0.00  0.00    +0.030 A 
ATOM      6  C   LIG    1      -10.501  -1.415   0.668  0.00  0.00    +0.020 A 
ATOM      7  C   LIG    1      -10.455  -1.850  -0.624  0.00  0.00    +0.020 A 
ATOM      8  C   LIG    1       -9.788  -1.131  -1.618  0.00  0.00    -0.080 A 
ATOM      9  C   LIG    1       -9.781  -1.793  -2.978  0.00  0.00    +0.100 C 
ATOM     10  C   LIG    1       -9.012  -1.003  -4.023  0.00  0.00    +0.070 C 
ATOM     11  C   LIG    1       -9.625   0.354  -4.255  0.00  0.00    -0.080 A 
ATOM     12  C   LIG    1      -10.405   0.644  -5.350  0.00  0.00    +0.030 A 
ATOM     13  C   LIG    1      -10.882   1.938  -5.505  0.00  0.00    +0.020 A 
ATOM     14  C   LIG    1      -10.577   2.913  -4.573  0.00  0.00    +0.020 A 
ATOM     15  C   LIG    1       -9.804   2.607  -3.464  0.00  0.00    +0.030 A 
ATOM     16  C   LIG    1       -9.344   1.310  -3.314  0.00  0.00    +0.130 A 
ATOM     17  O   LIG    1       -6.779   1.987  -2.903  0.00  0.00    -0.490 OA
ENDROOT
BRANCH   1  18
ATOM     18  C   LIG    1       -6.505   0.815  -0.872  0.00  0.00    +0.260 C 
BRANCH  18  19
ATOM     19  O   LIG    1       -5.158   1.353  -0.948  0.00  0.00    -0.330 OA
BRANCH  19  21
ATOM     20  O   LIG    1       -4.695   0.330   0.955  0.00  0.00    -0.500 OA
ATOM     21  C   LIG    1       -4.318   1.035   0.049  0.00  0.00    +0.470 C 
BRANCH  21  22
ATOM     22  C   LIG    1       -2.904   1.556   0.038  0.00  0.00    +0.040 C 
ATOM     23  C   LIG    1       -2.188   1.063  -1.221  0.00  0.00    +0.040 C 
ATOM     24  C   LIG    1       -0.753   1.593  -1.232  0.00  0.00    +0.020 C 
ATOM     25  C   LIG    1       -0.013   1.086   0.008  0.00  0.00    +0.010 C 
ATOM     26  C   LIG    1       -0.729   1.579   1.267  0.00  0.00    -0.010 C 
ATOM     27  C   LIG    1        0.011   1.072   2.506  0.00  0.00    +0.010 C 
ATOM     28  C   LIG    1        0.032  -0.457   2.498  0.00  0.00    +0.000 C 
ATOM     29  C   LIG    1       -1.403  -0.987   2.509  0.00  0.00    +0.000 C 
ATOM     30  C   LIG    1       -2.143  -0.480   1.269  0.00  0.00    +0.010 C 
ATOM     31  C   LIG    1       -2.164   1.050   1.278  0.00  0.00    +0.020 C 
ENDBRANCH  21  22
ENDBRANCH  19  21
ENDBRANCH  18  19
ENDBRANCH   1  18
TORSDOF 4
