REMARK  Name = ZINCrH000004r1YD.0
REMARK                            x       y       z     vdW  Elec       q    Type
REMARK                         _______ _______ _______ _____ _____    ______ ____
ROOT
ATOM      1  S   LIG    1        3.000   4.463  -0.259  0.00  0.00    +0.120 S 
ENDROOT
BRANCH   1   6
ATOM      2  N   LIG    1        3.753   1.770  -0.242  0.00  0.00    -0.310 N 
ATOM      3  N   LIG    1        4.969   1.068  -0.313  0.00  0.00    -0.070 NA
ATOM      4  N   LIG    1        5.904   1.949  -0.419  0.00  0.00    -0.030 NA
ATOM      5  N   LIG    1        5.410   3.134  -0.413  0.00  0.00    -0.330 NA
ATOM      6  C   LIG    1        4.099   3.087  -0.308  0.00  0.00    +0.200 A 
BRANCH   2  11
ATOM      7  C   LIG    1       -1.467  -0.406   0.239  0.00  0.00    +0.100 C 
ATOM      8  C   LIG    1       -0.081   0.172   0.111  0.00  0.00    -0.060 A 
ATOM      9  C   LIG    1        0.174   1.152  -0.830  0.00  0.00    +0.030 A 
ATOM     10  C   LIG    1        1.443   1.684  -0.949  0.00  0.00    +0.050 A 
ATOM     11  C   LIG    1        2.464   1.233  -0.123  0.00  0.00    +0.100 A 
ATOM     12  C   LIG    1        2.205   0.248   0.821  0.00  0.00    -0.050 A 
ATOM     13  C   LIG    1        3.310  -0.244   1.719  0.00  0.00    +0.110 C 
ATOM     14  C   LIG    1        0.934  -0.280   0.936  0.00  0.00    +0.030 A 
ENDBRANCH   2  11
ENDBRANCH   1   6
BRANCH   1  15
ATOM     15  C   LIG    1        4.191   5.820  -0.394  0.00  0.00    +0.010 C 
ATOM     16  C   LIG    1        5.087   5.837   0.846  0.00  0.00    +0.090 C 
BRANCH  15  17
ATOM     17  C   LIG    1        3.451   7.129  -0.496  0.00  0.00    +0.540 C 
ATOM     18  N   LIG    1        4.035   8.188  -1.091  0.00  0.00    -0.710 N 
ATOM     19  H   LIG    1        4.931   8.108  -1.453  0.00  0.00    +0.400 HD
ATOM     20  O   LIG    1        2.330   7.229  -0.044  0.00  0.00    -0.520 OA
BRANCH  18  21
ATOM     21  C   LIG    1        3.316   9.461  -1.191  0.00  0.00    +0.240 C 
ATOM     22  C   LIG    1        2.420   9.444  -2.431  0.00  0.00    +0.010 C 
ATOM     23  C   LIG    1        1.669  10.773  -2.535  0.00  0.00    +0.010 C 
ATOM     24  C   LIG    1        2.675  11.920  -2.649  0.00  0.00    +0.010 C 
ATOM     25  C   LIG    1        3.571  11.936  -1.409  0.00  0.00    -0.010 C 
ATOM     26  C   LIG    1        4.577  13.083  -1.522  0.00  0.00    +0.030 C 
ATOM     27  C   LIG    1        4.322  10.607  -1.304  0.00  0.00    -0.010 C 
ATOM     28  C   LIG    1        5.183  10.409  -2.554  0.00  0.00    +0.020 C 
ENDBRANCH  18  21
ENDBRANCH  15  17
ENDBRANCH   1  15
TORSDOF 5
