REMARK  Name = ZINCqH0000005hod.0
REMARK                            x       y       z     vdW  Elec       q    Type
REMARK                         _______ _______ _______ _____ _____    ______ ____
ROOT
ATOM      1  C   LIG    1        2.457   1.002  -0.016  0.00  0.00    +0.040 C 
ENDROOT
BRANCH   1   2
ATOM      2  C   LIG    1        1.280   1.980   0.001  0.00  0.00    +0.060 C 
BRANCH   2   5
ATOM      3  C   LIG    1       -1.210   3.331   0.026  0.00  0.00    +0.280 C 
ATOM      4  N   LIG    1       -1.191   1.867   0.018  0.00  0.00    -0.610 N 
ATOM      5  C   LIG    1       -0.014   1.209   0.009  0.00  0.00    +0.520 C 
ATOM      6  O   LIG    1        0.002  -0.004   0.002  0.00  0.00    -0.530 OA
BRANCH   4   7
ATOM      7  C   LIG    1       -2.449   1.117   0.020  0.00  0.00    +0.340 C 
BRANCH   7   8
ATOM      8  C   LIG    1       -2.874   0.852   1.441  0.00  0.00    -0.100 A 
ATOM      9  C   LIG    1       -2.461  -0.300   2.083  0.00  0.00    +0.050 A 
ATOM     10  C   LIG    1       -2.846  -0.541   3.389  0.00  0.00    +0.020 A 
ATOM     11  C   LIG    1       -3.653   0.365   4.050  0.00  0.00    +0.020 A 
ATOM     12  C   LIG    1       -4.071   1.516   3.406  0.00  0.00    -0.040 A 
ATOM     13 CL   LIG    1       -5.085   2.655   4.236  0.00  0.00    -0.070 Cl
ATOM     14  C   LIG    1       -3.682   1.759   2.102  0.00  0.00    +0.030 A 
ENDBRANCH   7   8
ENDBRANCH   4   7
ENDBRANCH   2   5
ENDBRANCH   1   2
BRANCH   1  15
ATOM     15  C   LIG    1        3.771   1.784  -0.024  0.00  0.00    +0.260 C 
BRANCH  15  16
ATOM     16  N   LIG    1        4.897   0.848  -0.040  0.00  0.00    -0.720 N 
ATOM     17  H   LIG    1        4.733  -0.108  -0.044  0.00  0.00    +0.400 HD
ATOM     18  C   LIG    1        6.162   1.314  -0.050  0.00  0.00    +0.560 C 
ATOM     19  O   LIG    1        6.368   2.513  -0.045  0.00  0.00    -0.520 OA
BRANCH  18  20
ATOM     20  C   LIG    1        7.296   0.371  -0.066  0.00  0.00    -0.190 A 
ATOM     21  C   LIG    1        7.063  -1.007  -0.065  0.00  0.00    +0.120 A 
ATOM     22  C   LIG    1        8.126  -1.883  -0.086  0.00  0.00    -0.020 A 
ATOM     23  C   LIG    1        9.427  -1.402  -0.096  0.00  0.00    +0.160 A 
ATOM     24  C   LIG    1        9.667  -0.038  -0.090  0.00  0.00    -0.040 A 
ATOM     25  F   LIG    1       10.464  -2.268  -0.111  0.00  0.00    -0.120 F 
ATOM     26  C   LIG    1        8.610   0.852  -0.076  0.00  0.00    +0.190 A 
ATOM     27  F   LIG    1        8.845   2.182  -0.070  0.00  0.00    -0.100 F 
ENDBRANCH  18  20
ENDBRANCH  15  16
ENDBRANCH   1  15
TORSDOF 7
