REMARK  Name = ZINCqH0000007NML.0
REMARK                            x       y       z     vdW  Elec       q    Type
REMARK                         _______ _______ _______ _____ _____    ______ ____
ROOT
ATOM      1  C   LIG    1        2.460   1.026   0.106  0.00  0.00    +0.260 C 
ENDROOT
BRANCH   1   3
ATOM      2  C   LIG    1        4.756   1.709  -0.336  0.00  0.00    +0.570 C 
ATOM      3  N   LIG    1        3.519   2.038   0.086  0.00  0.00    -0.710 N 
ATOM      4  H   LIG    1        3.331   2.944   0.376  0.00  0.00    +0.410 HD
ATOM      5  O   LIG    1        4.993   0.573  -0.700  0.00  0.00    -0.510 OA
BRANCH   2  11
ATOM      6  C   LIG    1        7.113   2.389  -0.790  0.00  0.00    +0.190 A 
ATOM      7  C   LIG    1        8.107   3.356  -0.811  0.00  0.00    -0.080 A 
ATOM      8  C   LIG    1        7.829   4.643  -0.396  0.00  0.00    +0.080 A 
ATOM      9  C   LIG    1        6.558   4.980   0.037  0.00  0.00    -0.040 A 
ATOM     10  C   LIG    1        5.556   4.034   0.059  0.00  0.00    +0.080 A 
ATOM     11  C   LIG    1        5.824   2.728  -0.357  0.00  0.00    -0.180 A 
BRANCH   6  13
ATOM     12  C   LIG    1        8.723   0.851  -1.619  0.00  0.00    +0.240 C 
ATOM     13  O   LIG    1        7.386   1.122  -1.191  0.00  0.00    -0.280 OA
ENDBRANCH   6  13
ENDBRANCH   2  11
ENDBRANCH   1   3
BRANCH   1  14
ATOM     14  C   LIG    1        1.117   1.703   0.007  0.00  0.00    +0.520 C 
ATOM     15  N   LIG    1       -0.011   0.966   0.007  0.00  0.00    -0.670 N 
ATOM     16  H   LIG    1        0.043  -0.003   0.004  0.00  0.00    +0.410 HD
ATOM     17  O   LIG    1        1.052   2.912  -0.073  0.00  0.00    -0.510 OA
BRANCH  15  18
ATOM     18  C   LIG    1       -1.260   1.597   0.007  0.00  0.00    +0.150 A 
ATOM     19  C   LIG    1       -1.435   2.791  -0.680  0.00  0.00    +0.010 A 
ATOM     20  C   LIG    1       -2.671   3.409  -0.684  0.00  0.00    -0.060 A 
ATOM     21  C   LIG    1       -3.729   2.846   0.005  0.00  0.00    -0.010 A 
ATOM     22  C   LIG    1       -3.556   1.661   0.695  0.00  0.00    -0.060 A 
ATOM     23  C   LIG    1       -4.712   1.050   1.445  0.00  0.00    +0.090 C 
ATOM     24  C   LIG    1       -2.864   4.701  -1.435  0.00  0.00    +0.100 C 
ATOM     25  C   LIG    1       -2.325   1.035   0.698  0.00  0.00    -0.020 A 
ENDBRANCH  15  18
ENDBRANCH   1  14
BRANCH   1  26
ATOM     26  C   LIG    1        2.536   0.234   1.413  0.00  0.00    -0.020 C 
ATOM     27  C   LIG    1        2.356   1.186   2.598  0.00  0.00    +0.020 C 
ATOM     28  C   LIG    1        3.899  -0.453   1.514  0.00  0.00    +0.040 C 
ENDBRANCH   1  26
TORSDOF 6
