REMARK  Name = ZINCrD00000lWDB8.0
REMARK                            x       y       z     vdW  Elec       q    Type
REMARK                         _______ _______ _______ _____ _____    ______ ____
ROOT
ATOM      1  C   LIG    1        0.607  -2.171  -1.022  0.00  0.00    -0.010 C 
ATOM      2  C   LIG    1        1.342  -2.682   0.220  0.00  0.00    +0.030 C 
ATOM      3  C   LIG    1        1.330  -4.214   0.221  0.00  0.00    +0.280 C 
ATOM      4  N   LIG    1        1.889  -4.692  -1.051  0.00  0.00    -0.610 N 
ATOM      5  C   LIG    1        1.314  -4.192  -2.308  0.00  0.00    +0.270 C 
ATOM      6  C   LIG    1        2.909  -5.572  -1.065  0.00  0.00    +0.550 C 
ATOM      7  O   LIG    1        3.439  -5.905  -0.022  0.00  0.00    -0.540 OA
ATOM      8  C   LIG    1        1.326  -2.660  -2.280  0.00  0.00    +0.050 C 
ENDROOT
BRANCH   1  10
ATOM      9  O   LIG    1        1.098  -0.043  -1.916  0.00  0.00    -0.530 OA
ATOM     10  C   LIG    1        0.587  -0.664  -1.009  0.00  0.00    +0.520 C 
ATOM     11  N   LIG    1        0.001  -0.007   0.012  0.00  0.00    -0.730 N 
ATOM     12  H   LIG    1       -0.408  -0.503   0.738  0.00  0.00    +0.400 HD
BRANCH  11  13
ATOM     13  C   LIG    1       -0.018   1.458   0.025  0.00  0.00    +0.320 C 
BRANCH  13  14
ATOM     14  C   LIG    1       -0.727   1.940   1.264  0.00  0.00    -0.150 A 
ATOM     15  C   LIG    1       -0.001   2.463   2.317  0.00  0.00    +0.070 A 
ATOM     16  C   LIG    1       -0.650   2.906   3.454  0.00  0.00    +0.000 A 
ATOM     17  C   LIG    1       -2.028   2.826   3.539  0.00  0.00    +0.060 A 
ATOM     18  C   LIG    1       -2.757   2.303   2.488  0.00  0.00    -0.020 A 
ATOM     19  C   LIG    1       -2.107   1.865   1.346  0.00  0.00    +0.110 A 
ATOM     20  F   LIG    1       -2.820   1.359   0.316  0.00  0.00    -0.130 F 
ENDBRANCH  13  14
ENDBRANCH  11  13
ENDBRANCH   1  10
BRANCH   6  21
ATOM     21  C   LIG    1        3.381  -6.126  -2.336  0.00  0.00    -0.090 C 
ATOM     22  C   LIG    1        4.333  -7.081  -2.343  0.00  0.00    +0.130 C 
BRANCH  22  23
ATOM     23  C   LIG    1        4.807  -7.638  -3.620  0.00  0.00    -0.080 A 
ATOM     24  C   LIG    1        4.268  -7.185  -4.828  0.00  0.00    +0.030 A 
ATOM     25  C   LIG    1        4.721  -7.708  -6.021  0.00  0.00    +0.010 A 
ATOM     26  C   LIG    1        5.698  -8.688  -6.024  0.00  0.00    +0.020 A 
ATOM     27  C   LIG    1        6.232  -9.146  -4.832  0.00  0.00    +0.010 A 
ATOM     28  C   LIG    1        5.794  -8.628  -3.631  0.00  0.00    +0.040 A 
ENDBRANCH  22  23
ENDBRANCH   6  21
TORSDOF 5
