REMARK  Name = ZINCnE000004ucVC.0
REMARK                            x       y       z     vdW  Elec       q    Type
REMARK                         _______ _______ _______ _____ _____    ______ ____
ROOT
ATOM      1  C   LIG    1       -5.867   0.097  -6.502  0.00  0.00    -0.160 A 
ATOM      2  C   LIG    1       -6.549  -1.057  -6.575  0.00  0.00    +0.230 A 
ATOM      3  N   LIG    1       -6.167  -1.890  -5.557  0.00  0.00    -0.580 N 
ATOM      4  H   LIG    1       -6.522  -2.779  -5.404  0.00  0.00    +0.420 HD
ATOM      5  C   LIG    1       -5.207  -1.281  -4.785  0.00  0.00    +0.280 A 
ATOM      6  N   LIG    1       -4.534  -1.665  -3.708  0.00  0.00    -0.500 NA
ATOM      7  C   LIG    1       -3.644  -0.888  -3.132  0.00  0.00    +0.320 A 
ATOM      8  C   LIG    1       -3.361   0.387  -3.628  0.00  0.00    -0.090 A 
ATOM      9  C   LIG    1       -4.043   0.844  -4.755  0.00  0.00    +0.100 A 
ATOM     10  C   LIG    1       -4.977  -0.008  -5.344  0.00  0.00    -0.140 A 
ENDROOT
BRANCH   8  11
ATOM     11  C   LIG    1       -2.352   1.246  -2.961  0.00  0.00    -0.080 A 
ATOM     12  C   LIG    1       -2.076   2.517  -3.462  0.00  0.00    +0.030 A 
ATOM     13  C   LIG    1       -1.137   3.313  -2.839  0.00  0.00    -0.090 A 
ATOM     14  C   LIG    1       -0.469   2.851  -1.714  0.00  0.00    +0.140 A 
ATOM     15  C   LIG    1       -0.742   1.585  -1.213  0.00  0.00    -0.040 A 
ATOM     16  C   LIG    1       -1.675   0.782  -1.834  0.00  0.00    +0.060 A 
BRANCH  14  17
ATOM     17  O   LIG    1        0.456   3.637  -1.103  0.00  0.00    -0.300 OA
ATOM     18  C   LIG    1        0.687   4.928  -1.672  0.00  0.00    +0.220 C 
ENDBRANCH  14  17
BRANCH  15  19
ATOM     19  C   LIG    1       -0.013   1.086   0.008  0.00  0.00    -0.010 C 
BRANCH  19  20
ATOM     20  C   LIG    1       -0.718   1.572   1.248  0.00  0.00    +0.500 C 
ATOM     21  O   LIG    1       -0.287   1.277   2.350  0.00  0.00    -0.700 OA
ATOM     22  O   LIG    1       -1.720   2.260   1.149  0.00  0.00    -0.690 OA
ENDBRANCH  19  20
ENDBRANCH  15  19
ENDBRANCH   8  11
BRANCH   1  24
ATOM     23  C   LIG    1       -4.922   1.181  -8.521  0.00  0.00    +0.010 C 
ATOM     24  C   LIG    1       -5.993   1.275  -7.433  0.00  0.00    +0.090 C 
ENDBRANCH   1  24
TORSDOF 5
