REMARK  Name = ZINCrD00000759rC.0
REMARK                            x       y       z     vdW  Elec       q    Type
REMARK                         _______ _______ _______ _____ _____    ______ ____
ROOT
ATOM      1  N   LIG    1        5.098   4.734   2.660  0.00  0.00    -0.650 N 
ATOM      2  H   LIG    1        5.201   3.870   3.089  0.00  0.00    +0.420 HD
ATOM      3  C   LIG    1        4.232   4.880   1.637  0.00  0.00    +0.530 C 
ATOM      4  O   LIG    1        4.104   5.960   1.101  0.00  0.00    -0.460 OA
ENDROOT
BRANCH   1   9
ATOM      5  C   LIG    1        8.812   4.367   6.950  0.00  0.00    +0.180 C 
ATOM      6  C   LIG    1        8.090   5.125   5.865  0.00  0.00    +0.040 A 
ATOM      7  C   LIG    1        7.178   4.598   5.037  0.00  0.00    -0.150 A 
ATOM      8  C   LIG    1        6.748   5.689   4.159  0.00  0.00    -0.260 A 
ATOM      9  C   LIG    1        5.844   5.820   3.099  0.00  0.00    +0.460 A 
ATOM     10  N   LIG    1        5.720   7.011   2.519  0.00  0.00    -0.520 NA
ATOM     11  C   LIG    1        6.425   8.046   2.938  0.00  0.00    +0.580 A 
ATOM     12  N   LIG    1        7.286   7.966   3.931  0.00  0.00    -0.530 NA
ATOM     13  C   LIG    1        7.482   6.816   4.569  0.00  0.00    +0.320 A 
ATOM     14  C   LIG    1        6.692   3.171   5.013  0.00  0.00    +0.130 C 
ATOM     15  O   LIG    1        8.267   6.430   5.588  0.00  0.00    -0.170 OA
ENDBRANCH   1   9
BRANCH   3  16
ATOM     16  C   LIG    1        3.423   3.701   1.161  0.00  0.00    -0.060 C 
ATOM     17  C   LIG    1        3.746   3.136  -0.224  0.00  0.00    +0.080 C 
ATOM     18  C   LIG    1        2.458   3.931  -0.003  0.00  0.00    +0.060 C 
BRANCH  18  19
ATOM     19  C   LIG    1        1.160   3.165   0.007  0.00  0.00    -0.050 A 
ATOM     20  C   LIG    1        1.175   1.783   0.000  0.00  0.00    +0.020 A 
ATOM     21  C   LIG    1       -0.013   1.076   0.008  0.00  0.00    +0.030 A 
ATOM     22  C   LIG    1       -1.223   1.752   0.017  0.00  0.00    +0.050 A 
ATOM     23  O   LIG    1       -2.385   1.043   0.014  0.00  0.00    -0.310 OA
ATOM     24  C   LIG    1       -3.569   1.746   0.404  0.00  0.00    +0.220 C 
ATOM     25  C   LIG    1       -3.589   3.095  -0.328  0.00  0.00    +0.220 C 
ATOM     26  O   LIG    1       -2.415   3.825   0.056  0.00  0.00    -0.310 OA
ATOM     27  C   LIG    1       -1.238   3.142   0.032  0.00  0.00    +0.050 A 
ATOM     28  C   LIG    1       -0.043   3.845   0.023  0.00  0.00    +0.040 A 
ENDBRANCH  18  19
ENDBRANCH   3  16
TORSDOF 3
