REMARK  Name = ZINCqH00000513v5.0
REMARK                            x       y       z     vdW  Elec       q    Type
REMARK                         _______ _______ _______ _____ _____    ______ ____
ROOT
ATOM      1  C   LIG    1        0.002  -0.004   0.002  0.00  0.00    +0.540 C 
ATOM      2  O   LIG    1        1.063  -0.598  -0.011  0.00  0.00    -0.490 OA
ENDROOT
BRANCH   1   3
ATOM      3  C   LIG    1       -1.258  -0.755   0.010  0.00  0.00    +0.000 A 
ATOM      4  C   LIG    1       -1.372  -2.114  -0.002  0.00  0.00    +0.080 A 
ATOM      5  C   LIG    1       -2.744  -2.427   0.015  0.00  0.00    -0.120 A 
ATOM      6  C   LIG    1       -3.449  -1.214   0.028  0.00  0.00    +0.110 A 
ATOM      7  C   LIG    1       -4.851  -1.219   0.041  0.00  0.00    +0.010 A 
ATOM      8  C   LIG    1       -5.558  -2.374   0.041  0.00  0.00    +0.070 A 
ATOM      9  C   LIG    1       -4.910  -3.627   0.029  0.00  0.00    -0.070 A 
ATOM     10  C   LIG    1       -5.642  -4.824   0.031  0.00  0.00    +0.040 A 
ATOM     11  C   LIG    1       -4.985  -6.018   0.019  0.00  0.00    -0.010 A 
ATOM     12  C   LIG    1       -3.595  -6.068   0.005  0.00  0.00    +0.030 A 
ATOM     13  C   LIG    1       -2.853  -4.922   0.003  0.00  0.00    +0.020 A 
ATOM     14  C   LIG    1       -3.496  -3.682   0.015  0.00  0.00    +0.010 A 
ATOM     15  N   LIG    1       -2.522  -0.201   0.025  0.00  0.00    -0.540 N 
ATOM     16  H   LIG    1       -2.723   0.748   0.032  0.00  0.00    +0.430 HD
ENDBRANCH   1   3
BRANCH   1  17
ATOM     17  O   LIG    1       -0.016   1.345   0.009  0.00  0.00    -0.350 OA
BRANCH  17  18
ATOM     18  C   LIG    1        1.268   2.021   0.001  0.00  0.00    +0.290 C 
BRANCH  18  22
ATOM     19  C   LIG    1        0.651   6.253   0.029  0.00  0.00    -0.130 A 
ATOM     20  C   LIG    1        0.763   5.553   1.232  0.00  0.00    +0.080 A 
ATOM     21  C   LIG    1        0.963   4.188   1.215  0.00  0.00    +0.040 A 
ATOM     22  C   LIG    1        1.051   3.512   0.011  0.00  0.00    -0.070 A 
ATOM     23  C   LIG    1        0.945   4.201  -1.185  0.00  0.00    +0.030 A 
ATOM     24  C   LIG    1        0.740   5.566  -1.182  0.00  0.00    +0.040 A 
BRANCH  19  28
ATOM     25  N   LIG    1        0.329   8.389  -1.123  0.00  0.00    -0.850 N 
ATOM     26  H   LIG    1        0.189   9.348  -1.117  0.00  0.00    +0.410 HD
ATOM     27  H   LIG    1        0.391   7.913  -1.966  0.00  0.00    +0.400 HD
ATOM     28  C   LIG    1        0.438   7.715   0.039  0.00  0.00    +0.560 C 
ATOM     29  O   LIG    1        0.360   8.311   1.096  0.00  0.00    -0.540 OA
ENDBRANCH  19  28
ENDBRANCH  18  22
ENDBRANCH  17  18
ENDBRANCH   1  17
TORSDOF 5
