REMARK  Name = ZINCrH000004mwQq.0
REMARK                            x       y       z     vdW  Elec       q    Type
REMARK                         _______ _______ _______ _____ _____    ______ ____
ROOT
ATOM      1  C   LIG    1       -2.478  -2.830  -0.206  0.00  0.00    +0.180 C 
ENDROOT
BRANCH   1   2
ATOM      2  N   LIG    1       -2.292  -4.219  -0.647  0.00  0.00    -0.510 NA
ATOM      3  C   LIG    1       -1.468  -4.279  -1.863  0.00  0.00    +0.150 C 
ATOM      4  C   LIG    1       -1.249  -5.743  -2.253  0.00  0.00    +0.200 C 
ATOM      5  O   LIG    1       -2.518  -6.379  -2.427  0.00  0.00    -0.380 OA
ATOM      6  C   LIG    1       -3.346  -6.340  -1.262  0.00  0.00    +0.160 C 
ATOM      7  C   LIG    1       -4.686  -7.014  -1.565  0.00  0.00    +0.050 C 
ATOM      8  C   LIG    1       -0.468  -6.455  -1.147  0.00  0.00    +0.030 C 
ATOM      9  C   LIG    1       -3.586  -4.882  -0.862  0.00  0.00    +0.150 C 
ENDBRANCH   1   2
BRANCH   1  10
ATOM     10  C   LIG    1       -3.352  -2.806   1.022  0.00  0.00    -0.090 A 
ATOM     11  C   LIG    1       -3.233  -3.802   1.974  0.00  0.00    +0.060 A 
ATOM     12  C   LIG    1       -4.031  -3.777   3.103  0.00  0.00    +0.010 A 
ATOM     13  C   LIG    1       -4.955  -2.763   3.274  0.00  0.00    +0.010 A 
ATOM     14  C   LIG    1       -5.077  -1.771   2.319  0.00  0.00    +0.000 A 
ATOM     15  C   LIG    1       -4.275  -1.792   1.194  0.00  0.00    +0.010 A 
ENDBRANCH   1  10
BRANCH   1  18
ATOM     16  N   LIG    1       -0.985  -0.883   0.108  0.00  0.00    -0.660 N 
ATOM     17  H   LIG    1       -1.753  -0.308  -0.038  0.00  0.00    +0.410 HD
ATOM     18  C   LIG    1       -1.138  -2.222   0.119  0.00  0.00    +0.520 C 
ATOM     19  O   LIG    1       -0.197  -2.938   0.392  0.00  0.00    -0.490 OA
BRANCH  16  26
ATOM     20  C   LIG    1        0.633   0.860  -0.343  0.00  0.00    +0.100 A 
ATOM     21  C   LIG    1        1.889   1.411  -0.142  0.00  0.00    -0.060 A 
ATOM     22  C   LIG    1        2.790   0.788   0.701  0.00  0.00    +0.040 A 
ATOM     23  C   LIG    1        2.443  -0.384   1.347  0.00  0.00    -0.100 A 
ATOM     24  C   LIG    1        1.193  -0.940   1.152  0.00  0.00    +0.060 A 
ATOM     25  C   LIG    1        3.430  -1.057   2.265  0.00  0.00    +0.100 C 
ATOM     26  C   LIG    1        0.283  -0.321   0.307  0.00  0.00    +0.120 A 
BRANCH  20  28
ATOM     27  C   LIG    1        0.176   2.676  -1.808  0.00  0.00    +0.250 C 
ATOM     28  O   LIG    1       -0.252   1.468  -1.176  0.00  0.00    -0.320 OA
ENDBRANCH  20  28
ENDBRANCH  16  26
ENDBRANCH   1  18
TORSDOF 5
