REMARK  Name = ZINCpk00000KfL0i.0
REMARK                            x       y       z     vdW  Elec       q    Type
REMARK                         _______ _______ _______ _____ _____    ______ ____
ROOT
ATOM      1  C   LIG    1       -2.376   0.754  -0.492  0.00  0.00    +0.330 C 
ATOM      2  N   LIG    1       -2.485  -0.546  -0.476  0.00  0.00    -0.280 NA
ATOM      3  N   LIG    1       -3.638  -1.162   0.023  0.00  0.00    -0.400 N 
ATOM      4  C   LIG    1       -4.774  -0.458   0.201  0.00  0.00    +0.480 C 
ATOM      5  C   LIG    1       -4.801   1.009  -0.158  0.00  0.00    +0.340 C 
ATOM      6  O   LIG    1       -5.764  -0.998   0.646  0.00  0.00    -0.500 OA
ATOM      7  N   LIG    1       -3.435   1.538  -0.025  0.00  0.00    -0.740 N 
ATOM      8  H   LIG    1       -3.273   2.406   0.377  0.00  0.00    +0.420 HD
ENDROOT
BRANCH   3   9
ATOM      9  C   LIG    1       -3.614  -2.526   0.335  0.00  0.00    +0.150 A 
ATOM     10  C   LIG    1       -2.581  -3.045   1.105  0.00  0.00    +0.020 A 
ATOM     11  C   LIG    1       -2.563  -4.391   1.416  0.00  0.00    +0.020 A 
ATOM     12  C   LIG    1       -3.566  -5.223   0.953  0.00  0.00    +0.010 A 
ATOM     13  C   LIG    1       -4.593  -4.710   0.181  0.00  0.00    +0.030 A 
ATOM     14  C   LIG    1       -4.620  -3.364  -0.129  0.00  0.00    +0.030 A 
ENDBRANCH   3   9
BRANCH   1  16
ATOM     15  O   LIG    1       -1.055   2.603  -1.023  0.00  0.00    -0.510 OA
ATOM     16  C   LIG    1       -1.149   1.390  -1.006  0.00  0.00    +0.590 C 
ATOM     17  N   LIG    1       -0.132   0.629  -1.455  0.00  0.00    -0.700 N 
ATOM     18  H   LIG    1       -0.207  -0.338  -1.441  0.00  0.00    +0.420 HD
BRANCH  17  19
ATOM     19  C   LIG    1        1.085   1.261  -1.970  0.00  0.00    +0.280 C 
BRANCH  19  20
ATOM     20  C   LIG    1        2.071   0.181  -2.419  0.00  0.00    +0.090 C 
BRANCH  20  21
ATOM     21  C   LIG    1        3.322   0.832  -2.949  0.00  0.00    -0.060 A 
ATOM     22  C   LIG    1        3.422   1.146  -4.291  0.00  0.00    +0.010 A 
ATOM     23  C   LIG    1        4.568   1.747  -4.779  0.00  0.00    +0.050 A 
ATOM     24  C   LIG    1        5.619   2.026  -3.926  0.00  0.00    -0.010 A 
ATOM     25  C   LIG    1        5.522   1.707  -2.582  0.00  0.00    +0.100 A 
ATOM     26  F   LIG    1        6.548   1.979  -1.747  0.00  0.00    -0.140 F 
ATOM     27  C   LIG    1        4.372   1.109  -2.094  0.00  0.00    -0.010 A 
ENDBRANCH  20  21
ENDBRANCH  19  20
ENDBRANCH  17  19
ENDBRANCH   1  16
TORSDOF 5
