REMARK  Name = ZINCrH000004m7MW.0
REMARK                            x       y       z     vdW  Elec       q    Type
REMARK                         _______ _______ _______ _____ _____    ______ ____
ROOT
ATOM      1  C   LIG    1       -0.215   1.680  -1.171  0.00  0.00    +0.180 A 
ATOM      2  C   LIG    1       -0.634   3.000  -1.110  0.00  0.00    +0.070 A 
ATOM      3  C   LIG    1        0.117   3.932  -0.415  0.00  0.00    -0.660 A 
ATOM      4  C   LIG    1        1.281   3.549   0.222  0.00  0.00    +0.110 A 
ATOM      5  C   LIG    1        1.702   2.232   0.170  0.00  0.00    -0.050 A 
ATOM      6  C   LIG    1        0.957   1.293  -0.523  0.00  0.00    +0.110 A 
ENDROOT
BRANCH   3   7
ATOM      7  S   LIG    1       -0.413   5.610  -0.344  0.00  0.00    +2.700 S 
ATOM      8  O   LIG    1        0.404   6.248   0.627  0.00  0.00    -0.950 OA
ATOM      9  O   LIG    1       -1.832   5.580  -0.268  0.00  0.00    -0.960 OA
BRANCH   7  10
ATOM     10  N   LIG    1       -0.038   6.305  -1.800  0.00  0.00    -1.110 NA
ATOM     11  H   LIG    1       -0.746   6.572  -2.407  0.00  0.00    +0.420 HD
BRANCH  10  12
ATOM     12  C   LIG    1        1.363   6.516  -2.171  0.00  0.00    +0.180 C 
ATOM     13  C   LIG    1        1.992   7.541  -1.226  0.00  0.00    +0.040 C 
ATOM     14  C   LIG    1        1.437   7.036  -3.608  0.00  0.00    +0.040 C 
ATOM     15  C   LIG    1        2.123   5.193  -2.067  0.00  0.00    +0.030 C 
ENDBRANCH  10  12
ENDBRANCH   7  10
ENDBRANCH   3   7
BRANCH   1  16
ATOM     16  N   LIG    1       -0.970   0.736  -1.878  0.00  0.00    -0.740 N 
ATOM     17  H   LIG    1       -0.677  -0.188  -1.917  0.00  0.00    +0.410 HD
BRANCH  16  18
ATOM     18  C   LIG    1       -2.201   1.145  -2.559  0.00  0.00    +0.300 C 
BRANCH  18  21
ATOM     19  C   LIG    1       -4.297  -1.936  -3.188  0.00  0.00    +0.120 A 
ATOM     20  C   LIG    1       -3.728  -0.837  -2.561  0.00  0.00    -0.050 A 
ATOM     21  C   LIG    1       -2.818  -0.050  -3.239  0.00  0.00    -0.080 A 
ATOM     22  C   LIG    1       -2.478  -0.353  -4.544  0.00  0.00    +0.000 A 
ATOM     23  C   LIG    1       -3.039  -1.452  -5.170  0.00  0.00    +0.040 A 
ATOM     24  C   LIG    1       -3.949  -2.242  -4.496  0.00  0.00    -0.110 A 
ATOM     25  C   LIG    1       -4.565  -3.435  -5.180  0.00  0.00    +0.100 C 
BRANCH  19  27
ATOM     26  C   LIG    1       -5.503  -2.337  -1.179  0.00  0.00    +0.250 C 
ATOM     27  O   LIG    1       -5.192  -2.712  -2.522  0.00  0.00    -0.310 OA
ENDBRANCH  19  27
ENDBRANCH  18  21
ENDBRANCH  16  18
ENDBRANCH   1  16
BRANCH   6  28
ATOM     28  O   LIG    1        1.370  -0.002  -0.575  0.00  0.00    -0.320 OA
ATOM     29  C   LIG    1        2.583  -0.324   0.107  0.00  0.00    +0.250 C 
ENDBRANCH   6  28
TORSDOF 8
