REMARK  Name = ZINCrD00000hQ5qW.0
REMARK                            x       y       z     vdW  Elec       q    Type
REMARK                         _______ _______ _______ _____ _____    ______ ____
ROOT
ATOM      1  C   LIG    1       -2.810   3.440  -4.675  0.00  0.00    +0.320 C 
ENDROOT
BRANCH   1   5
ATOM      2  C   LIG    1       -0.762   2.025  -1.204  0.00  0.00    -0.080 A 
ATOM      3  C   LIG    1       -0.105   2.082  -2.419  0.00  0.00    +0.000 A 
ATOM      4  C   LIG    1       -0.769   2.536  -3.543  0.00  0.00    +0.040 A 
ATOM      5  C   LIG    1       -2.087   2.941  -3.450  0.00  0.00    -0.110 A 
ATOM      6  C   LIG    1       -2.743   2.888  -2.235  0.00  0.00    +0.040 A 
ATOM      7  C   LIG    1       -2.080   2.430  -1.111  0.00  0.00    +0.020 A 
BRANCH   2   9
ATOM      8  C   LIG    1       -0.016  -0.004   0.011  0.00  0.00    +0.040 C 
ATOM      9  C   LIG    1       -0.039   1.526   0.021  0.00  0.00    +0.280 C 
BRANCH   9  10
ATOM     10  N   LIG    1        1.334   2.035   0.019  0.00  0.00    -0.720 N 
ATOM     11  H   LIG    1        1.760   2.278  -0.818  0.00  0.00    +0.400 HD
ATOM     12  C   LIG    1        2.006   2.167   1.180  0.00  0.00    +0.510 C 
ATOM     13  O   LIG    1        1.473   1.864   2.227  0.00  0.00    -0.510 OA
BRANCH  12  14
ATOM     14  C   LIG    1        3.419   2.691   1.178  0.00  0.00    +0.170 C 
ATOM     15 CL   LIG    1        4.040   2.751   2.869  0.00  0.00    -0.130 Cl
ENDBRANCH  12  14
ENDBRANCH   9  10
ENDBRANCH   2   9
ENDBRANCH   1   5
BRANCH   1  16
ATOM     16  N   LIG    1       -2.629   4.889  -4.792  0.00  0.00    -0.710 N 
ATOM     17  H   LIG    1       -2.105   5.368  -4.130  0.00  0.00    +0.410 HD
ATOM     18  C   LIG    1       -3.190   5.558  -5.819  0.00  0.00    +0.590 C 
ATOM     19  O   LIG    1       -3.768   4.948  -6.698  0.00  0.00    -0.540 OA
BRANCH  18  20
ATOM     20  C   LIG    1       -3.103   7.026  -5.876  0.00  0.00    -0.050 A 
ATOM     21  C   LIG    1       -2.396   7.851  -5.018  0.00  0.00    -0.030 A 
ATOM     22  C   LIG    1       -2.623   9.148  -5.481  0.00  0.00    +0.180 A 
ATOM     23  N   LIG    1       -3.404   9.070  -6.529  0.00  0.00    -0.270 NA
ATOM     24  N   LIG    1       -3.698   7.847  -6.791  0.00  0.00    -0.240 N 
BRANCH  24  25
ATOM     25  C   LIG    1       -4.546   7.402  -7.900  0.00  0.00    +0.270 C 
ATOM     26  C   LIG    1       -3.892   7.773  -9.247  0.00  0.00    +0.030 C 
ATOM     27  C   LIG    1       -5.086   8.169 -10.152  0.00  0.00    +0.030 C 
ATOM     28  C   LIG    1       -6.024   8.919  -9.172  0.00  0.00    +0.020 C 
ATOM     29  C   LIG    1       -5.901   8.130  -7.852  0.00  0.00    +0.030 C 
ENDBRANCH  24  25
ENDBRANCH  18  20
ENDBRANCH   1  16
TORSDOF 7
