REMARK  Name = ZINCrH000004tKjt.0
REMARK                            x       y       z     vdW  Elec       q    Type
REMARK                         _______ _______ _______ _____ _____    ______ ____
ROOT
ATOM      1  C   LIG    1       -0.108   6.262   0.035  0.00  0.00    +0.450 A 
ATOM      2  N   LIG    1        1.177   6.063   0.021  0.00  0.00    -0.590 NA
ATOM      3  C   LIG    1        1.735   4.832   0.010  0.00  0.00    +0.560 A 
ATOM      4  C   LIG    1        0.783   3.700   0.014  0.00  0.00    -0.230 A 
ATOM      5  C   LIG    1       -0.580   3.975   0.029  0.00  0.00    +0.050 A 
ATOM      6  S   LIG    1       -1.484   2.484   0.037  0.00  0.00    +0.180 S 
ATOM      7  C   LIG    1       -0.018   1.513   0.010  0.00  0.00    -0.200 A 
ATOM      8  C   LIG    1        0.002  -0.004   0.002  0.00  0.00    +0.120 C 
ATOM      9  C   LIG    1        1.392  -0.478  -0.429  0.00  0.00    +0.030 C 
ATOM     10  C   LIG    1        2.446   0.252   0.409  0.00  0.00    +0.020 C 
ATOM     11  C   LIG    1        2.491   1.721  -0.014  0.00  0.00    +0.110 C 
ATOM     12  C   LIG    1        1.076   2.285   0.004  0.00  0.00    -0.030 A 
ATOM     13  O   LIG    1        2.944   4.666  -0.002  0.00  0.00    -0.480 OA
ATOM     14  N   LIG    1       -1.034   5.278   0.040  0.00  0.00    -0.590 N 
ATOM     15  H   LIG    1       -1.983   5.479   0.051  0.00  0.00    +0.430 HD
ENDROOT
BRANCH   1  16
ATOM     16  C   LIG    1       -0.599   7.687   0.045  0.00  0.00    +0.170 C 
BRANCH  16  17
ATOM     17  C   LIG    1        0.599   8.638   0.037  0.00  0.00    +0.130 C 
BRANCH  17  19
ATOM     18  O   LIG    1       -1.081  10.295   0.060  0.00  0.00    -0.510 OA
ATOM     19  C   LIG    1        0.109  10.063   0.047  0.00  0.00    +0.510 C 
ATOM     20  N   LIG    1        0.993  11.080   0.042  0.00  0.00    -0.620 N 
ATOM     21  H   LIG    1        1.945  10.895   0.031  0.00  0.00    +0.430 HD
BRANCH  20  22
ATOM     22  C   LIG    1        0.541  12.395   0.052  0.00  0.00    +0.240 A 
ATOM     23  N   LIG    1        1.304  13.443   0.048  0.00  0.00    -0.500 NA
ATOM     24  C   LIG    1        0.705  14.618   0.059  0.00  0.00    +0.120 A 
ATOM     25  C   LIG    1       -0.628  14.561   0.072  0.00  0.00    -0.130 A 
ATOM     26  S   LIG    1       -1.103  12.865   0.063  0.00  0.00    +0.240 S 
BRANCH  24  27
ATOM     27  C   LIG    1        1.464  15.920   0.056  0.00  0.00    +0.030 C 
ATOM     28  C   LIG    1        0.692  17.188  -0.314  0.00  0.00    +0.030 C 
ATOM     29  C   LIG    1        1.704  16.595  -1.296  0.00  0.00    +0.030 C 
ENDBRANCH  24  27
ENDBRANCH  20  22
ENDBRANCH  17  19
ENDBRANCH  16  17
ENDBRANCH   1  16
TORSDOF 5
