REMARK  Name = ZINCkj00000a7Ui9.0
REMARK                            x       y       z     vdW  Elec       q    Type
REMARK                         _______ _______ _______ _____ _____    ______ ____
ROOT
ATOM      1  C   LIG    1       -0.013   1.086   0.008  0.00  0.00    +0.340 C 
ENDROOT
BRANCH   1   2
ATOM      2  C   LIG    1       -0.742   1.585  -1.213  0.00  0.00    -0.160 A 
ATOM      3  C   LIG    1       -1.750   0.824  -1.774  0.00  0.00    +0.070 A 
ATOM      4  C   LIG    1       -2.423   1.280  -2.892  0.00  0.00    -0.040 A 
ATOM      5  C   LIG    1       -2.081   2.500  -3.460  0.00  0.00    +0.100 A 
ATOM      6  O   LIG    1       -2.747   2.933  -4.565  0.00  0.00    -0.290 OA
ATOM      7  C   LIG    1       -2.632   4.324  -4.881  0.00  0.00    +0.250 C 
ATOM      8  C   LIG    1       -1.154   4.721  -4.773  0.00  0.00    +0.250 C 
ATOM      9  O   LIG    1       -0.718   4.464  -3.434  0.00  0.00    -0.300 OA
ATOM     10  C   LIG    1       -1.065   3.263  -2.897  0.00  0.00    +0.070 A 
ATOM     11 CL   LIG    1       -3.693   0.325  -3.591  0.00  0.00    -0.020 Cl
ATOM     12  C   LIG    1       -0.397   2.801  -1.773  0.00  0.00    +0.060 A 
ENDBRANCH   1   2
BRANCH   1  13
ATOM     13  N   LIG    1       -0.700   1.560   1.217  0.00  0.00    -0.510 N 
ATOM     14  H   LIG    1       -1.647   1.210   1.224  0.00  0.00    +0.430 HD
ATOM     15  H   LIG    1       -0.714   2.568   1.222  0.00  0.00    +0.430 HD
BRANCH  13  16
ATOM     16  C   LIG    1        0.010   1.073   2.407  0.00  0.00    +0.280 C 
BRANCH  16  21
ATOM     17  O   LIG    1       -0.079   4.711   4.958  0.00  0.00    -0.490 OA
ATOM     18  C   LIG    1       -0.154   3.523   4.715  0.00  0.00    +0.650 C 
ATOM     19  N   LIG    1       -0.814   3.033   3.657  0.00  0.00    -0.750 N 
ATOM     20  H   LIG    1       -1.286   3.560   2.993  0.00  0.00    +0.430 HD
ATOM     21  C   LIG    1       -0.706   1.566   3.666  0.00  0.00    +0.200 C 
ATOM     22  C   LIG    1        0.138   1.268   4.920  0.00  0.00    +0.300 C 
ATOM     23  O   LIG    1        0.413   2.584   5.481  0.00  0.00    -0.310 OA
ENDBRANCH  16  21
ENDBRANCH  13  16
ENDBRANCH   1  13
TORSDOF 4
