REMARK  Name = ZINCtV00000tKqiJ.0
REMARK                            x       y       z     vdW  Elec       q    Type
REMARK                         _______ _______ _______ _____ _____    ______ ____
ROOT
ATOM      1  C   LIG    1       -4.683   4.647  -0.311  0.00  0.00    -0.260 A 
ATOM      2  C   LIG    1       -5.869   4.515  -0.919  0.00  0.00    +0.030 A 
ATOM      3  C   LIG    1       -6.536   5.712  -1.206  0.00  0.00    -0.200 A 
ATOM      4  C   LIG    1       -7.787   5.926  -1.833  0.00  0.00    +0.260 A 
ATOM      5  N   LIG    1       -8.221   7.155  -2.000  0.00  0.00    -0.510 NA
ATOM      6  C   LIG    1       -7.507   8.203  -1.591  0.00  0.00    +0.430 A 
ATOM      7  N   LIG    1       -6.330   8.058  -1.000  0.00  0.00    -0.480 NA
ATOM      8  C   LIG    1       -8.614   4.756  -2.303  0.00  0.00    +0.170 C 
ATOM      9  C   LIG    1       -5.816   6.846  -0.791  0.00  0.00    +0.110 A 
ATOM     10  C   LIG    1       -6.446   3.168  -1.271  0.00  0.00    +0.140 C 
ATOM     11  S   LIG    1       -4.309   6.340  -0.039  0.00  0.00    +0.210 S 
ENDROOT
BRANCH   6  12
ATOM     12  C   LIG    1       -8.040   9.560  -1.803  0.00  0.00    +0.010 A 
ATOM     13  C   LIG    1       -7.434  10.724  -1.438  0.00  0.00    +0.040 A 
ATOM     14  C   LIG    1       -8.290  11.768  -1.833  0.00  0.00    -0.060 A 
ATOM     15  C   LIG    1       -9.371  11.199  -2.406  0.00  0.00    +0.210 A 
ATOM     16  O   LIG    1       -9.216   9.866  -2.386  0.00  0.00    -0.150 OA
ENDBRANCH   6  12
BRANCH   1  19
ATOM     17  N   LIG    1       -2.639   3.768   0.689  0.00  0.00    -0.670 N 
ATOM     18  H   LIG    1       -2.385   4.677   0.912  0.00  0.00    +0.410 HD
ATOM     19  C   LIG    1       -3.817   3.527   0.080  0.00  0.00    +0.600 C 
ATOM     20  O   LIG    1       -4.163   2.383  -0.146  0.00  0.00    -0.490 OA
BRANCH  17  27
ATOM     21  C   LIG    1       -1.880   1.999  -1.408  0.00  0.00    +0.100 C 
ATOM     22  C   LIG    1       -1.387   1.819   0.005  0.00  0.00    -0.070 A 
ATOM     23  C   LIG    1       -0.545   0.769   0.315  0.00  0.00    +0.020 A 
ATOM     24  C   LIG    1       -0.088   0.607   1.610  0.00  0.00    +0.020 A 
ATOM     25  C   LIG    1       -0.476   1.491   2.599  0.00  0.00    +0.020 A 
ATOM     26  C   LIG    1       -1.322   2.540   2.297  0.00  0.00    -0.080 A 
ATOM     27  C   LIG    1       -1.783   2.706   0.998  0.00  0.00    +0.130 A 
BRANCH  26  28
ATOM     28  C   LIG    1       -1.744   3.504   3.377  0.00  0.00    +0.010 C 
ATOM     29  C   LIG    1       -0.506   4.185   3.964  0.00  0.00    +0.030 C 
ATOM     30  C   LIG    1       -2.479   2.743   4.481  0.00  0.00    +0.040 C 
ENDBRANCH  26  28
ENDBRANCH  17  27
ENDBRANCH   1  19
TORSDOF 4
