REMARK  Name = ZINCpk00000xI9IH.0
REMARK                            x       y       z     vdW  Elec       q    Type
REMARK                         _______ _______ _______ _____ _____    ______ ____
ROOT
ATOM      1  C   LIG    1       -1.902   1.050   2.247  0.00  0.00    +0.050 C 
ATOM      2  C   LIG    1       -3.226   1.223   1.496  0.00  0.00    +0.310 C 
ATOM      3  N   LIG    1       -3.896  -0.075   1.397  0.00  0.00    -0.730 N 
ATOM      4  H   LIG    1       -4.864  -0.108   1.355  0.00  0.00    +0.420 HD
ATOM      5  C   LIG    1       -3.197  -1.220   1.365  0.00  0.00    +0.730 C 
ATOM      6  N   LIG    1       -1.857  -1.251   1.431  0.00  0.00    -0.730 N 
ATOM      7  H   LIG    1       -1.401  -2.107   1.412  0.00  0.00    +0.430 HD
ATOM      8  O   LIG    1       -3.802  -2.271   1.271  0.00  0.00    -0.570 OA
ATOM      9  C   LIG    1       -1.071  -0.021   1.531  0.00  0.00    +0.340 C 
ENDROOT
BRANCH   2  10
ATOM     10  C   LIG    1       -4.108   2.188   2.246  0.00  0.00    -0.150 A 
ATOM     11  C   LIG    1       -4.912   1.733   3.274  0.00  0.00    +0.060 A 
ATOM     12  C   LIG    1       -5.717   2.617   3.966  0.00  0.00    -0.070 A 
ATOM     13  C   LIG    1       -5.726   3.961   3.621  0.00  0.00    +0.140 A 
ATOM     14  C   LIG    1       -4.922   4.414   2.586  0.00  0.00    -0.010 A 
ATOM     15  C   LIG    1       -4.114   3.527   1.901  0.00  0.00    +0.090 A 
BRANCH  13  16
ATOM     16  O   LIG    1       -6.522   4.831   4.297  0.00  0.00    -0.310 OA
ATOM     17  C   LIG    1       -7.323   4.294   5.351  0.00  0.00    +0.250 C 
ENDBRANCH  13  16
ENDBRANCH   2  10
BRANCH   9  18
ATOM     18  C   LIG    1       -0.706   0.469   0.128  0.00  0.00    +0.420 C 
ATOM     19  F   LIG    1        0.045   1.645   0.225  0.00  0.00    -0.160 F 
ATOM     20  F   LIG    1        0.046  -0.513  -0.527  0.00  0.00    -0.170 F 
ATOM     21  F   LIG    1       -1.876   0.721  -0.597  0.00  0.00    -0.160 F 
ENDBRANCH   9  18
BRANCH   1  22
ATOM     22  C   LIG    1       -2.176   0.614   3.663  0.00  0.00    +0.490 C 
ATOM     23  O   LIG    1       -2.355  -0.554   3.912  0.00  0.00    -0.480 OA
BRANCH  22  24
ATOM     24  O   LIG    1       -2.222   1.525   4.648  0.00  0.00    -0.340 OA
BRANCH  24  26
ATOM     25  C   LIG    1       -2.506   2.208   6.968  0.00  0.00    +0.070 C 
ATOM     26  C   LIG    1       -2.491   1.034   5.988  0.00  0.00    +0.210 C 
ENDBRANCH  24  26
ENDBRANCH  22  24
ENDBRANCH   1  22
BRANCH   9  27
ATOM     27  O   LIG    1        0.123  -0.276   2.273  0.00  0.00    -0.510 OA
ATOM     28  H   LIG    1        0.696  -0.947   1.878  0.00  0.00    +0.400 HD
ENDBRANCH   9  27
TORSDOF 7
