REMARK  Name = ZINCvU0000000Dtq.0
REMARK                            x       y       z     vdW  Elec       q    Type
REMARK                         _______ _______ _______ _____ _____    ______ ____
ROOT
ATOM      1  C   LIG    1       -0.262   0.431  -0.440  0.00  0.00    +0.470 C 
ATOM      2  O   LIG    1        0.771  -0.113  -0.752  0.00  0.00    -0.490 OA
ENDROOT
BRANCH   1   8
ATOM      3  C   LIG    1       -4.510  -0.734   1.462  0.00  0.00    +0.560 C 
ATOM      4  N   LIG    1       -3.325  -1.200   1.020  0.00  0.00    -0.610 N 
ATOM      5  C   LIG    1       -3.192  -2.589   0.559  0.00  0.00    +0.270 C 
ATOM      6  C   LIG    1       -2.588  -2.585  -0.849  0.00  0.00    +0.030 C 
ATOM      7  C   LIG    1       -1.275  -1.798  -0.834  0.00  0.00    +0.050 C 
ATOM      8  C   LIG    1       -1.550  -0.350  -0.423  0.00  0.00    +0.030 C 
ATOM      9  C   LIG    1       -2.142  -0.329   0.990  0.00  0.00    +0.310 C 
ATOM     10  O   LIG    1       -4.592   0.395   1.905  0.00  0.00    -0.520 OA
BRANCH   3  15
ATOM     11  C   LIG    1       -9.180  -4.090   1.252  0.00  0.00    +0.100 C 
ATOM     12  C   LIG    1       -7.957  -3.211   1.307  0.00  0.00    -0.060 A 
ATOM     13  C   LIG    1       -6.792  -3.688   1.881  0.00  0.00    +0.010 A 
ATOM     14  C   LIG    1       -5.669  -2.888   1.934  0.00  0.00    +0.040 A 
ATOM     15  C   LIG    1       -5.710  -1.596   1.408  0.00  0.00    -0.130 A 
ATOM     16  C   LIG    1       -6.890  -1.120   0.836  0.00  0.00    +0.070 A 
ATOM     17  C   LIG    1       -8.005  -1.931   0.784  0.00  0.00    +0.010 A 
ENDBRANCH   3  15
ENDBRANCH   1   8
BRANCH   1  18
ATOM     18  O   LIG    1       -0.261   1.732  -0.108  0.00  0.00    -0.320 OA
BRANCH  18  19
ATOM     19  C   LIG    1        1.016   2.421  -0.147  0.00  0.00    +0.250 C 
BRANCH  19  20
ATOM     20  C   LIG    1        1.230   3.006  -1.519  0.00  0.00    -0.230 A 
ATOM     21  C   LIG    1        2.390   3.019  -2.178  0.00  0.00    +0.040 A 
ATOM     22  C   LIG    1        2.344   3.612  -3.427  0.00  0.00    +0.010 A 
ATOM     23  C   LIG    1        1.148   4.082  -3.784  0.00  0.00    -0.030 A 
ATOM     24  S   LIG    1       -0.014   3.771  -2.500  0.00  0.00    +0.150 S 
ENDBRANCH  19  20
BRANCH  19  25
ATOM     25  C   LIG    1        1.021   3.527   0.877  0.00  0.00    +0.430 C 
ATOM     26  O   LIG    1       -0.022   3.897   1.377  0.00  0.00    -0.410 OA
BRANCH  25  27
ATOM     27  C   LIG    1        2.239   4.133   1.256  0.00  0.00    -0.310 A 
ATOM     28  C   LIG    1        2.374   5.148   2.169  0.00  0.00    +0.130 A 
ATOM     29  C   LIG    1        3.674   5.545   2.349  0.00  0.00    -0.010 A 
ATOM     30  C   LIG    1        4.578   4.891   1.607  0.00  0.00    -0.050 A 
ATOM     31  S   LIG    1        3.827   3.713   0.628  0.00  0.00    +0.230 S 
ENDBRANCH  25  27
ENDBRANCH  19  25
ENDBRANCH  18  19
ENDBRANCH   1  18
TORSDOF 7
