REMARK  Name = ZINCnE000005upOY.1
REMARK                            x       y       z     vdW  Elec       q    Type
REMARK                         _______ _______ _______ _____ _____    ______ ____
ROOT
ATOM      1  O   LIG    1        4.155  -0.763  -3.475  0.00  0.00    -0.540 OA
ATOM      2  C   LIG    1        3.669   0.249  -3.016  0.00  0.00    +0.500 C 
ATOM      3  N   LIG    1        2.460   0.629  -3.442  0.00  0.00    -0.720 N 
ATOM      4  H   LIG    1        2.020   0.096  -4.124  0.00  0.00    +0.400 HD
ATOM      5  C   LIG    1        1.772   1.810  -2.928  0.00  0.00    +0.220 C 
ATOM      6  C   LIG    1        2.770   2.736  -2.232  0.00  0.00    +0.220 C 
ATOM      7  N   LIG    1        3.561   1.946  -1.275  0.00  0.00    -0.490 NA
ATOM      8  C   LIG    1        4.450   1.023  -1.993  0.00  0.00    +0.240 C 
ENDROOT
BRANCH   8   9
ATOM      9  C   LIG    1        5.075   0.065  -1.011  0.00  0.00    -0.050 A 
ATOM     10  C   LIG    1        4.644  -1.246  -0.955  0.00  0.00    +0.040 A 
ATOM     11  C   LIG    1        5.221  -2.126  -0.058  0.00  0.00    +0.000 A 
ATOM     12  C   LIG    1        6.221  -1.692   0.790  0.00  0.00    +0.030 A 
ATOM     13  C   LIG    1        6.650  -0.379   0.739  0.00  0.00    +0.040 A 
ATOM     14  C   LIG    1        6.077   0.501  -0.162  0.00  0.00    -0.030 A 
ATOM     15 BR   LIG    1        6.663   2.297  -0.233  0.00  0.00    -0.030 Br
ENDBRANCH   8   9
BRANCH   7  16
ATOM     16  C   LIG    1        2.687   1.218  -0.344  0.00  0.00    +0.220 C 
BRANCH  16  17
ATOM     17  C   LIG    1        3.467   0.845   0.890  0.00  0.00    -0.040 A 
ATOM     18  C   LIG    1        3.360  -0.428   1.416  0.00  0.00    -0.150 A 
ATOM     19  C   LIG    1        4.074  -0.774   2.549  0.00  0.00    +0.020 A 
ATOM     20  C   LIG    1        4.898   0.154   3.158  0.00  0.00    -0.180 A 
ATOM     21  C   LIG    1        5.008   1.433   2.632  0.00  0.00    +0.280 A 
ATOM     22  O   LIG    1        5.818   2.346   3.228  0.00  0.00    -0.710 OA
ATOM     23  C   LIG    1        4.290   1.777   1.495  0.00  0.00    -0.140 A 
ATOM     24 CL   LIG    1        4.426   3.376   0.833  0.00  0.00    -0.090 Cl
ENDBRANCH  16  17
ENDBRANCH   7  16
TORSDOF 3
