REMARK  Name = ZINCqH0000007lok.0
REMARK                            x       y       z     vdW  Elec       q    Type
REMARK                         _______ _______ _______ _____ _____    ______ ____
ROOT
ATOM      1  C   LIG    1        0.221   3.779   1.128  0.00  0.00    +0.190 C 
ATOM      2  C   LIG    1        0.950   5.090   0.741  0.00  0.00    +0.050 C 
ATOM      3  C   LIG    1        1.079   4.973  -0.795  0.00  0.00    +0.020 C 
ATOM      4  C   LIG    1       -0.017   3.978  -1.216  0.00  0.00    +0.170 C 
ATOM      5  N   LIG    1       -0.740   3.583   0.012  0.00  0.00    -0.490 NA
ENDROOT
BRANCH   1  10
ATOM      6  C   LIG    1       -2.513   4.458   3.647  0.00  0.00    +0.090 A 
ATOM      7  C   LIG    1       -1.848   4.240   4.844  0.00  0.00    -0.040 A 
ATOM      8  C   LIG    1       -0.516   3.873   4.837  0.00  0.00    -0.040 A 
ATOM      9  C   LIG    1        0.154   3.718   3.634  0.00  0.00    +0.100 A 
ATOM     10  C   LIG    1       -0.509   3.942   2.436  0.00  0.00    -0.070 A 
ATOM     11  C   LIG    1       -1.841   4.309   2.443  0.00  0.00    +0.060 A 
BRANCH   6  13
ATOM     12  C   LIG    1       -4.454   4.954   4.929  0.00  0.00    +0.230 C 
ATOM     13  O   LIG    1       -3.824   4.819   3.653  0.00  0.00    -0.320 OA
ENDBRANCH   6  13
BRANCH   9  14
ATOM     14  O   LIG    1        1.464   3.352   3.627  0.00  0.00    -0.320 OA
ATOM     15  C   LIG    1        2.084   3.138   4.896  0.00  0.00    +0.230 C 
ENDBRANCH   9  14
ENDBRANCH   1  10
BRANCH   5  16
ATOM     16  C   LIG    1       -1.181   2.183  -0.063  0.00  0.00    +0.210 C 
BRANCH  16  17
ATOM     17  C   LIG    1       -2.216   2.041  -1.149  0.00  0.00    +0.510 C 
ATOM     18  N   LIG    1       -2.687   0.820  -1.475  0.00  0.00    -0.680 N 
ATOM     19  H   LIG    1       -2.303   0.028  -1.069  0.00  0.00    +0.410 HD
ATOM     20  O   LIG    1       -2.629   3.024  -1.726  0.00  0.00    -0.490 OA
BRANCH  18  21
ATOM     21  C   LIG    1       -3.729   0.697  -2.400  0.00  0.00    +0.150 A 
ATOM     22  C   LIG    1       -4.714   1.673  -2.473  0.00  0.00    +0.000 A 
ATOM     23  C   LIG    1       -5.739   1.552  -3.391  0.00  0.00    +0.030 A 
ATOM     24  C   LIG    1       -5.791   0.453  -4.229  0.00  0.00    -0.020 A 
ATOM     25  C   LIG    1       -4.815  -0.524  -4.155  0.00  0.00    -0.070 A 
ATOM     26  C   LIG    1       -4.876  -1.719  -5.071  0.00  0.00    +0.090 C 
ATOM     27  C   LIG    1       -3.785  -0.405  -3.244  0.00  0.00    -0.030 A 
ENDBRANCH  18  21
ENDBRANCH  16  17
ENDBRANCH   5  16
TORSDOF 6
