REMARK  Name = ZINCvU00000008Hj.0
REMARK                            x       y       z     vdW  Elec       q    Type
REMARK                         _______ _______ _______ _____ _____    ______ ____
ROOT
ATOM      1  C   LIG    1       -1.293   2.060   0.019  0.00  0.00    +0.550 C 
ATOM      2  N   LIG    1       -1.313   3.403   0.129  0.00  0.00    -0.610 N 
ATOM      3  C   LIG    1       -0.061   4.172   0.135  0.00  0.00    +0.280 C 
ATOM      4  C   LIG    1       -0.147   5.255  -0.952  0.00  0.00    +0.040 C 
ATOM      5  C   LIG    1       -1.404   6.098  -0.725  0.00  0.00    +0.090 C 
ATOM      6  C   LIG    1       -2.644   5.208  -0.833  0.00  0.00    +0.040 C 
ATOM      7  C   LIG    1       -2.586   4.125   0.250  0.00  0.00    +0.280 C 
ATOM      8  O   LIG    1       -2.337   1.441  -0.075  0.00  0.00    -0.540 OA
ENDROOT
BRANCH   5   9
ATOM      9  C   LIG    1       -1.474   7.185  -1.766  0.00  0.00    +0.100 A 
ATOM     10  N   LIG    1       -1.526   6.971  -3.027  0.00  0.00    -0.460 NA
ATOM     11  C   LIG    1       -1.590   8.040  -3.844  0.00  0.00    +0.080 A 
ATOM     12  C   LIG    1       -1.659   8.096  -5.250  0.00  0.00    +0.070 A 
ATOM     13  C   LIG    1       -1.711   9.296  -5.891  0.00  0.00    +0.030 A 
ATOM     14  C   LIG    1       -1.698  10.485  -5.176  0.00  0.00    +0.040 A 
ATOM     15  C   LIG    1       -1.632  10.461  -3.801  0.00  0.00    +0.060 A 
ATOM     16  C   LIG    1       -1.577   9.243  -3.128  0.00  0.00    -0.180 A 
ATOM     17  S   LIG    1       -1.488   8.854  -1.413  0.00  0.00    +0.100 S 
ENDBRANCH   5   9
BRANCH   1  19
ATOM     18  C   LIG    1        0.002  -0.004   0.007  0.00  0.00    +0.130 C 
ATOM     19  C   LIG    1       -0.016   1.345   0.015  0.00  0.00    -0.090 C 
BRANCH  18  23
ATOM     20  C   LIG    1        3.708  -2.072  -0.024  0.00  0.00    +0.120 A 
ATOM     21  C   LIG    1        3.688  -0.684  -0.017  0.00  0.00    -0.040 A 
ATOM     22  C   LIG    1        2.488  -0.009  -0.007  0.00  0.00    +0.040 A 
ATOM     23  C   LIG    1        1.284  -0.723  -0.004  0.00  0.00    -0.080 A 
ATOM     24  C   LIG    1        1.305  -2.122  -0.006  0.00  0.00    -0.010 A 
ATOM     25  C   LIG    1        2.513  -2.791  -0.022  0.00  0.00    +0.100 A 
BRANCH  25  26
ATOM     26  O   LIG    1        2.537  -4.151  -0.029  0.00  0.00    -0.300 OA
ATOM     27  C   LIG    1        1.275  -4.822  -0.025  0.00  0.00    +0.240 C 
ENDBRANCH  25  26
BRANCH  20  28
ATOM     28  O   LIG    1        4.895  -2.733  -0.034  0.00  0.00    -0.300 OA
BRANCH  28  29
ATOM     29  C   LIG    1        6.081  -1.935  -0.036  0.00  0.00    +0.220 C 
BRANCH  29  31
ATOM     30  C   LIG    1        8.291  -2.577  -0.853  0.00  0.00    +0.040 C 
ATOM     31  C   LIG    1        7.291  -2.834  -0.047  0.00  0.00    -0.040 C 
ENDBRANCH  29  31
ENDBRANCH  28  29
ENDBRANCH  20  28
ENDBRANCH  18  23
ENDBRANCH   1  19
TORSDOF 7
