REMARK  Name = ZINCrD0000074our.0
REMARK                            x       y       z     vdW  Elec       q    Type
REMARK                         _______ _______ _______ _____ _____    ______ ____
ROOT
ATOM      1  C   LIG    1        4.788   4.292  -0.021  0.00  0.00    +0.150 C 
ATOM      2  C   LIG    1        3.569   3.407  -0.014  0.00  0.00    +0.140 A 
ATOM      3  C   LIG    1        3.719   2.061  -0.023  0.00  0.00    -0.090 A 
ATOM      4  C   LIG    1        2.546   1.263  -0.009  0.00  0.00    +0.380 A 
ATOM      5  C   LIG    1        1.254   1.967   0.001  0.00  0.00    -0.030 A 
ATOM      6  N   LIG    1        1.251   3.284   0.008  0.00  0.00    -0.160 NA
ATOM      7  O   LIG    1        2.606   0.043  -0.011  0.00  0.00    -0.450 OA
ATOM      8  N   LIG    1        2.335   3.968   0.001  0.00  0.00    -0.270 N 
ENDROOT
BRANCH   8   9
ATOM      9  C   LIG    1        2.240   5.363   0.009  0.00  0.00    +0.110 A 
ATOM     10  C   LIG    1        2.308   6.059   1.210  0.00  0.00    +0.060 A 
ATOM     11  C   LIG    1        2.214   7.437   1.215  0.00  0.00    +0.050 A 
ATOM     12  C   LIG    1        2.052   8.125   0.026  0.00  0.00    +0.070 A 
ATOM     13  C   LIG    1        1.983   7.437  -1.171  0.00  0.00    +0.050 A 
ATOM     14  C   LIG    1        2.082   6.058  -1.185  0.00  0.00    -0.020 A 
ATOM     15 CL   LIG    1        2.002   5.196  -2.689  0.00  0.00    -0.040 Cl
ENDBRANCH   8   9
BRANCH   5  16
ATOM     16  C   LIG    1       -0.014   1.212   0.009  0.00  0.00    +0.590 C 
ATOM     17  N   LIG    1       -1.191   1.869   0.018  0.00  0.00    -0.720 N 
ATOM     18  H   LIG    1       -1.204   2.839   0.023  0.00  0.00    +0.410 HD
ATOM     19  O   LIG    1        0.002  -0.004   0.002  0.00  0.00    -0.490 OA
BRANCH  17  20
ATOM     20  C   LIG    1       -2.449   1.120   0.020  0.00  0.00    +0.270 C 
BRANCH  20  21
ATOM     21  C   LIG    1       -3.626   2.098   0.031  0.00  0.00    +0.080 C 
BRANCH  21  22
ATOM     22  C   LIG    1       -4.920   1.327   0.033  0.00  0.00    -0.120 A 
ATOM     23  C   LIG    1       -5.615   1.145   1.213  0.00  0.00    +0.050 A 
ATOM     24  C   LIG    1       -6.803   0.438   1.215  0.00  0.00    +0.000 A 
ATOM     25  C   LIG    1       -7.297  -0.088   0.037  0.00  0.00    +0.040 A 
ATOM     26  C   LIG    1       -6.604   0.091  -1.145  0.00  0.00    -0.010 A 
ATOM     27  C   LIG    1       -5.417   0.805  -1.150  0.00  0.00    +0.100 A 
ATOM     28  F   LIG    1       -4.742   0.987  -2.306  0.00  0.00    -0.140 F 
ENDBRANCH  21  22
ENDBRANCH  20  21
ENDBRANCH  17  20
ENDBRANCH   5  16
TORSDOF 5
