REMARK  Name = ZINCrg000000sBps.0
REMARK                            x       y       z     vdW  Elec       q    Type
REMARK                         _______ _______ _______ _____ _____    ______ ____
ROOT
ATOM      1  C   LIG    1       -2.316   0.753  -1.458  0.00  0.00    +0.450 C 
ATOM      2  O   LIG    1       -1.738  -0.081  -2.125  0.00  0.00    -0.490 OA
ENDROOT
BRANCH   1   6
ATOM      3  C   LIG    1       -5.075   4.843  -1.221  0.00  0.00    +0.350 C 
ATOM      4  N   LIG    1       -4.276   3.869  -1.967  0.00  0.00    -0.560 N 
ATOM      5  C   LIG    1       -3.719   2.826  -1.317  0.00  0.00    +0.570 A 
ATOM      6  C   LIG    1       -2.922   1.862  -2.086  0.00  0.00    -0.440 A 
ATOM      7  C   LIG    1       -2.776   2.083  -3.467  0.00  0.00    +0.550 A 
ATOM      8  N   LIG    1       -3.385   3.168  -4.030  0.00  0.00    -0.540 N 
ATOM      9  C   LIG    1       -3.244   3.404  -5.469  0.00  0.00    +0.350 C 
ATOM     10  O   LIG    1       -3.875   2.687  -0.118  0.00  0.00    -0.500 OA
ATOM     11  C   LIG    1       -4.106   4.026  -3.290  0.00  0.00    +0.710 A 
ATOM     12  O   LIG    1       -4.624   4.979  -3.838  0.00  0.00    -0.530 OA
BRANCH   7  13
ATOM     13  N   LIG    1       -2.044   1.228  -4.230  0.00  0.00    -0.810 N 
ATOM     14  H   LIG    1       -1.590   1.553  -5.024  0.00  0.00    +0.410 HD
ATOM     15  H   LIG    1       -1.975   0.293  -3.981  0.00  0.00    +0.440 HD
ENDBRANCH   7  13
ENDBRANCH   1   6
BRANCH   1  16
ATOM     16  C   LIG    1       -2.387   0.603   0.040  0.00  0.00    +0.200 C 
BRANCH  16  17
ATOM     17  N   LIG    1       -1.561  -0.537   0.458  0.00  0.00    -0.490 NA
ATOM     18  C   LIG    1       -0.113  -0.252   0.249  0.00  0.00    +0.190 C 
ATOM     19  C   LIG    1        0.068   1.251   0.470  0.00  0.00    -0.020 C 
ATOM     20  C   LIG    1        1.542   1.604   0.644  0.00  0.00    +0.010 C 
ATOM     21  C   LIG    1        2.067   0.891   1.896  0.00  0.00    +0.010 C 
ATOM     22  C   LIG    1        1.985  -0.616   1.656  0.00  0.00    +0.030 C 
ATOM     23  C   LIG    1        0.571  -1.057   1.369  0.00  0.00    +0.000 C 
ATOM     24  C   LIG    1       -0.377  -0.828   2.564  0.00  0.00    +0.040 C 
ATOM     25  C   LIG    1       -1.767  -0.844   1.887  0.00  0.00    +0.160 C 
BRANCH  25  26
ATOM     26  C   LIG    1       -2.668   0.216   2.522  0.00  0.00    +0.430 C 
ATOM     27  F   LIG    1       -2.735   0.004   3.904  0.00  0.00    -0.180 F 
ATOM     28  F   LIG    1       -3.952   0.127   1.974  0.00  0.00    -0.170 F 
ATOM     29  F   LIG    1       -2.141   1.488   2.271  0.00  0.00    -0.170 F 
ENDBRANCH  25  26
ENDBRANCH  16  17
ENDBRANCH   1  16
TORSDOF 5
