REMARK  Name = ZINCrH000004tGz4.0
REMARK                            x       y       z     vdW  Elec       q    Type
REMARK                         _______ _______ _______ _____ _____    ______ ____
ROOT
ATOM      1  O   LIG    1        3.541   3.008  -0.118  0.00  0.00    -0.510 OA
ATOM      2  C   LIG    1        3.556   1.795  -0.124  0.00  0.00    +0.520 C 
ATOM      3  N   LIG    1        2.402   1.106  -0.015  0.00  0.00    -0.680 N 
ATOM      4  H   LIG    1        2.419   0.139   0.046  0.00  0.00    +0.420 HD
ENDROOT
BRANCH   3   5
ATOM      5  C   LIG    1        1.181   1.788   0.008  0.00  0.00    +0.180 A 
ATOM      6  C   LIG    1        0.059   1.225  -0.586  0.00  0.00    -0.010 A 
ATOM      7  C   LIG    1       -1.145   1.903  -0.566  0.00  0.00    +0.090 A 
ATOM      8  C   LIG    1       -1.235   3.136   0.054  0.00  0.00    -0.200 A 
ATOM      9  C   LIG    1       -0.120   3.698   0.647  0.00  0.00    +0.090 A 
ATOM     10  C   LIG    1        1.087   3.028   0.626  0.00  0.00    +0.030 A 
BRANCH   8  11
ATOM     11  C   LIG    1       -2.551   3.870   0.079  0.00  0.00    +0.510 C 
ATOM     12  F   LIG    1       -2.623   4.658   1.233  0.00  0.00    -0.180 F 
ATOM     13  F   LIG    1       -3.601   2.945   0.080  0.00  0.00    -0.180 F 
ATOM     14  F   LIG    1       -2.651   4.687  -1.052  0.00  0.00    -0.180 F 
ENDBRANCH   8  11
ENDBRANCH   3   5
BRANCH   2  15
ATOM     15  C   LIG    1        4.864   1.058  -0.255  0.00  0.00    +0.090 C 
BRANCH  15  16
ATOM     16  C   LIG    1        6.009   2.067  -0.362  0.00  0.00    +0.060 C 
BRANCH  16  17
ATOM     17  C   LIG    1        7.337   1.319  -0.494  0.00  0.00    +0.370 C 
BRANCH  17  18
ATOM     18  N   LIG    1        8.434   2.284  -0.597  0.00  0.00    -0.140 N 
ATOM     19  N   LIG    1        9.093   2.770   0.397  0.00  0.00    -0.050 NA
ATOM     20  N   LIG    1        9.985   3.588  -0.052  0.00  0.00    -0.270 NA
ATOM     21  C   LIG    1        9.870   3.607  -1.388  0.00  0.00    +0.210 A 
ATOM     22  N   LIG    1        8.894   2.777  -1.695  0.00  0.00    -0.300 NA
BRANCH  21  23
ATOM     23  C   LIG    1       10.688   4.404  -2.336  0.00  0.00    -0.020 A 
ATOM     24  C   LIG    1       10.454   4.315  -3.707  0.00  0.00    +0.050 A 
ATOM     25  C   LIG    1       11.215   5.062  -4.584  0.00  0.00    +0.010 A 
ATOM     26  C   LIG    1       12.213   5.890  -4.105  0.00  0.00    +0.030 A 
ATOM     27  C   LIG    1       12.453   5.979  -2.746  0.00  0.00    +0.010 A 
ATOM     28  C   LIG    1       11.695   5.240  -1.859  0.00  0.00    +0.060 A 
ENDBRANCH  21  23
ENDBRANCH  17  18
ENDBRANCH  16  17
ENDBRANCH  15  16
ENDBRANCH   2  15
TORSDOF 7
