REMARK  Name = ZINCqH0000038nsO.2
REMARK                            x       y       z     vdW  Elec       q    Type
REMARK                         _______ _______ _______ _____ _____    ______ ____
ROOT
ATOM      1  C   LIG    1        3.270   3.518   2.250  0.00  0.00    +0.210 C 
ENDROOT
BRANCH   1   6
ATOM      2  C   LIG    1        2.359   3.877   0.021  0.00  0.00    +0.160 C 
ATOM      3  C   LIG    1        2.919   3.876  -1.418  0.00  0.00    +0.040 C 
ATOM      4  C   LIG    1        4.447   3.738  -1.253  0.00  0.00    +0.030 C 
ATOM      5  C   LIG    1        4.681   3.669   0.272  0.00  0.00    +0.160 C 
ATOM      6  N   LIG    1        3.393   3.178   0.826  0.00  0.00    -0.490 NA
BRANCH   2  12
ATOM      7  C   LIG    1       -2.642   3.891   0.193  0.00  0.00    +0.090 C 
ATOM      8  C   LIG    1       -1.340   3.134   0.160  0.00  0.00    -0.090 A 
ATOM      9  C   LIG    1       -1.343   1.752   0.175  0.00  0.00    +0.000 A 
ATOM     10  C   LIG    1       -0.147   1.057   0.149  0.00  0.00    +0.000 A 
ATOM     11  C   LIG    1        1.050   1.745   0.098  0.00  0.00    +0.040 A 
ATOM     12  C   LIG    1        1.053   3.128   0.077  0.00  0.00    -0.080 A 
ATOM     13  C   LIG    1       -0.141   3.822   0.109  0.00  0.00    +0.000 A 
ENDBRANCH   2  12
ENDBRANCH   1   6
BRANCH   1  14
ATOM     14  C   LIG    1        4.163   2.614   3.061  0.00  0.00    +0.520 C 
ATOM     15  N   LIG    1        4.214   2.743   4.402  0.00  0.00    -0.590 N 
ATOM     16  C   LIG    1        3.492   3.835   5.060  0.00  0.00    +0.300 C 
ATOM     17  O   LIG    1        4.835   1.770   2.507  0.00  0.00    -0.490 OA
BRANCH  15  18
ATOM     18  C   LIG    1        4.956   1.835   5.165  0.00  0.00    +0.200 A 
ATOM     19  C   LIG    1        4.310   0.965   6.033  0.00  0.00    +0.030 A 
ATOM     20  C   LIG    1        5.045   0.066   6.781  0.00  0.00    +0.120 A 
ATOM     21  C   LIG    1        6.423   0.039   6.674  0.00  0.00    -0.050 A 
ATOM     22  C   LIG    1        7.070   0.907   5.813  0.00  0.00    +0.120 A 
ATOM     23  C   LIG    1        6.340   1.805   5.059  0.00  0.00    +0.040 A 
BRANCH  21  24
ATOM     24  N   LIG    1        7.208  -0.921   7.481  0.00  0.00    +0.030 N 
ATOM     25  O   LIG    1        6.640  -1.687   8.240  0.00  0.00    -0.160 OA
ATOM     26  O   LIG    1        8.422  -0.946   7.388  0.00  0.00    -0.160 OA
ENDBRANCH  21  24
ENDBRANCH  15  18
ENDBRANCH   1  14
TORSDOF 5
