REMARK  Name = ZINCpk00000y6x5P.0
REMARK                            x       y       z     vdW  Elec       q    Type
REMARK                         _______ _______ _______ _____ _____    ______ ____
ROOT
ATOM      1  C   LIG    1       -0.022   1.096   0.005  0.00  0.00    +0.250 C 
ATOM      2  C   LIG    1       -0.619   1.652  -1.315  0.00  0.00    +0.030 C 
ATOM      3  C   LIG    1        0.610   1.604  -2.257  0.00  0.00    +0.260 C 
ATOM      4  N   LIG    1        1.756   1.964  -1.401  0.00  0.00    -0.610 N 
ATOM      5  C   LIG    1        2.920   2.492  -1.829  0.00  0.00    +0.610 C 
ATOM      6  O   LIG    1        3.763   2.838  -1.024  0.00  0.00    -0.510 OA
ATOM      7  C   LIG    1        1.417   1.653  -0.005  0.00  0.00    +0.260 C 
ENDROOT
BRANCH   5   8
ATOM      8  C   LIG    1        3.171   2.648  -3.271  0.00  0.00    -0.030 A 
ATOM      9  C   LIG    1        3.040   3.807  -4.016  0.00  0.00    -0.150 A 
ATOM     10  C   LIG    1        3.389   3.449  -5.320  0.00  0.00    +0.200 A 
ATOM     11  N   LIG    1        3.697   2.177  -5.319  0.00  0.00    -0.280 NA
ATOM     12  C   LIG    1        2.612   5.166  -3.524  0.00  0.00    +0.120 C 
ATOM     13  N   LIG    1        3.587   1.680  -4.140  0.00  0.00    -0.270 N 
ATOM     14  C   LIG    1        3.861   0.286  -3.783  0.00  0.00    +0.370 C 
ENDBRANCH   5   8
BRANCH   1  15
ATOM     15  N   LIG    1       -0.763   1.597   1.165  0.00  0.00    -0.690 N 
ATOM     16  H   LIG    1       -0.483   2.416   1.603  0.00  0.00    +0.420 HD
BRANCH  15  22
ATOM     17  C   LIG    1       -5.944  -3.478   1.814  0.00  0.00    +0.150 C 
ATOM     18  C   LIG    1       -4.996  -2.310   1.903  0.00  0.00    +0.040 A 
ATOM     19  C   LIG    1       -3.947  -2.079   1.079  0.00  0.00    +0.170 A 
ATOM     20  N   LIG    1       -3.351  -0.927   1.498  0.00  0.00    -0.240 N 
ATOM     21  N   LIG    1       -2.245  -0.206   1.036  0.00  0.00    -0.350 NA
ATOM     22  C   LIG    1       -1.870   0.897   1.638  0.00  0.00    +0.420 A 
ATOM     23  C   LIG    1       -2.577   1.385   2.753  0.00  0.00    -0.050 A 
ATOM     24  C   LIG    1       -3.659   0.710   3.223  0.00  0.00    +0.180 A 
ATOM     25  C   LIG    1       -4.060  -0.478   2.581  0.00  0.00    +0.140 A 
ATOM     26  N   LIG    1       -5.050  -1.331   2.807  0.00  0.00    -0.450 NA
ENDBRANCH  15  22
ENDBRANCH   1  15
TORSDOF 3
