REMARK  Name = ZINCAx00000009Q5.0
REMARK                            x       y       z     vdW  Elec       q    Type
REMARK                         _______ _______ _______ _____ _____    ______ ____
ROOT
ATOM      1  C   LIG    1        5.439  10.379   5.450  0.00  0.00    +0.310 C 
ENDROOT
BRANCH   1   2
ATOM      2  N   LIG    1        6.019  11.660   5.040  0.00  0.00    -0.570 N 
ATOM      3  C   LIG    1        7.282  11.718   4.603  0.00  0.00    +0.530 C 
ATOM      4  S   LIG    1        7.611  13.413   4.204  0.00  0.00    -0.010 S 
ATOM      5  C   LIG    1        5.994  13.983   4.663  0.00  0.00    -0.240 C 
ATOM      6  C   LIG    1        5.511  15.251   4.618  0.00  0.00    +0.250 C 
ATOM      7  O   LIG    1        8.056  10.786   4.499  0.00  0.00    -0.420 OA
ATOM      8  C   LIG    1        5.299  12.768   5.102  0.00  0.00    +0.550 C 
ATOM      9  O   LIG    1        4.147  12.778   5.495  0.00  0.00    -0.450 OA
BRANCH   6  10
ATOM     10  C   LIG    1        4.087  15.504   4.871  0.00  0.00    -0.130 A 
ATOM     11  C   LIG    1        3.117  14.641   4.346  0.00  0.00    +0.130 A 
ATOM     12  C   LIG    1        1.783  14.880   4.590  0.00  0.00    -0.060 A 
ATOM     13  C   LIG    1        1.399  15.981   5.346  0.00  0.00    +0.130 A 
ATOM     14  C   LIG    1        2.357  16.844   5.865  0.00  0.00    -0.010 A 
ATOM     15  C   LIG    1        3.694  16.611   5.632  0.00  0.00    +0.100 A 
BRANCH  13  16
ATOM     16  O   LIG    1        0.082  16.215   5.579  0.00  0.00    -0.320 OA
BRANCH  16  17
ATOM     17  C   LIG    1       -0.851  15.290   5.017  0.00  0.00    +0.600 C 
ATOM     18  F   LIG    1       -0.601  14.010   5.523  0.00  0.00    -0.200 F 
ATOM     19  F   LIG    1       -0.713  15.276   3.625  0.00  0.00    -0.200 F 
ENDBRANCH  16  17
ENDBRANCH  13  16
ENDBRANCH   6  10
ENDBRANCH   1   2
BRANCH   1  20
ATOM     20  C   LIG    1        4.775   9.710   4.245  0.00  0.00    +0.270 C 
BRANCH  20  23
ATOM     21  O   LIG    1        3.459   8.026   2.602  0.00  0.00    -0.530 OA
ATOM     22  C   LIG    1        3.555   7.659   3.754  0.00  0.00    +0.520 C 
ATOM     23  N   LIG    1        4.195   8.428   4.656  0.00  0.00    -0.730 N 
ATOM     24  H   LIG    1        4.272   8.135   5.577  0.00  0.00    +0.400 HD
BRANCH  22  25
ATOM     25  C   LIG    1        2.958   6.341   4.176  0.00  0.00    +0.040 C 
BRANCH  25  26
ATOM     26  C   LIG    1        2.295   5.671   2.971  0.00  0.00    +0.320 C 
BRANCH  26  27
ATOM     27  N   LIG    1        1.715   4.390   3.382  0.00  0.00    -0.590 N 
ATOM     28  C   LIG    1        2.397   3.217   3.342  0.00  0.00    +0.540 C 
ATOM     29  C   LIG    1        1.380   2.134   3.538  0.00  0.00    +0.000 C 
ATOM     30  C   LIG    1        1.786   0.903   4.322  0.00  0.00    +0.110 C 
ATOM     31  C   LIG    1        0.511   0.161   4.667  0.00  0.00    -0.040 C 
ATOM     32  C   LIG    1       -0.675   0.688   4.635  0.00  0.00    -0.040 C 
ATOM     33  C   LIG    1       -0.959   2.134   4.284  0.00  0.00    +0.110 C 
ATOM     34  C   LIG    1        0.346   2.888   4.430  0.00  0.00    +0.000 C 
ATOM     35  O   LIG    1        3.590   3.074   3.181  0.00  0.00    -0.460 OA
ATOM     36  C   LIG    1        0.442   4.262   3.839  0.00  0.00    +0.540 C 
ATOM     37  O   LIG    1       -0.440   5.091   3.780  0.00  0.00    -0.460 OA
ENDBRANCH  26  27
ENDBRANCH  25  26
ENDBRANCH  22  25
ENDBRANCH  20  23
ENDBRANCH   1  20
TORSDOF 9
