REMARK  Name = ZINCvU00000009OL.0
REMARK                            x       y       z     vdW  Elec       q    Type
REMARK                         _______ _______ _______ _____ _____    ______ ____
ROOT
ATOM      1  C   LIG    1        5.376  -2.386   1.675  0.00  0.00    +0.220 C 
ENDROOT
BRANCH   1   5
ATOM      2  C   LIG    1        2.758  -0.813   3.696  0.00  0.00    +0.110 A 
ATOM      3  C   LIG    1        3.281  -1.283   4.846  0.00  0.00    -0.060 A 
ATOM      4  S   LIG    1        4.714  -2.224   4.443  0.00  0.00    +0.220 S 
ATOM      5  C   LIG    1        4.481  -1.893   2.783  0.00  0.00    +0.020 A 
ATOM      6  N   LIG    1        3.435  -1.162   2.612  0.00  0.00    -0.440 NA
BRANCH   2  10
ATOM      7  C   LIG    1       -0.750   1.596   3.566  0.00  0.00    +0.110 A 
ATOM      8  C   LIG    1       -0.208   1.226   4.787  0.00  0.00    -0.030 A 
ATOM      9  C   LIG    1        0.929   0.444   4.832  0.00  0.00    +0.030 A 
ATOM     10  C   LIG    1        1.535   0.026   3.648  0.00  0.00    -0.020 A 
ATOM     11  C   LIG    1        0.988   0.394   2.420  0.00  0.00    +0.010 A 
ATOM     12  C   LIG    1       -0.148   1.182   2.380  0.00  0.00    +0.100 A 
BRANCH   7  14
ATOM     13  C   LIG    1       -2.435   2.756   4.780  0.00  0.00    +0.240 C 
ATOM     14  O   LIG    1       -1.870   2.366   3.526  0.00  0.00    -0.300 OA
ENDBRANCH   7  14
BRANCH  12  15
ATOM     15  O   LIG    1       -0.682   1.547   1.184  0.00  0.00    -0.310 OA
ATOM     16  C   LIG    1       -0.013   1.086   0.008  0.00  0.00    +0.240 C 
ENDBRANCH  12  15
ENDBRANCH   2  10
ENDBRANCH   1   5
BRANCH   1  17
ATOM     17  C   LIG    1        5.393  -3.893   1.677  0.00  0.00    +0.420 C 
ATOM     18  O   LIG    1        5.152  -4.501   2.699  0.00  0.00    -0.420 OA
BRANCH  17  19
ATOM     19  C   LIG    1        5.703  -4.626   0.443  0.00  0.00    -0.210 A 
ATOM     20  C   LIG    1        5.977  -3.927  -0.740  0.00  0.00    +0.100 A 
ATOM     21  C   LIG    1        6.271  -4.621  -1.891  0.00  0.00    -0.080 A 
ATOM     22  C   LIG    1        6.286  -6.011  -1.880  0.00  0.00    +0.170 A 
ATOM     23  C   LIG    1        6.008  -6.705  -0.707  0.00  0.00    -0.120 A 
ATOM     24  C   LIG    1        5.720  -6.026   0.442  0.00  0.00    +0.130 A 
BRANCH  23  25
ATOM     25  C   LIG    1        6.027  -8.212  -0.704  0.00  0.00    +0.040 C 
ATOM     26  C   LIG    1        4.648  -8.738  -0.298  0.00  0.00    +0.030 C 
ATOM     27  C   LIG    1        7.076  -8.708   0.293  0.00  0.00    +0.030 C 
ENDBRANCH  23  25
BRANCH  22  28
ATOM     28  O   LIG    1        6.571  -6.694  -3.018  0.00  0.00    -0.310 OA
ATOM     29  C   LIG    1        6.847  -5.919  -4.187  0.00  0.00    +0.250 C 
ENDBRANCH  22  28
ENDBRANCH  17  19
ENDBRANCH   1  17
BRANCH   1  30
ATOM     30  C   LIG    1        6.742  -1.879   1.884  0.00  0.00    +0.200 C 
ATOM     31  N   LIG    1        7.796  -1.488   2.045  0.00  0.00    -0.370 NA
ENDBRANCH   1  30
TORSDOF 9
