REMARK  Name = ZINCrH00000tj1jt.0
REMARK                            x       y       z     vdW  Elec       q    Type
REMARK                         _______ _______ _______ _____ _____    ______ ____
ROOT
ATOM      1  N   LIG    1       -1.949  -1.150  -1.569  0.00  0.00    -0.970 NA
ENDROOT
BRANCH   1   2
ATOM      2  S   LIG    1       -1.522  -0.909   0.013  0.00  0.00    +2.690 S 
ATOM      3  O   LIG    1       -2.508  -0.048   0.568  0.00  0.00    -0.950 OA
ATOM      4  O   LIG    1       -1.220  -2.190   0.547  0.00  0.00    -0.940 OA
BRANCH   2   5
ATOM      5  C   LIG    1       -0.013  -0.001   0.013  0.00  0.00    -0.660 A 
ATOM      6  C   LIG    1       -0.037   1.381   0.023  0.00  0.00    +0.120 A 
ATOM      7  C   LIG    1        1.148   2.094   0.024  0.00  0.00    -0.010 A 
ATOM      8  C   LIG    1        2.357   1.424   0.013  0.00  0.00    +0.070 A 
ATOM      9  C   LIG    1        2.381   0.042   0.004  0.00  0.00    -0.010 A 
ATOM     10  C   LIG    1        1.197  -0.670   0.004  0.00  0.00    +0.120 A 
ENDBRANCH   2   5
ENDBRANCH   1   2
BRANCH   1  11
ATOM     11  C   LIG    1       -2.792  -0.169  -2.258  0.00  0.00    +0.350 C 
BRANCH  11  13
ATOM     12  O   LIG    1       -0.713   0.680  -2.984  0.00  0.00    -0.500 OA
ATOM     13  C   LIG    1       -1.919   0.798  -3.016  0.00  0.00    +0.490 C 
ATOM     14  N   LIG    1       -2.480   1.794  -3.730  0.00  0.00    -0.670 N 
ATOM     15  H   LIG    1       -3.445   1.849  -3.811  0.00  0.00    +0.420 HD
BRANCH  14  16
ATOM     16  C   LIG    1       -1.670   2.749  -4.354  0.00  0.00    +0.150 A 
ATOM     17  C   LIG    1       -2.096   4.067  -4.450  0.00  0.00    +0.000 A 
ATOM     18  C   LIG    1       -1.291   5.009  -5.061  0.00  0.00    +0.040 A 
ATOM     19  C   LIG    1       -0.068   4.639  -5.588  0.00  0.00    +0.030 A 
ATOM     20  C   LIG    1        0.357   3.325  -5.500  0.00  0.00    -0.080 A 
ATOM     21  I   LIG    1        2.211   2.769  -6.301  0.00  0.00    -0.040 I 
ATOM     22  C   LIG    1       -0.441   2.380  -4.884  0.00  0.00    +0.060 A 
ENDBRANCH  14  16
ENDBRANCH  11  13
ENDBRANCH   1  11
BRANCH   1  23
ATOM     23  C   LIG    1       -1.484  -2.344  -2.279  0.00  0.00    +0.430 C 
BRANCH  23  24
ATOM     24  C   LIG    1       -2.541  -3.416  -2.206  0.00  0.00    -0.040 A 
ATOM     25  C   LIG    1       -3.538  -3.599  -3.090  0.00  0.00    -0.040 A 
ATOM     26  C   LIG    1       -4.288  -4.708  -2.637  0.00  0.00    -0.070 A 
ATOM     27  C   LIG    1       -3.706  -5.136  -1.503  0.00  0.00    +0.170 A 
ATOM     28  O   LIG    1       -2.644  -4.353  -1.249  0.00  0.00    -0.160 OA
ENDBRANCH  23  24
ENDBRANCH   1  23
TORSDOF 7
