REMARK  Name = ZINCrg000000tSGn.0
REMARK                            x       y       z     vdW  Elec       q    Type
REMARK                         _______ _______ _______ _____ _____    ______ ____
ROOT
ATOM      1  C   LIG    1        0.643  -0.497  -1.288  0.00  0.00    +0.250 C 
ATOM      2  C   LIG    1       -0.365  -0.016  -0.239  0.00  0.00    +0.020 C 
ATOM      3  C   LIG    1       -0.358   1.514  -0.195  0.00  0.00    +0.020 C 
ATOM      4  C   LIG    1        1.033   2.009   0.209  0.00  0.00    +0.010 C 
ATOM      5  C   LIG    1        2.056   1.550  -0.835  0.00  0.00    +0.260 C 
ATOM      6  N   LIG    1        1.955   0.093  -0.989  0.00  0.00    -0.620 N 
ATOM      7  C   LIG    1        3.045  -0.689  -0.858  0.00  0.00    +0.710 C 
ATOM      8  N   LIG    1        4.222  -0.147  -0.487  0.00  0.00    -0.740 N 
ATOM      9  H   LIG    1        4.269   0.790  -0.243  0.00  0.00    +0.400 HD
ATOM     10  O   LIG    1        2.967  -1.883  -1.074  0.00  0.00    -0.570 OA
ENDROOT
BRANCH   1  14
ATOM     11  O   LIG    1       -1.304  -4.844  -2.040  0.00  0.00    -0.540 OA
ATOM     12  C   LIG    1       -0.525  -3.914  -2.041  0.00  0.00    +0.520 C 
ATOM     13  C   LIG    1       -0.661  -2.669  -1.194  0.00  0.00    +0.040 C 
ATOM     14  C   LIG    1        0.743  -2.023  -1.240  0.00  0.00    +0.030 C 
ATOM     15  C   LIG    1        1.303  -2.581  -2.567  0.00  0.00    +0.280 C 
ATOM     16  N   LIG    1        0.585  -3.841  -2.796  0.00  0.00    -0.730 N 
ATOM     17  H   LIG    1        0.875  -4.532  -3.412  0.00  0.00    +0.410 HD
ENDBRANCH   1  14
BRANCH   8  18
ATOM     18  C   LIG    1        5.431  -0.974  -0.454  0.00  0.00    +0.270 C 
BRANCH  18  19
ATOM     19  C   LIG    1        6.619  -0.122  -0.003  0.00  0.00    +0.320 C 
BRANCH  19  20
ATOM     20  N   LIG    1        7.828  -0.949   0.030  0.00  0.00    -0.540 N 
ATOM     21  C   LIG    1        8.686  -1.132  -0.991  0.00  0.00    +0.680 A 
ATOM     22  N   LIG    1        9.682  -1.952  -0.605  0.00  0.00    -0.640 N 
ATOM     23  H   LIG    1       10.426  -2.240  -1.157  0.00  0.00    +0.440 HD
ATOM     24  C   LIG    1        9.462  -2.316   0.721  0.00  0.00    +0.090 A 
ATOM     25  C   LIG    1       10.151  -3.123   1.613  0.00  0.00    +0.030 A 
ATOM     26  C   LIG    1        9.671  -3.295   2.897  0.00  0.00    +0.030 A 
ATOM     27  C   LIG    1        8.506  -2.664   3.297  0.00  0.00    +0.020 A 
ATOM     28  C   LIG    1        7.812  -1.858   2.415  0.00  0.00    +0.030 A 
ATOM     29  O   LIG    1        8.577  -0.633  -2.095  0.00  0.00    -0.550 OA
ATOM     30  C   LIG    1        8.289  -1.675   1.126  0.00  0.00    +0.090 A 
ENDBRANCH  19  20
ENDBRANCH  18  19
ENDBRANCH   8  18
TORSDOF 4
