REMARK  Name = ZINCnE000004t8XG.0
REMARK                            x       y       z     vdW  Elec       q    Type
REMARK                         _______ _______ _______ _____ _____    ______ ____
ROOT
ATOM      1  C   LIG    1       -1.272  -0.766   0.011  0.00  0.00    -0.040 A 
ATOM      2  C   LIG    1       -2.534  -0.252  -0.064  0.00  0.00    +0.240 A 
ATOM      3  N   LIG    1       -3.372  -1.313  -0.024  0.00  0.00    -0.260 N 
ATOM      4  N   LIG    1       -2.669  -2.385   0.076  0.00  0.00    -0.110 NA
ATOM      5  N   LIG    1       -1.415  -2.100   0.099  0.00  0.00    -0.270 NA
ENDROOT
BRANCH   1  10
ATOM      6  C   LIG    1        2.405   0.037  -0.021  0.00  0.00    +0.130 A 
ATOM      7  C   LIG    1        2.378   1.424  -0.013  0.00  0.00    -0.100 A 
ATOM      8  C   LIG    1        1.169   2.096   0.002  0.00  0.00    +0.050 A 
ATOM      9  C   LIG    1       -0.017   1.389   0.010  0.00  0.00    -0.010 A 
ATOM     10  C   LIG    1        0.002  -0.004   0.002  0.00  0.00    +0.060 A 
ATOM     11  C   LIG    1        1.219  -0.680  -0.013  0.00  0.00    +0.010 A 
BRANCH   6  12
ATOM     12  O   LIG    1        3.595  -0.619  -0.036  0.00  0.00    -0.320 OA
BRANCH  12  13
ATOM     13  C   LIG    1        4.778   0.182  -0.043  0.00  0.00    +0.180 C 
BRANCH  13  15
ATOM     14  C   LIG    1        7.276   0.133  -0.067  0.00  0.00    +0.030 C 
ATOM     15  C   LIG    1        6.009  -0.725  -0.059  0.00  0.00    +0.020 C 
ENDBRANCH  13  15
ENDBRANCH  12  13
ENDBRANCH   6  12
ENDBRANCH   1  10
BRANCH   3  16
ATOM     16  C   LIG    1       -4.835  -1.251  -0.078  0.00  0.00    +0.170 C 
BRANCH  16  17
ATOM     17  C   LIG    1       -5.256  -0.126  -0.988  0.00  0.00    +0.500 C 
ATOM     18  O   LIG    1       -6.441   0.098  -1.173  0.00  0.00    -0.660 OA
ATOM     19  O   LIG    1       -4.413   0.560  -1.540  0.00  0.00    -0.670 OA
ENDBRANCH  16  17
BRANCH  16  20
ATOM     20  C   LIG    1       -5.388  -1.004   1.327  0.00  0.00    +0.020 C 
BRANCH  20  21
ATOM     21  C   LIG    1       -6.916  -1.063   1.292  0.00  0.00    +0.010 C 
ATOM     22  C   LIG    1       -7.473  -0.694   2.668  0.00  0.00    +0.000 C 
ATOM     23  C   LIG    1       -7.363  -2.479   0.924  0.00  0.00    -0.000 C 
ENDBRANCH  20  21
ENDBRANCH  16  20
ENDBRANCH   3  16
TORSDOF 8
