REMARK  Name = ZINCpk000000n220.0
REMARK                            x       y       z     vdW  Elec       q    Type
REMARK                         _______ _______ _______ _____ _____    ______ ____
ROOT
ATOM      1  N   LIG    1       -2.506   5.704  -3.141  0.00  0.00    -0.680 N 
ATOM      2  H   LIG    1       -2.843   5.233  -3.918  0.00  0.00    +0.410 HD
ATOM      3  C   LIG    1       -1.793   5.041  -2.208  0.00  0.00    +0.510 C 
ATOM      4  O   LIG    1       -1.454   5.606  -1.190  0.00  0.00    -0.490 OA
ENDROOT
BRANCH   1   9
ATOM      5  C   LIG    1       -3.243   8.962  -1.578  0.00  0.00    -0.150 A 
ATOM      6  C   LIG    1       -3.257   9.790  -2.705  0.00  0.00    +0.050 A 
ATOM      7  C   LIG    1       -3.024   9.257  -3.955  0.00  0.00    +0.020 A 
ATOM      8  C   LIG    1       -2.770   7.905  -4.099  0.00  0.00    +0.020 A 
ATOM      9  C   LIG    1       -2.758   7.072  -2.987  0.00  0.00    +0.130 A 
ATOM     10  C   LIG    1       -2.991   7.595  -1.726  0.00  0.00    +0.090 A 
BRANCH   5  12
ATOM     11  C   LIG    1       -3.763  11.002  -0.086  0.00  0.00    +0.080 C 
ATOM     12  C   LIG    1       -3.492   9.528  -0.242  0.00  0.00    +0.390 C 
ATOM     13  O   LIG    1       -3.478   8.807   0.733  0.00  0.00    -0.450 OA
ENDBRANCH   5  12
ENDBRANCH   1   9
BRANCH   3  14
ATOM     14  C   LIG    1       -1.418   3.599  -2.430  0.00  0.00    +0.220 C 
BRANCH  14  15
ATOM     15  N   LIG    1       -0.526   3.152  -1.352  0.00  0.00    -0.520 NA
ATOM     16  C   LIG    1        0.763   3.855  -1.410  0.00  0.00    +0.190 C 
ATOM     17  C   LIG    1        1.631   3.422  -0.227  0.00  0.00    +0.240 C 
ATOM     18  N   LIG    1        1.826   1.966  -0.272  0.00  0.00    -0.460 N 
ATOM     19  C   LIG    1        0.537   1.263  -0.214  0.00  0.00    +0.230 C 
ATOM     20  C   LIG    1       -0.332   1.697  -1.398  0.00  0.00    +0.200 C 
BRANCH  18  21
ATOM     21  C   LIG    1        2.666   1.546   0.745  0.00  0.00    +0.490 A 
ATOM     22  N   LIG    1        3.169   2.443   1.580  0.00  0.00    -0.550 NA
ATOM     23  C   LIG    1        3.970   2.074   2.566  0.00  0.00    +0.340 A 
ATOM     24  C   LIG    1        4.292   0.734   2.711  0.00  0.00    -0.110 A 
ATOM     25  C   LIG    1        3.753  -0.177   1.815  0.00  0.00    +0.340 A 
ATOM     26  N   LIG    1        2.953   0.257   0.855  0.00  0.00    -0.530 NA
ENDBRANCH  18  21
ENDBRANCH  14  15
ENDBRANCH   3  14
TORSDOF 5
