REMARK  Name = ZINCrD0000075k9N.0
REMARK                            x       y       z     vdW  Elec       q    Type
REMARK                         _______ _______ _______ _____ _____    ______ ____
ROOT
ATOM      1  N   LIG    1        0.002  -0.004   0.002  0.00  0.00    -0.630 N 
ATOM      2  H   LIG    1       -0.831  -0.500   0.007  0.00  0.00    +0.420 HD
ATOM      3  C   LIG    1        1.178  -0.662  -0.012  0.00  0.00    +0.510 C 
ATOM      4  O   LIG    1        2.220  -0.041  -0.018  0.00  0.00    -0.480 OA
ENDROOT
BRANCH   1   6
ATOM      5  C   LIG    1       -1.152   2.144   0.019  0.00  0.00    -0.200 A 
ATOM      6  C   LIG    1       -0.017   1.382   0.010  0.00  0.00    +0.040 A 
ATOM      7  S   LIG    1        1.371   2.369   0.002  0.00  0.00    +0.300 S 
ATOM      8  C   LIG    1        0.422   3.847   0.019  0.00  0.00    -0.240 A 
ATOM      9  C   LIG    1        1.001   5.249   0.022  0.00  0.00    +0.120 C 
ATOM     10  C   LIG    1       -0.100   6.236  -0.377  0.00  0.00    +0.020 C 
ATOM     11  C   LIG    1       -1.344   5.968   0.475  0.00  0.00    +0.020 C 
ATOM     12  C   LIG    1       -1.970   4.638   0.046  0.00  0.00    +0.100 C 
ATOM     13  C   LIG    1       -0.887   3.571   0.030  0.00  0.00    -0.050 A 
BRANCH   5  17
ATOM     14  N   LIG    1       -3.129   1.320  -1.145  0.00  0.00    -0.850 N 
ATOM     15  H   LIG    1       -4.023   0.944  -1.144  0.00  0.00    +0.400 HD
ATOM     16  H   LIG    1       -2.685   1.513  -1.986  0.00  0.00    +0.400 HD
ATOM     17  C   LIG    1       -2.503   1.575   0.021  0.00  0.00    +0.590 C 
ATOM     18  O   LIG    1       -3.060   1.334   1.076  0.00  0.00    -0.530 OA
ENDBRANCH   5  17
ENDBRANCH   1   6
BRANCH   3  19
ATOM     19  C   LIG    1        1.199  -2.169  -0.021  0.00  0.00    +0.280 C 
BRANCH  19  20
ATOM     20  O   LIG    1        2.574  -2.634  -0.036  0.00  0.00    -0.330 OA
BRANCH  20  21
ATOM     21  C   LIG    1        2.769  -3.967  -0.044  0.00  0.00    +0.510 C 
ATOM     22  O   LIG    1        1.815  -4.721  -0.040  0.00  0.00    -0.480 OA
BRANCH  21  23
ATOM     23  C   LIG    1        4.139  -4.513  -0.060  0.00  0.00    -0.140 A 
ATOM     24  C   LIG    1        5.238  -3.649  -0.071  0.00  0.00    +0.140 A 
ATOM     25  C   LIG    1        6.516  -4.164  -0.079  0.00  0.00    +0.000 A 
ATOM     26  C   LIG    1        6.714  -5.537  -0.088  0.00  0.00    +0.160 A 
ATOM     27  C   LIG    1        5.629  -6.399  -0.084  0.00  0.00    +0.000 A 
ATOM     28  F   LIG    1        7.970  -6.035  -0.102  0.00  0.00    -0.120 F 
ATOM     29  C   LIG    1        4.345  -5.896  -0.069  0.00  0.00    +0.050 A 
ATOM     30 CL   LIG    1        2.986  -6.977  -0.063  0.00  0.00    -0.010 Cl
ENDBRANCH  21  23
ENDBRANCH  20  21
ENDBRANCH  19  20
ENDBRANCH   3  19
TORSDOF 6
