REMARK  Name = ZINCrD000000CGGn.0
REMARK                            x       y       z     vdW  Elec       q    Type
REMARK                         _______ _______ _______ _____ _____    ______ ____
ROOT
ATOM      1  N   LIG    1        4.710   0.106   0.067  0.00  0.00    -0.580 N 
ATOM      2  C   LIG    1        5.018   0.479  -1.191  0.00  0.00    +0.600 C 
ATOM      3  O   LIG    1        5.876   1.319  -1.383  0.00  0.00    -0.510 OA
ENDROOT
BRANCH   2   4
ATOM      4  C   LIG    1        4.314  -0.130  -2.333  0.00  0.00    -0.220 A 
ATOM      5  C   LIG    1        3.238  -0.967  -2.288  0.00  0.00    +0.190 A 
ATOM      6  O   LIG    1        2.902  -1.291  -3.540  0.00  0.00    -0.170 OA
ATOM      7  C   LIG    1        3.726  -0.706  -4.423  0.00  0.00    +0.180 A 
ATOM      8  C   LIG    1        4.630   0.031  -3.760  0.00  0.00    +0.000 A 
ENDBRANCH   2   4
BRANCH   1   9
ATOM      9  C   LIG    1        3.776  -0.999   0.295  0.00  0.00    +0.390 C 
BRANCH   9  13
ATOM     10  O   LIG    1        0.808   2.569   0.048  0.00  0.00    -0.470 OA
ATOM     11  C   LIG    1        0.959   1.369   0.200  0.00  0.00    +0.530 A 
ATOM     12  N   LIG    1        2.187   0.817   0.175  0.00  0.00    -0.570 NA
ATOM     13  C   LIG    1        2.367  -0.464   0.337  0.00  0.00    +0.400 A 
ATOM     14  N   LIG    1        1.361  -1.334   0.539  0.00  0.00    -0.630 N 
ATOM     15  H   LIG    1        1.556  -2.277   0.653  0.00  0.00    +0.420 HD
ATOM     16  C   LIG    1        0.054  -0.894   0.586  0.00  0.00    +0.170 A 
ATOM     17  C   LIG    1       -1.008  -1.764   0.793  0.00  0.00    -0.020 A 
ATOM     18  C   LIG    1       -2.296  -1.273   0.832  0.00  0.00    +0.090 A 
ATOM     19  C   LIG    1       -2.543   0.082   0.666  0.00  0.00    -0.010 A 
ATOM     20  C   LIG    1       -1.502   0.963   0.464  0.00  0.00    +0.110 A 
ATOM     21  C   LIG    1       -0.196   0.481   0.417  0.00  0.00    -0.210 A 
ENDBRANCH   9  13
ENDBRANCH   1   9
BRANCH   1  22
ATOM     22  C   LIG    1        5.311   0.805   1.206  0.00  0.00    +0.350 C 
BRANCH  22  23
ATOM     23  C   LIG    1        6.554   0.075   1.645  0.00  0.00    -0.110 A 
ATOM     24  C   LIG    1        6.463  -0.958   2.559  0.00  0.00    +0.010 A 
ATOM     25  C   LIG    1        7.604  -1.631   2.957  0.00  0.00    +0.000 A 
ATOM     26  C   LIG    1        8.836  -1.263   2.449  0.00  0.00    +0.010 A 
ATOM     27  C   LIG    1        8.927  -0.227   1.539  0.00  0.00    +0.000 A 
ATOM     28  C   LIG    1        7.786   0.442   1.137  0.00  0.00    +0.040 A 
ENDBRANCH  22  23
ENDBRANCH   1  22
TORSDOF 5
