REMARK  Name = ZINCrD000000AL1C.0
REMARK                            x       y       z     vdW  Elec       q    Type
REMARK                         _______ _______ _______ _____ _____    ______ ____
ROOT
ATOM      1  C   LIG    1       -2.553   3.869   0.045  0.00  0.00    +0.190 C 
ENDROOT
BRANCH   1   2
ATOM      2  N   LIG    1       -3.718   3.904   0.940  0.00  0.00    -0.510 NA
ATOM      3  C   LIG    1       -4.465   5.160   0.782  0.00  0.00    +0.150 C 
ATOM      4  C   LIG    1       -5.700   5.130   1.686  0.00  0.00    +0.250 C 
ATOM      5  O   LIG    1       -5.290   4.910   3.038  0.00  0.00    -0.380 OA
ATOM      6  C   LIG    1       -4.560   3.695   3.228  0.00  0.00    +0.220 C 
ATOM      7  C   LIG    1       -3.313   3.711   2.340  0.00  0.00    +0.180 C 
BRANCH   6   8
ATOM      8  C   LIG    1       -4.147   3.577   4.673  0.00  0.00    -0.130 A 
ATOM      9  C   LIG    1       -4.003   4.714   5.445  0.00  0.00    +0.120 A 
ATOM     10  C   LIG    1       -3.630   4.606   6.772  0.00  0.00    -0.020 A 
ATOM     11  C   LIG    1       -3.389   3.360   7.325  0.00  0.00    +0.130 A 
ATOM     12  C   LIG    1       -3.527   2.221   6.550  0.00  0.00    -0.040 A 
ATOM     13  F   LIG    1       -3.019   3.256   8.620  0.00  0.00    -0.130 F 
ATOM     14  C   LIG    1       -3.907   2.329   5.224  0.00  0.00    +0.140 A 
ATOM     15  F   LIG    1       -4.043   1.219   4.467  0.00  0.00    -0.120 F 
ENDBRANCH   6   8
ENDBRANCH   1   2
BRANCH   1  16
ATOM     16  C   LIG    1       -1.800   2.580   0.253  0.00  0.00    -0.090 A 
ATOM     17  C   LIG    1       -2.487   1.385   0.348  0.00  0.00    +0.050 A 
ATOM     18  C   LIG    1       -1.797   0.203   0.544  0.00  0.00    +0.010 A 
ATOM     19  C   LIG    1       -0.417   0.216   0.634  0.00  0.00    +0.010 A 
ATOM     20  C   LIG    1        0.271   1.411   0.534  0.00  0.00    +0.000 A 
ATOM     21  C   LIG    1       -0.420   2.592   0.343  0.00  0.00    +0.010 A 
ENDBRANCH   1  16
BRANCH   1  23
ATOM     22  O   LIG    1       -4.115   3.545  -1.694  0.00  0.00    -0.510 OA
ATOM     23  C   LIG    1       -3.016   3.955  -1.386  0.00  0.00    +0.530 C 
ATOM     24  N   LIG    1       -2.208   4.488  -2.324  0.00  0.00    -0.700 N 
ATOM     25  H   LIG    1       -1.329   4.815  -2.078  0.00  0.00    +0.400 HD
BRANCH  24  26
ATOM     26  C   LIG    1       -2.658   4.572  -3.716  0.00  0.00    +0.220 C 
ATOM     27  C   LIG    1       -1.658   4.181  -4.806  0.00  0.00    +0.010 C 
ATOM     28  C   LIG    1       -2.028   5.651  -4.598  0.00  0.00    +0.020 C 
ENDBRANCH  24  26
ENDBRANCH   1  23
TORSDOF 5
