REMARK  Name = ZINCnE000001Tw8u.1
REMARK                            x       y       z     vdW  Elec       q    Type
REMARK                         _______ _______ _______ _____ _____    ______ ____
ROOT
ATOM      1  O   LIG    1        5.694   3.948  -0.169  0.00  0.00    -0.640 OA
ATOM      2  C   LIG    1        4.991   4.886  -0.492  0.00  0.00    +0.660 C 
ATOM      3  N   LIG    1        5.548   6.079  -0.777  0.00  0.00    -0.620 N 
ATOM      4  C   LIG    1        7.005   6.281  -0.707  0.00  0.00    +0.290 C 
ATOM      5  C   LIG    1        7.504   6.596  -2.116  0.00  0.00    +0.060 C 
ATOM      6  C   LIG    1        6.642   7.645  -2.768  0.00  0.00    -0.060 A 
ATOM      7  C   LIG    1        7.180   8.344  -3.841  0.00  0.00    +0.000 A 
ATOM      8  C   LIG    1        6.441   9.311  -4.491  0.00  0.00    +0.010 A 
ATOM      9  C   LIG    1        5.153   9.588  -4.073  0.00  0.00    +0.010 A 
ATOM     10  C   LIG    1        4.616   8.898  -3.004  0.00  0.00    -0.030 A 
ATOM     11 CL   LIG    1        2.999   9.245  -2.478  0.00  0.00    -0.060 Cl
ATOM     12  C   LIG    1        5.362   7.928  -2.346  0.00  0.00    -0.070 A 
ATOM     13  C   LIG    1        4.728   7.228  -1.175  0.00  0.00    +0.350 C 
ATOM     14  N   LIG    1        3.654   4.731  -0.565  0.00  0.00    -0.680 NA
ENDROOT
BRANCH  14  15
ATOM     15  C   LIG    1        3.080   3.500  -0.271  0.00  0.00    +0.370 A 
ATOM     16  N   LIG    1        1.811   3.246  -0.310  0.00  0.00    -0.570 NA
ATOM     17  C   LIG    1        1.423   2.018  -0.001  0.00  0.00    +0.120 A 
ATOM     18  C   LIG    1        2.444   1.200   0.317  0.00  0.00    -0.400 A 
ATOM     19  C   LIG    1        2.282  -0.249   0.708  0.00  0.00    +0.310 C 
ATOM     20  O   LIG    1        0.899  -0.478   1.010  0.00  0.00    -0.380 OA
ATOM     21  C   LIG    1        0.002  -0.004   0.002  0.00  0.00    +0.210 C 
ATOM     22  C   LIG    1       -0.019   1.528   0.010  0.00  0.00    +0.090 C 
ATOM     23  S   LIG    1        3.946   2.101   0.194  0.00  0.00    +0.040 S 
ENDBRANCH  14  15
TORSDOF 1
