REMARK  Name = ZINCrH000004vFQQ.0
REMARK                            x       y       z     vdW  Elec       q    Type
REMARK                         _______ _______ _______ _____ _____    ______ ____
ROOT
ATOM      1  O   LIG    1       -0.755  -0.469   2.083  0.00  0.00    -0.510 OA
ATOM      2  C   LIG    1       -1.091   0.697   2.171  0.00  0.00    +0.600 C 
ATOM      3  N   LIG    1       -0.920   1.528   1.125  0.00  0.00    -0.600 N 
ATOM      4  C   LIG    1       -0.188   1.087  -0.071  0.00  0.00    +0.310 C 
ATOM      5  C   LIG    1       -1.064   1.325  -1.305  0.00  0.00    +0.030 C 
ATOM      6  C   LIG    1       -1.500   2.792  -1.341  0.00  0.00    +0.270 C 
ATOM      7  C   LIG    1       -2.327   3.110  -0.093  0.00  0.00    +0.030 C 
ATOM      8  C   LIG    1       -1.465   2.893   1.155  0.00  0.00    +0.310 C 
ENDROOT
BRANCH   2   9
ATOM      9  C   LIG    1       -1.686   1.200   3.423  0.00  0.00    +0.050 A 
ATOM     10  C   LIG    1       -2.029   0.443   4.509  0.00  0.00    -0.020 A 
ATOM     11  N   LIG    1       -2.541   1.293   5.443  0.00  0.00    -0.350 N 
ATOM     12  C   LIG    1       -3.035   1.087   6.701  0.00  0.00    +0.220 A 
ATOM     13  C   LIG    1       -3.491   2.121   7.437  0.00  0.00    +0.040 A 
ATOM     14  C   LIG    1       -3.466   3.428   6.919  0.00  0.00    +0.060 A 
ATOM     15  C   LIG    1       -2.978   3.649   5.671  0.00  0.00    +0.080 A 
ATOM     16  C   LIG    1       -2.502   2.558   4.910  0.00  0.00    +0.250 A 
ATOM     17 BR   LIG    1       -1.830  -1.429   4.682  0.00  0.00    +0.060 Br
ATOM     18  N   LIG    1       -1.981   2.485   3.698  0.00  0.00    -0.460 NA
ENDBRANCH   2   9
BRANCH   6  19
ATOM     19  N   LIG    1       -2.311   3.030  -2.537  0.00  0.00    -0.350 N 
ATOM     20  C   LIG    1       -3.637   2.810  -2.655  0.00  0.00    +0.250 A 
ATOM     21  C   LIG    1       -4.003   3.159  -3.910  0.00  0.00    -0.070 A 
ATOM     22  C   LIG    1       -2.860   3.599  -4.585  0.00  0.00    -0.020 A 
ATOM     23  N   LIG    1       -1.845   3.522  -3.764  0.00  0.00    -0.240 NA
BRANCH  22  24
ATOM     24  C   LIG    1       -2.807   4.077  -6.013  0.00  0.00    +0.560 C 
ATOM     25  F   LIG    1       -3.552   5.255  -6.138  0.00  0.00    -0.170 F 
ATOM     26  F   LIG    1       -3.342   3.096  -6.855  0.00  0.00    -0.170 F 
ATOM     27  F   LIG    1       -1.478   4.326  -6.373  0.00  0.00    -0.170 F 
ENDBRANCH  22  24
ENDBRANCH   6  19
TORSDOF 3
