REMARK  Name = ZINCkj00000hbOok.1
REMARK                            x       y       z     vdW  Elec       q    Type
REMARK                         _______ _______ _______ _____ _____    ______ ____
ROOT
ATOM      1  N   LIG    1        1.872   1.252  -1.723  0.00  0.00    -0.360 N 
ATOM      2  C   LIG    1        2.811   0.797  -0.792  0.00  0.00    +0.220 C 
ATOM      3  C   LIG    1        4.205   1.415  -1.034  0.00  0.00    +0.080 C 
ATOM      4  C   LIG    1        4.854   0.718  -2.202  0.00  0.00    +0.180 C 
ATOM      5  N   LIG    1        4.598   1.402  -3.491  0.00  0.00    -0.520 NA
ATOM      6  C   LIG    1        3.208   1.886  -3.639  0.00  0.00    +0.230 C 
ATOM      7  C   LIG    1        2.209   0.887  -3.114  0.00  0.00    +0.230 C 
ATOM      8  H   LIG    1        1.813   2.257  -1.659  0.00  0.00    +0.420 HD
ENDROOT
BRANCH   5   9
ATOM      9  C   LIG    1        4.982   0.550  -4.624  0.00  0.00    +0.140 C 
ATOM     10  C   LIG    1        6.380  -0.022  -4.382  0.00  0.00    +0.050 C 
BRANCH   9  11
ATOM     11  C   LIG    1        4.987   1.381  -5.909  0.00  0.00    +0.180 C 
BRANCH  11  12
ATOM     12  O   LIG    1        5.991   2.394  -5.817  0.00  0.00    -0.560 OA
ATOM     13  H   LIG    1        6.051   2.960  -6.598  0.00  0.00    +0.380 HD
ENDBRANCH  11  12
ENDBRANCH   9  11
ENDBRANCH   5   9
BRANCH   1  14
ATOM     14  C   LIG    1        0.561   0.680  -1.390  0.00  0.00    +0.280 C 
BRANCH  14  15
ATOM     15  C   LIG    1       -0.146   1.583  -0.376  0.00  0.00    -0.090 C 
ATOM     16  C   LIG    1        0.644   1.650   0.952  0.00  0.00    +0.090 C 
ATOM     17  C   LIG    1        1.525   2.870   0.813  0.00  0.00    -0.020 C 
ATOM     18  C   LIG    1        1.114   3.639  -0.159  0.00  0.00    -0.050 C 
ATOM     19  C   LIG    1       -0.111   3.061  -0.829  0.00  0.00    +0.080 C 
BRANCH  15  20
ATOM     20  C   LIG    1       -1.583   1.115  -0.137  0.00  0.00    +0.200 C 
BRANCH  20  22
ATOM     21  C   LIG    1       -3.538   1.573   1.173  0.00  0.00    +0.230 C 
ATOM     22  O   LIG    1       -2.187   1.928   0.872  0.00  0.00    -0.380 OA
ENDBRANCH  20  22
ENDBRANCH  15  20
ENDBRANCH  14  15
ENDBRANCH   1  14
TORSDOF 7
