REMARK  Name = ZINCkj00000hbOok.0
REMARK                            x       y       z     vdW  Elec       q    Type
REMARK                         _______ _______ _______ _____ _____    ______ ____
ROOT
ATOM      1  N   LIG    1       -1.885   0.134   1.724  0.00  0.00    -0.380 N 
ATOM      2  C   LIG    1       -0.932   0.321   2.841  0.00  0.00    +0.250 C 
ATOM      3  C   LIG    1        0.302   1.149   2.439  0.00  0.00    +0.070 C 
ATOM      4  C   LIG    1        0.827   0.779   1.076  0.00  0.00    +0.190 C 
ATOM      5  N   LIG    1        0.195   1.664   0.067  0.00  0.00    -0.540 NA
ATOM      6  C   LIG    1       -1.112   1.288  -0.261  0.00  0.00    +0.190 C 
ATOM      7  C   LIG    1       -2.063   1.340   0.949  0.00  0.00    +0.250 C 
ATOM      8  H   LIG    1       -1.541  -0.597   1.119  0.00  0.00    +0.410 HD
ENDROOT
BRANCH   5   9
ATOM      9  C   LIG    1        1.030   1.771  -1.136  0.00  0.00    +0.150 C 
ATOM     10  C   LIG    1        2.406   2.320  -0.754  0.00  0.00    +0.060 C 
BRANCH   9  11
ATOM     11  C   LIG    1        0.363   2.717  -2.137  0.00  0.00    +0.180 C 
BRANCH  11  12
ATOM     12  O   LIG    1        0.294   4.031  -1.577  0.00  0.00    -0.560 OA
ATOM     13  H   LIG    1       -0.118   4.684  -2.159  0.00  0.00    +0.380 HD
ENDBRANCH  11  12
ENDBRANCH   9  11
ENDBRANCH   5   9
BRANCH   1  14
ATOM     14  C   LIG    1       -3.185  -0.276   2.273  0.00  0.00    +0.290 C 
BRANCH  14  15
ATOM     15  C   LIG    1       -4.040  -0.885   1.160  0.00  0.00    -0.100 C 
ATOM     16  C   LIG    1       -4.600   0.214   0.226  0.00  0.00    +0.070 C 
ATOM     17  C   LIG    1       -5.992  -0.257  -0.128  0.00  0.00    -0.030 C 
ATOM     18  C   LIG    1       -6.396  -1.189   0.692  0.00  0.00    -0.010 C 
ATOM     19  C   LIG    1       -5.341  -1.495   1.730  0.00  0.00    +0.100 C 
BRANCH  15  20
ATOM     20  C   LIG    1       -3.245  -1.926   0.369  0.00  0.00    +0.160 C 
BRANCH  20  22
ATOM     21  C   LIG    1       -3.460  -3.564  -1.368  0.00  0.00    +0.210 C 
ATOM     22  O   LIG    1       -4.107  -2.568  -0.573  0.00  0.00    -0.360 OA
ENDBRANCH  20  22
ENDBRANCH  15  20
ENDBRANCH  14  15
ENDBRANCH   1  14
TORSDOF 7
