REMARK  Name = ZINCrD0000074DfL.0
REMARK                            x       y       z     vdW  Elec       q    Type
REMARK                         _______ _______ _______ _____ _____    ______ ____
ROOT
ATOM      1  C   LIG    1        5.502  -1.779  -5.215  0.00  0.00    +0.560 C 
ATOM      2  O   LIG    1        5.693  -0.800  -5.910  0.00  0.00    -0.480 OA
ENDROOT
BRANCH   1   3
ATOM      3  C   LIG    1        5.752  -3.124  -5.755  0.00  0.00    -0.230 A 
ATOM      4  C   LIG    1        4.882  -3.959  -6.413  0.00  0.00    +0.050 A 
ATOM      5  O   LIG    1        5.568  -5.065  -6.709  0.00  0.00    +0.110 OA
ATOM      6  N   LIG    1        6.712  -5.036  -6.329  0.00  0.00    -0.340 NA
ATOM      7  C   LIG    1        3.438  -3.679  -6.738  0.00  0.00    +0.210 C 
ATOM      8  C   LIG    1        7.001  -3.915  -5.719  0.00  0.00    +0.110 A 
BRANCH   8   9
ATOM      9  C   LIG    1        8.300  -3.521  -5.122  0.00  0.00    -0.030 A 
ATOM     10  C   LIG    1        8.721  -2.193  -5.174  0.00  0.00    +0.040 A 
ATOM     11  C   LIG    1        9.928  -1.832  -4.611  0.00  0.00    +0.010 A 
ATOM     12  C   LIG    1       10.726  -2.787  -4.007  0.00  0.00    +0.030 A 
ATOM     13  C   LIG    1       10.316  -4.107  -3.957  0.00  0.00    +0.010 A 
ATOM     14  C   LIG    1        9.108  -4.479  -4.511  0.00  0.00    +0.050 A 
ENDBRANCH   8   9
ENDBRANCH   1   3
BRANCH   1  15
ATOM     15  O   LIG    1        5.060  -1.632  -3.950  0.00  0.00    -0.320 OA
BRANCH  15  16
ATOM     16  C   LIG    1        4.835  -0.275  -3.484  0.00  0.00    +0.270 C 
BRANCH  16  18
ATOM     17  N   LIG    1        4.070   0.842  -1.414  0.00  0.00    -0.610 N 
ATOM     18  C   LIG    1        4.347  -0.308  -2.059  0.00  0.00    +0.520 C 
ATOM     19  O   LIG    1        4.204  -1.371  -1.491  0.00  0.00    -0.500 OA
ATOM     20  C   LIG    1        4.244   2.126  -2.099  0.00  0.00    +0.290 C 
BRANCH  17  21
ATOM     21  C   LIG    1        3.596   0.810  -0.028  0.00  0.00    +0.420 C 
BRANCH  21  26
ATOM     22  C   LIG    1       -1.250   2.205   0.020  0.00  0.00    +0.170 C 
ATOM     23  C   LIG    1       -0.016   1.341   0.009  0.00  0.00    -0.010 A 
ATOM     24  C   LIG    1        0.002  -0.004   0.002  0.00  0.00    -0.070 A 
ATOM     25  C   LIG    1        1.361  -0.395  -0.013  0.00  0.00    -0.020 A 
ATOM     26  C   LIG    1        2.091   0.734  -0.014  0.00  0.00    -0.050 A 
ATOM     27  O   LIG    1        1.252   1.783  -0.000  0.00  0.00    -0.170 OA
ENDBRANCH  21  26
ENDBRANCH  17  21
ENDBRANCH  16  18
ENDBRANCH  15  16
ENDBRANCH   1  15
TORSDOF 7
