REMARK  Name = ZINCvU0000000ER9.0
REMARK                            x       y       z     vdW  Elec       q    Type
REMARK                         _______ _______ _______ _____ _____    ______ ____
ROOT
ATOM      1  N   LIG    1       -3.507   3.460  -0.834  0.00  0.00    -1.100 NA
ATOM      2  H   LIG    1       -4.028   2.712  -0.501  0.00  0.00    +0.430 HD
ENDROOT
BRANCH   1   3
ATOM      3  S   LIG    1       -3.694   3.967  -2.400  0.00  0.00    +2.680 S 
ATOM      4  O   LIG    1       -3.857   5.378  -2.348  0.00  0.00    -0.920 OA
ATOM      5  O   LIG    1       -4.647   3.096  -2.993  0.00  0.00    -0.920 OA
BRANCH   3  10
ATOM      6  C   LIG    1        0.009   4.420  -3.898  0.00  0.00    -0.060 A 
ATOM      7  C   LIG    1        0.229   3.211  -4.532  0.00  0.00    +0.200 A 
ATOM      8  C   LIG    1       -0.748   2.233  -4.515  0.00  0.00    +0.050 A 
ATOM      9  C   LIG    1       -1.947   2.464  -3.864  0.00  0.00    +0.100 A 
ATOM     10  C   LIG    1       -2.168   3.673  -3.229  0.00  0.00    -0.690 A 
ATOM     11 CL   LIG    1       -3.174   1.236  -3.843  0.00  0.00    +0.020 Cl
ATOM     12  C   LIG    1       -1.192   4.653  -3.250  0.00  0.00    +0.110 A 
ATOM     13 CL   LIG    1       -1.471   6.173  -2.460  0.00  0.00    +0.050 Cl
BRANCH   6  15
ATOM     14  O   LIG    1        2.111   5.262  -4.489  0.00  0.00    -0.150 OA
ATOM     15  N   LIG    1        1.055   5.466  -3.915  0.00  0.00    +0.030 N 
ATOM     16  O   LIG    1        0.862   6.531  -3.357  0.00  0.00    -0.130 OA
ENDBRANCH   6  15
ENDBRANCH   3  10
ENDBRANCH   1   3
BRANCH   1  17
ATOM     17  C   LIG    1       -2.556   4.141   0.048  0.00  0.00    +0.350 C 
BRANCH  17  18
ATOM     18  C   LIG    1       -1.241   3.405   0.032  0.00  0.00    -0.100 A 
ATOM     19  C   LIG    1       -0.054   4.113   0.024  0.00  0.00    +0.060 A 
ATOM     20  C   LIG    1        1.153   3.441   0.009  0.00  0.00    +0.030 A 
ATOM     21  C   LIG    1        1.175   2.057   0.002  0.00  0.00    +0.080 A 
ATOM     22  C   LIG    1       -0.016   1.347   0.009  0.00  0.00    +0.070 A 
ATOM     23  F   LIG    1        0.002  -0.004   0.002  0.00  0.00    -0.120 F 
ATOM     24  F   LIG    1        2.355   1.399  -0.012  0.00  0.00    -0.120 F 
ATOM     25  C   LIG    1       -1.223   2.023   0.019  0.00  0.00    +0.040 A 
ENDBRANCH  17  18
BRANCH  17  26
ATOM     26  C   LIG    1       -3.102   4.164   1.452  0.00  0.00    -0.090 A 
ATOM     27  C   LIG    1       -3.760   3.058   1.956  0.00  0.00    +0.040 A 
ATOM     28  C   LIG    1       -4.255   3.077   3.247  0.00  0.00    +0.040 A 
ATOM     29  C   LIG    1       -4.103   4.207   4.029  0.00  0.00    -0.030 A 
ATOM     30  C   LIG    1       -3.449   5.316   3.522  0.00  0.00    +0.040 A 
ATOM     31 CL   LIG    1       -4.731   4.234   5.648  0.00  0.00    -0.060 Cl
ATOM     32  C   LIG    1       -2.949   5.294   2.234  0.00  0.00    +0.050 A 
ENDBRANCH  17  26
ENDBRANCH   1  17
TORSDOF 6
