REMARK  Name = ZINCrH000004ttdP.0
REMARK                            x       y       z     vdW  Elec       q    Type
REMARK                         _______ _______ _______ _____ _____    ______ ____
ROOT
ATOM      1  C   LIG    1       -6.294   1.334  -0.686  0.00  0.00    +0.560 C 
ATOM      2  N   LIG    1       -7.315   0.838   0.042  0.00  0.00    -0.670 N 
ATOM      3  H   LIG    1       -7.219  -0.014   0.494  0.00  0.00    +0.410 HD
ATOM      4  O   LIG    1       -6.446   2.353  -1.330  0.00  0.00    -0.510 OA
ENDROOT
BRANCH   1   9
ATOM      5  C   LIG    1       -2.709   0.485  -1.459  0.00  0.00    -0.140 A 
ATOM      6  C   LIG    1       -2.548  -0.688  -0.719  0.00  0.00    +0.070 A 
ATOM      7  C   LIG    1       -3.597  -1.186   0.029  0.00  0.00    +0.010 A 
ATOM      8  C   LIG    1       -4.814  -0.534   0.041  0.00  0.00    +0.070 A 
ATOM      9  C   LIG    1       -4.990   0.637  -0.700  0.00  0.00    -0.140 A 
ATOM     10  C   LIG    1       -3.934   1.148  -1.452  0.00  0.00    +0.150 A 
BRANCH   5  14
ATOM     11  N   LIG    1       -0.397   0.378  -2.260  0.00  0.00    -0.850 N 
ATOM     12  H   LIG    1        0.340   0.727  -2.784  0.00  0.00    +0.410 HD
ATOM     13  H   LIG    1       -0.283  -0.435  -1.743  0.00  0.00    +0.400 HD
ATOM     14  C   LIG    1       -1.582   1.020  -2.254  0.00  0.00    +0.560 C 
ATOM     15  O   LIG    1       -1.725   2.039  -2.901  0.00  0.00    -0.530 OA
ENDBRANCH   5  14
ENDBRANCH   1   9
BRANCH   2  16
ATOM     16  C   LIG    1       -8.512   1.554   0.144  0.00  0.00    +0.140 A 
ATOM     17  C   LIG    1       -8.495   2.942   0.150  0.00  0.00    +0.030 A 
ATOM     18  C   LIG    1       -9.680   3.646   0.247  0.00  0.00    +0.030 A 
ATOM     19  C   LIG    1      -10.881   2.969   0.348  0.00  0.00    +0.020 A 
ATOM     20  C   LIG    1      -10.902   1.586   0.347  0.00  0.00    -0.080 A 
ATOM     21  C   LIG    1       -9.721   0.877   0.246  0.00  0.00    +0.010 A 
BRANCH  20  22
ATOM     22  C   LIG    1      -12.213   0.853   0.458  0.00  0.00    +0.260 C 
BRANCH  22  23
ATOM     23  O   LIG    1      -12.514   0.619   1.836  0.00  0.00    -0.300 OA
BRANCH  23  24
ATOM     24  C   LIG    1      -13.671  -0.037   2.112  0.00  0.00    +0.160 A 
ATOM     25  C   LIG    1      -14.504  -0.442   1.079  0.00  0.00    -0.080 A 
ATOM     26  C   LIG    1      -15.678  -1.114   1.361  0.00  0.00    +0.090 A 
ATOM     27  C   LIG    1      -16.030  -1.373   2.672  0.00  0.00    -0.050 A 
ATOM     28  C   LIG    1      -15.205  -0.964   3.706  0.00  0.00    +0.140 A 
ATOM     29  F   LIG    1      -15.551  -1.218   4.987  0.00  0.00    -0.130 F 
ATOM     30  C   LIG    1      -14.025  -0.297   3.428  0.00  0.00    -0.050 A 
ENDBRANCH  23  24
ENDBRANCH  22  23
ENDBRANCH  20  22
ENDBRANCH   2  16
TORSDOF 6
