REMARK  Name = ZINCnE000001TCH5.0
REMARK                            x       y       z     vdW  Elec       q    Type
REMARK                         _______ _______ _______ _____ _____    ______ ____
ROOT
ATOM      1  C   LIG    1        5.695   4.779   0.507  0.00  0.00    -0.150 A 
ATOM      2  C   LIG    1        4.732   5.785   0.609  0.00  0.00    +0.120 A 
ATOM      3  C   LIG    1        3.430   5.540   0.217  0.00  0.00    -0.140 A 
ATOM      4  C   LIG    1        3.079   4.298  -0.283  0.00  0.00    -0.010 A 
ATOM      5  C   LIG    1        4.031   3.294  -0.382  0.00  0.00    -0.670 A 
ATOM      6  C   LIG    1        1.606   4.286  -0.634  0.00  0.00    +0.070 C 
ATOM      7  C   LIG    1        1.004   5.503   0.101  0.00  0.00    +0.030 C 
ATOM      8  C   LIG    1        2.218   6.448   0.227  0.00  0.00    +0.080 C 
ATOM      9  C   LIG    1        5.333   3.526   0.006  0.00  0.00    +0.170 A 
ENDROOT
BRANCH   1  11
ATOM     10  O   LIG    1        7.926   4.154   0.834  0.00  0.00    -0.680 OA
ATOM     11  C   LIG    1        7.086   5.038   0.925  0.00  0.00    +0.520 C 
ATOM     12  O   LIG    1        7.398   6.136   1.363  0.00  0.00    -0.680 OA
ENDBRANCH   1  11
BRANCH   5  13
ATOM     13  S   LIG    1        3.575   1.714  -1.014  0.00  0.00    +2.690 S 
ATOM     14  O   LIG    1        2.861   1.955  -2.219  0.00  0.00    -0.950 OA
ATOM     15  O   LIG    1        4.740   0.904  -0.950  0.00  0.00    -0.950 OA
BRANCH  13  16
ATOM     16  N   LIG    1        2.489   1.056   0.050  0.00  0.00    -1.060 N 
ATOM     17  H   LIG    1        1.589   0.844  -0.245  0.00  0.00    +0.420 HD
BRANCH  16  18
ATOM     18  C   LIG    1        2.869   0.805   1.370  0.00  0.00    +0.170 A 
ATOM     19  C   LIG    1        2.038   1.182   2.417  0.00  0.00    +0.010 A 
ATOM     20  C   LIG    1        2.419   0.938   3.722  0.00  0.00    +0.070 A 
ATOM     21  C   LIG    1        3.623   0.309   3.987  0.00  0.00    -0.100 A 
ATOM     22  C   LIG    1        4.453  -0.067   2.946  0.00  0.00    +0.080 A 
ATOM     23 BR   LIG    1        4.138  -0.030   5.774  0.00  0.00    -0.050 Br
ATOM     24  C   LIG    1        4.080   0.179   1.639  0.00  0.00    +0.030 A 
ENDBRANCH  16  18
ENDBRANCH  13  16
ENDBRANCH   5  13
TORSDOF 4
