REMARK  Name = ZINCqH00000083hn.0
REMARK                            x       y       z     vdW  Elec       q    Type
REMARK                         _______ _______ _______ _____ _____    ______ ____
ROOT
ATOM      1  C   LIG    1        1.317  -0.740  -0.015  0.00  0.00    -0.010 C 
ATOM      2  C   LIG    1        2.103  -0.355  -1.271  0.00  0.00    +0.050 C 
ATOM      3  C   LIG    1        3.409  -1.152  -1.314  0.00  0.00    +0.200 C 
ATOM      4  N   LIG    1        3.108  -2.590  -1.322  0.00  0.00    -0.470 N 
ATOM      5  C   LIG    1        2.396  -2.990  -0.102  0.00  0.00    +0.210 C 
ATOM      6  C   LIG    1        1.059  -2.249  -0.023  0.00  0.00    +0.060 C 
ENDROOT
BRANCH   4   7
ATOM      7  C   LIG    1        4.266  -3.340  -1.492  0.00  0.00    +0.340 A 
ATOM      8  C   LIG    1        5.078  -3.113  -2.598  0.00  0.00    -0.040 A 
ATOM      9  C   LIG    1        6.230  -3.864  -2.752  0.00  0.00    +0.150 A 
ATOM     10  C   LIG    1        6.526  -4.827  -1.797  0.00  0.00    -0.270 A 
ATOM     11  C   LIG    1        5.672  -5.002  -0.726  0.00  0.00    +0.360 A 
ATOM     12  N   LIG    1        4.583  -4.268  -0.602  0.00  0.00    -0.520 NA
BRANCH  10  13
ATOM     13  C   LIG    1        7.767  -5.672  -1.927  0.00  0.00    +0.520 C 
ATOM     14  F   LIG    1        8.896  -4.846  -1.929  0.00  0.00    -0.180 F 
ATOM     15  F   LIG    1        7.715  -6.394  -3.125  0.00  0.00    -0.180 F 
ATOM     16  F   LIG    1        7.841  -6.561  -0.850  0.00  0.00    -0.180 F 
ENDBRANCH  10  13
ENDBRANCH   4   7
BRANCH   1  19
ATOM     17  N   LIG    1       -0.016   1.344   0.009  0.00  0.00    -0.730 N 
ATOM     18  H   LIG    1        0.817   1.840   0.004  0.00  0.00    +0.400 HD
ATOM     19  C   LIG    1        0.002  -0.004   0.002  0.00  0.00    +0.520 C 
ATOM     20  O   LIG    1       -1.040  -0.625   0.009  0.00  0.00    -0.530 OA
BRANCH  17  24
ATOM     21  C   LIG    1       -2.049   4.361   0.306  0.00  0.00    +0.040 C 
ATOM     22  C   LIG    1       -1.892   3.748   1.720  0.00  0.00    +0.030 C 
ATOM     23  C   LIG    1       -1.792   2.230   1.466  0.00  0.00    +0.010 C 
ATOM     24  C   LIG    1       -1.295   2.059   0.019  0.00  0.00    +0.250 C 
ATOM     25  C   LIG    1       -1.110   3.479  -0.554  0.00  0.00    +0.050 C 
BRANCH  21  27
ATOM     26  C   LIG    1       -2.719   6.916   1.348  0.00  0.00    +0.140 C 
ATOM     27  S   LIG    1       -1.499   6.090   0.290  0.00  0.00    -0.250 S 
ENDBRANCH  21  27
ENDBRANCH  17  24
ENDBRANCH   1  19
TORSDOF 5
