REMARK  Name = ZINCvU00000008HC.0
REMARK                            x       y       z     vdW  Elec       q    Type
REMARK                         _______ _______ _______ _____ _____    ______ ____
ROOT
ATOM      1  C   LIG    1       -2.383   7.791  -0.974  0.00  0.00    +0.040 C 
ENDROOT
BRANCH   1   2
ATOM      2  C   LIG    1       -2.756   7.137  -2.280  0.00  0.00    -0.090 A 
ATOM      3  C   LIG    1       -4.084   7.037  -2.648  0.00  0.00    +0.040 A 
ATOM      4  C   LIG    1       -4.426   6.441  -3.848  0.00  0.00    +0.000 A 
ATOM      5  C   LIG    1       -3.439   5.937  -4.675  0.00  0.00    -0.070 A 
ATOM      6  C   LIG    1       -2.111   6.033  -4.304  0.00  0.00    +0.000 A 
ATOM      7  C   LIG    1       -3.812   5.282  -5.980  0.00  0.00    +0.090 C 
ATOM      8  C   LIG    1       -1.769   6.633  -3.107  0.00  0.00    +0.050 A 
ENDBRANCH   1   2
BRANCH   1   9
ATOM      9  C   LIG    1       -2.865   9.219  -0.972  0.00  0.00    +0.430 C 
ATOM     10  O   LIG    1       -3.935   9.496  -0.473  0.00  0.00    -0.430 OA
BRANCH   9  11
ATOM     11  C   LIG    1       -2.038  10.276  -1.575  0.00  0.00    -0.170 A 
ATOM     12  C   LIG    1       -0.801   9.960  -2.146  0.00  0.00    +0.070 A 
ATOM     13  C   LIG    1       -0.034  10.956  -2.714  0.00  0.00    +0.000 A 
ATOM     14  C   LIG    1       -0.480  12.266  -2.710  0.00  0.00    -0.050 A 
ATOM     15  C   LIG    1       -1.701  12.587  -2.142  0.00  0.00    +0.000 A 
ATOM     16  C   LIG    1        0.367  13.348  -3.327  0.00  0.00    +0.100 C 
ATOM     17  C   LIG    1       -2.482  11.602  -1.575  0.00  0.00    +0.090 A 
ENDBRANCH   9  11
ENDBRANCH   1   9
BRANCH   1  18
ATOM     18  S   LIG    1       -3.157   6.889   0.396  0.00  0.00    +0.080 S 
BRANCH  18  22
ATOM     19  C   LIG    1       -1.482   3.014   0.507  0.00  0.00    +0.230 A 
ATOM     20  N   LIG    1       -1.011   3.772  -0.436  0.00  0.00    -0.280 NA
ATOM     21  N   LIG    1       -1.466   4.945  -0.530  0.00  0.00    -0.240 NA
ATOM     22  C   LIG    1       -2.374   5.312   0.325  0.00  0.00    -0.070 A 
ATOM     23  S   LIG    1       -2.688   3.946   1.397  0.00  0.00    +0.230 S 
BRANCH  19  25
ATOM     24  C   LIG    1       -1.571   1.069   1.864  0.00  0.00    +0.510 C 
ATOM     25  N   LIG    1       -1.105   1.699   0.767  0.00  0.00    -0.480 N 
ATOM     26  O   LIG    1       -2.318   1.647   2.624  0.00  0.00    -0.500 OA
BRANCH  25  27
ATOM     27  C   LIG    1       -0.203   1.000  -0.151  0.00  0.00    +0.190 C 
ATOM     28  C   LIG    1       -0.003   1.605  -1.542  0.00  0.00    +0.060 C 
ATOM     29  C   LIG    1        1.118   1.687  -0.503  0.00  0.00    +0.040 C 
ENDBRANCH  25  27
BRANCH  24  31
ATOM     30  C   LIG    1       -1.827  -0.829   3.440  0.00  0.00    +0.070 C 
ATOM     31  C   LIG    1       -1.164  -0.355   2.145  0.00  0.00    +0.080 C 
ENDBRANCH  24  31
ENDBRANCH  19  25
ENDBRANCH  18  22
ENDBRANCH   1  18
TORSDOF 8
