REMARK  Name = ZINCpe00000gMM2n.1
REMARK                            x       y       z     vdW  Elec       q    Type
REMARK                         _______ _______ _______ _____ _____    ______ ____
ROOT
ATOM      1  C   LIG    1       -1.409   2.351  -0.164  0.00  0.00    +0.520 C 
ATOM      2  O   LIG    1       -1.316   3.551   0.004  0.00  0.00    -0.510 OA
ENDROOT
BRANCH   1   3
ATOM      3  C   LIG    1       -0.194   1.526  -0.269  0.00  0.00    -0.160 A 
ATOM      4  C   LIG    1       -0.296   0.145  -0.462  0.00  0.00    +0.120 A 
ATOM      5  C   LIG    1        0.844  -0.621  -0.566  0.00  0.00    -0.010 A 
ATOM      6  C   LIG    1        2.095  -0.030  -0.479  0.00  0.00    +0.100 A 
ATOM      7  C   LIG    1        2.213   1.332  -0.288  0.00  0.00    -0.020 A 
ATOM      8  C   LIG    1        1.075   2.121  -0.182  0.00  0.00    +0.230 A 
BRANCH   8   9
ATOM      9  N   LIG    1        1.191   3.491   0.009  0.00  0.00    -1.050 N 
ATOM     10  H   LIG    1        0.550   3.959   0.567  0.00  0.00    +0.440 HD
BRANCH   9  11
ATOM     11  S   LIG    1        2.424   4.327  -0.715  0.00  0.00    +2.610 S 
ATOM     12  O   LIG    1        3.603   3.676  -0.261  0.00  0.00    -0.950 OA
ATOM     13  O   LIG    1        2.165   5.686  -0.389  0.00  0.00    -0.940 OA
ATOM     14  C   LIG    1        2.183   4.041  -2.490  0.00  0.00    -0.270 C 
ENDBRANCH   9  11
ENDBRANCH   8   9
ENDBRANCH   1   3
BRANCH   1  15
ATOM     15  O   LIG    1       -2.625   1.776  -0.254  0.00  0.00    -0.320 OA
BRANCH  15  16
ATOM     16  C   LIG    1       -3.778   2.651  -0.141  0.00  0.00    +0.260 C 
BRANCH  16  24
ATOM     17  C   LIG    1       -7.741   2.208  -2.737  0.00  0.00    +0.020 C 
ATOM     18  C   LIG    1       -8.381   2.345  -1.354  0.00  0.00    +0.190 C 
ATOM     19  C   LIG    1       -7.488   1.668  -0.308  0.00  0.00    +0.270 C 
ATOM     20  N   LIG    1       -6.242   2.442  -0.190  0.00  0.00    -0.610 N 
ATOM     21  C   LIG    1       -6.348   3.895   0.018  0.00  0.00    +0.250 C 
ATOM     22  C   LIG    1       -7.296   4.464  -1.050  0.00  0.00    +0.140 C 
ATOM     23  C   LIG    1       -7.577   5.937  -0.748  0.00  0.00    +0.070 C 
ATOM     24  C   LIG    1       -5.040   1.837  -0.265  0.00  0.00    +0.520 C 
ATOM     25  O   LIG    1       -4.974   0.637  -0.431  0.00  0.00    -0.510 OA
ATOM     26  O   LIG    1       -8.522   3.729  -1.028  0.00  0.00    -0.370 OA
ENDBRANCH  16  24
ENDBRANCH  15  16
ENDBRANCH   1  15
TORSDOF 6
