REMARK  Name = ZINCvU00000006rH.0
REMARK                            x       y       z     vdW  Elec       q    Type
REMARK                         _______ _______ _______ _____ _____    ______ ____
ROOT
ATOM      1  C   LIG    1        6.245  -4.735   0.006  0.00  0.00    +0.130 A 
ATOM      2  C   LIG    1        7.408  -3.979   0.079  0.00  0.00    +0.010 A 
ATOM      3  C   LIG    1        8.635  -4.606   0.159  0.00  0.00    +0.050 A 
ATOM      4  C   LIG    1        8.708  -5.992   0.157  0.00  0.00    +0.140 A 
ATOM      5  C   LIG    1        7.546  -6.749   0.078  0.00  0.00    +0.000 A 
ATOM      6  C   LIG    1        6.318  -6.122   0.003  0.00  0.00    +0.040 A 
ENDROOT
BRANCH   4   7
ATOM      7  N   LIG    1        9.954  -6.628   0.233  0.00  0.00    -0.680 N 
ATOM      8  H   LIG    1       10.105  -7.458  -0.246  0.00  0.00    +0.410 HD
ATOM      9  C   LIG    1       10.943  -6.087   0.971  0.00  0.00    +0.700 C 
ATOM     10  N   LIG    1       12.110  -6.745   1.120  0.00  0.00    -0.680 N 
ATOM     11  H   LIG    1       12.268  -7.569   0.633  0.00  0.00    +0.410 HD
ATOM     12  O   LIG    1       10.783  -5.006   1.503  0.00  0.00    -0.550 OA
BRANCH  10  13
ATOM     13  C   LIG    1       13.094  -6.238   1.976  0.00  0.00    +0.160 A 
ATOM     14  C   LIG    1       14.438  -6.396   1.663  0.00  0.00    -0.020 A 
ATOM     15  C   LIG    1       15.407  -5.892   2.508  0.00  0.00    +0.030 A 
ATOM     16  C   LIG    1       15.040  -5.238   3.670  0.00  0.00    -0.010 A 
ATOM     17  C   LIG    1       13.703  -5.084   3.988  0.00  0.00    +0.030 A 
ATOM     18  C   LIG    1       12.729  -5.582   3.144  0.00  0.00    +0.010 A 
ENDBRANCH  10  13
ENDBRANCH   4   7
BRANCH   1  21
ATOM     19  O   LIG    1        4.018  -5.737   1.068  0.00  0.00    -0.530 OA
ATOM     20  C   LIG    1        3.926  -4.648   0.530  0.00  0.00    +0.550 C 
ATOM     21  N   LIG    1        5.000  -4.100  -0.070  0.00  0.00    -0.670 N 
ATOM     22  H   LIG    1        4.911  -3.265  -0.556  0.00  0.00    +0.410 HD
BRANCH  20  23
ATOM     23  C   LIG    1        2.649  -3.936   0.537  0.00  0.00    -0.090 C 
ATOM     24  C   LIG    1        1.573  -4.485   1.139  0.00  0.00    +0.140 C 
BRANCH  24  25
ATOM     25  C   LIG    1        0.289  -3.769   1.146  0.00  0.00    -0.100 A 
ATOM     26  C   LIG    1        0.178  -2.518   0.530  0.00  0.00    +0.070 A 
ATOM     27  C   LIG    1       -1.029  -1.853   0.540  0.00  0.00    -0.010 A 
ATOM     28  C   LIG    1       -2.133  -2.416   1.159  0.00  0.00    +0.060 A 
ATOM     29  C   LIG    1       -2.037  -3.651   1.771  0.00  0.00    -0.050 A 
ATOM     30  C   LIG    1       -0.833  -4.336   1.771  0.00  0.00    +0.130 A 
BRANCH  30  31
ATOM     31  O   LIG    1       -0.738  -5.549   2.373  0.00  0.00    -0.320 OA
BRANCH  31  32
ATOM     32  C   LIG    1       -1.921  -6.062   2.988  0.00  0.00    +0.600 C 
ATOM     33  F   LIG    1       -2.927  -6.198   2.024  0.00  0.00    -0.200 F 
ATOM     34  F   LIG    1       -2.348  -5.180   3.986  0.00  0.00    -0.200 F 
ENDBRANCH  31  32
ENDBRANCH  30  31
ENDBRANCH  24  25
ENDBRANCH  20  23
ENDBRANCH   1  21
TORSDOF 7
