REMARK  Name = ZINCpk000000mWMa.0
REMARK                            x       y       z     vdW  Elec       q    Type
REMARK                         _______ _______ _______ _____ _____    ______ ____
ROOT
ATOM      1  C   LIG    1       -0.319  -0.300   0.033  0.00  0.00    +0.220 C 
ATOM      2  C   LIG    1        1.187  -0.506   0.205  0.00  0.00    +0.010 C 
ATOM      3  C   LIG    1        1.805  -0.913  -1.135  0.00  0.00    +0.020 C 
ATOM      4  C   LIG    1        1.583   0.207  -2.156  0.00  0.00    +0.260 C 
ATOM      5  N   LIG    1        0.147   0.511  -2.221  0.00  0.00    -0.610 N 
ATOM      6  C   LIG    1       -0.505   0.499  -3.401  0.00  0.00    +0.530 C 
ATOM      7  O   LIG    1       -1.690   0.752  -3.441  0.00  0.00    -0.500 OA
ATOM      8  C   LIG    1       -0.565   0.827  -0.975  0.00  0.00    +0.290 C 
ENDROOT
BRANCH   6   9
ATOM      9  C   LIG    1        0.240   0.173  -4.670  0.00  0.00    +0.230 C 
ATOM     10  C   LIG    1        0.178   1.371  -5.623  0.00  0.00    +0.040 C 
ATOM     11  C   LIG    1        0.814   0.986  -6.961  0.00  0.00    +0.020 C 
ATOM     12  C   LIG    1        0.030  -0.170  -7.586  0.00  0.00    +0.010 C 
ATOM     13  C   LIG    1        0.090  -1.385  -6.655  0.00  0.00    +0.280 C 
ATOM     14  N   LIG    1       -0.385  -0.985  -5.324  0.00  0.00    -0.600 N 
ATOM     15  C   LIG    1       -1.376  -1.666  -4.714  0.00  0.00    +0.590 C 
ATOM     16  O   LIG    1       -1.843  -1.254  -3.668  0.00  0.00    -0.480 OA
BRANCH  15  17
ATOM     17  C   LIG    1       -1.891  -2.902  -5.311  0.00  0.00    -0.080 A 
ATOM     18  C   LIG    1       -2.974  -3.611  -4.879  0.00  0.00    +0.050 A 
ATOM     19  C   LIG    1       -3.105  -4.713  -5.739  0.00  0.00    -0.060 A 
ATOM     20  C   LIG    1       -2.103  -4.634  -6.642  0.00  0.00    +0.200 A 
ATOM     21  O   LIG    1       -1.373  -3.541  -6.381  0.00  0.00    -0.160 OA
ENDBRANCH  15  17
ENDBRANCH   6   9
BRANCH   1  24
ATOM     22  C   LIG    1       -1.890  -0.540   3.516  0.00  0.00    +0.100 C 
ATOM     23  C   LIG    1       -1.278  -0.909   2.189  0.00  0.00    +0.510 C 
ATOM     24  N   LIG    1       -0.914   0.058   1.323  0.00  0.00    -0.730 N 
ATOM     25  H   LIG    1       -1.047   0.991   1.553  0.00  0.00    +0.400 HD
ATOM     26  O   LIG    1       -1.112  -2.075   1.901  0.00  0.00    -0.540 OA
ENDBRANCH   1  24
TORSDOF 3
