REMARK  Name = ZINCvU0000000CNx.0
REMARK                            x       y       z     vdW  Elec       q    Type
REMARK                         _______ _______ _______ _____ _____    ______ ____
ROOT
ATOM      1  N   LIG    1       -1.800  -6.989   1.907  0.00  0.00    -0.440 N 
ATOM      2  C   LIG    1       -1.875  -5.840   1.166  0.00  0.00    +0.200 A 
ATOM      3  N   LIG    1       -2.963  -5.901   0.436  0.00  0.00    -0.300 NA
ATOM      4  N   LIG    1       -3.599  -7.120   0.705  0.00  0.00    -0.330 NA
ATOM      5  C   LIG    1       -2.885  -7.762   1.597  0.00  0.00    +0.410 A 
ENDROOT
BRANCH   1  10
ATOM      6  C   LIG    1        2.293  -8.312   5.610  0.00  0.00    +0.100 C 
ATOM      7  C   LIG    1        1.207  -7.961   4.627  0.00  0.00    -0.060 A 
ATOM      8  C   LIG    1        0.375  -6.885   4.873  0.00  0.00    +0.020 A 
ATOM      9  C   LIG    1       -0.622  -6.560   3.974  0.00  0.00    +0.030 A 
ATOM     10  C   LIG    1       -0.788  -7.316   2.821  0.00  0.00    +0.090 A 
ATOM     11  C   LIG    1        0.045  -8.399   2.579  0.00  0.00    +0.050 A 
ATOM     12  C   LIG    1        1.044  -8.715   3.480  0.00  0.00    +0.030 A 
ENDBRANCH   1  10
BRANCH   5  13
ATOM     13  N   LIG    1       -3.179  -9.010   2.132  0.00  0.00    -0.440 N 
ATOM     14  C   LIG    1       -3.405  -8.920   3.598  0.00  0.00    +0.190 C 
ATOM     15  C   LIG    1       -4.206 -10.208   3.912  0.00  0.00    +0.040 C 
ATOM     16  C   LIG    1       -5.126 -10.354   2.679  0.00  0.00    +0.030 C 
ATOM     17  C   LIG    1       -4.433  -9.549   1.563  0.00  0.00    +0.210 C 
ENDBRANCH   5  13
BRANCH   2  18
ATOM     18  S   LIG    1       -0.720  -4.511   1.194  0.00  0.00    +0.080 S 
BRANCH  18  19
ATOM     19  C   LIG    1       -1.416  -3.338  -0.002  0.00  0.00    +0.140 C 
ATOM     20  C   LIG    1       -1.395  -3.962  -1.399  0.00  0.00    +0.110 C 
BRANCH  19  21
ATOM     21  C   LIG    1       -0.595  -2.075  -0.003  0.00  0.00    +0.170 A 
ATOM     22  N   LIG    1        0.707  -2.003  -0.015  0.00  0.00    -0.250 NA
ATOM     23  N   LIG    1        1.069  -0.768  -0.018  0.00  0.00    -0.270 NA
ATOM     24  C   LIG    1        0.002  -0.004   0.002  0.00  0.00    +0.220 A 
ATOM     25  O   LIG    1       -1.072  -0.818   0.008  0.00  0.00    -0.210 OA
BRANCH  24  26
ATOM     26  C   LIG    1       -0.018   1.474   0.010  0.00  0.00    -0.030 A 
ATOM     27  C   LIG    1       -1.234   2.159   0.020  0.00  0.00    +0.050 A 
ATOM     28  C   LIG    1       -1.246   3.538   0.033  0.00  0.00    +0.010 A 
ATOM     29  C   LIG    1       -0.056   4.243   0.025  0.00  0.00    +0.040 A 
ATOM     30  C   LIG    1        1.154   3.571   0.010  0.00  0.00    +0.020 A 
ATOM     31  C   LIG    1        1.179   2.191   0.003  0.00  0.00    +0.080 A 
ENDBRANCH  24  26
ENDBRANCH  19  21
ENDBRANCH  18  19
ENDBRANCH   2  18
TORSDOF 6
