REMARK  Name = ZINCrD0000075UYF.0
REMARK                            x       y       z     vdW  Elec       q    Type
REMARK                         _______ _______ _______ _____ _____    ______ ____
ROOT
ATOM      1  O   LIG    1       -2.066   5.258  -1.603  0.00  0.00    -0.520 OA
ATOM      2  C   LIG    1       -2.238   4.513  -2.547  0.00  0.00    +0.570 C 
ATOM      3  N   LIG    1       -1.955   3.200  -2.429  0.00  0.00    -0.600 N 
ATOM      4  C   LIG    1       -2.274   2.265  -3.517  0.00  0.00    +0.260 C 
ATOM      5  C   LIG    1       -3.115   1.117  -2.951  0.00  0.00    +0.020 C 
ATOM      6  C   LIG    1       -2.375   0.481  -1.772  0.00  0.00    +0.050 C 
ATOM      7  C   LIG    1       -2.176   1.524  -0.670  0.00  0.00    -0.010 C 
ATOM      8  C   LIG    1       -1.324   2.676  -1.210  0.00  0.00    +0.280 C 
ENDROOT
BRANCH   2   9
ATOM      9  C   LIG    1       -2.757   5.047  -3.828  0.00  0.00    -0.130 A 
ATOM     10  C   LIG    1       -3.693   6.088  -3.852  0.00  0.00    +0.100 A 
ATOM     11  C   LIG    1       -4.131   6.535  -5.088  0.00  0.00    +0.220 A 
ATOM     12  N   LIG    1       -3.667   5.981  -6.191  0.00  0.00    -0.230 NA
ATOM     13  N   LIG    1       -2.810   5.027  -6.176  0.00  0.00    -0.240 NA
ATOM     14  C   LIG    1       -2.324   4.533  -5.053  0.00  0.00    +0.240 A 
ENDBRANCH   2   9
BRANCH   7  15
ATOM     15  C   LIG    1       -1.465   0.878   0.521  0.00  0.00    +0.210 C 
BRANCH  15  16
ATOM     16  C   LIG    1       -1.379   1.870   1.653  0.00  0.00    +0.170 A 
ATOM     17  N   LIG    1       -2.260   2.044   2.608  0.00  0.00    -0.480 NA
ATOM     18  C   LIG    1       -1.766   3.026   3.382  0.00  0.00    +0.170 A 
ATOM     19  N   LIG    1       -0.630   3.392   2.869  0.00  0.00    -0.370 NA
ATOM     20  O   LIG    1       -0.386   2.736   1.878  0.00  0.00    +0.080 OA
BRANCH  18  21
ATOM     21  C   LIG    1       -2.410   3.596   4.619  0.00  0.00    +0.110 C 
ATOM     22  C   LIG    1       -2.726   5.086   4.376  0.00  0.00    +0.020 C 
ATOM     23  C   LIG    1       -3.789   5.515   5.351  0.00  0.00    +0.000 C 
ATOM     24  C   LIG    1       -3.199   6.143   6.628  0.00  0.00    +0.000 C 
ATOM     25  C   LIG    1       -1.962   5.386   7.150  0.00  0.00    +0.000 C 
ATOM     26  C   LIG    1       -2.129   3.893   7.077  0.00  0.00    +0.030 C 
ATOM     27  C   LIG    1       -1.518   3.396   5.751  0.00  0.00    +0.010 C 
ENDBRANCH  18  21
ENDBRANCH  15  16
ENDBRANCH   7  15
TORSDOF 4
