REMARK  Name = ZINCpk00000ebx0b.0
REMARK                            x       y       z     vdW  Elec       q    Type
REMARK                         _______ _______ _______ _____ _____    ______ ____
ROOT
ATOM      1  O   LIG    1        3.104   7.307  -2.332  0.00  0.00    -0.520 OA
ATOM      2  C   LIG    1        3.748   7.769  -1.414  0.00  0.00    +0.500 C 
ATOM      3  N   LIG    1        4.814   8.554  -1.666  0.00  0.00    -0.720 N 
ATOM      4  H   LIG    1        5.329   8.923  -0.932  0.00  0.00    +0.410 HD
ENDROOT
BRANCH   3   5
ATOM      5  C   LIG    1        5.195   8.850  -3.050  0.00  0.00    +0.400 C 
BRANCH   5   6
ATOM      6  C   LIG    1        6.410   9.741  -3.057  0.00  0.00    +0.060 A 
ATOM      7  N   LIG    1        7.616   9.314  -3.065  0.00  0.00    -0.440 NA
ATOM      8  C   LIG    1        8.606  10.227  -3.074  0.00  0.00    +0.070 A 
ATOM      9  C   LIG    1       10.003  10.039  -3.089  0.00  0.00    +0.080 A 
ATOM     10  C   LIG    1       10.843  11.111  -3.091  0.00  0.00    +0.030 A 
ATOM     11  C   LIG    1       10.342  12.405  -3.079  0.00  0.00    +0.050 A 
ATOM     12  C   LIG    1        8.982  12.619  -3.065  0.00  0.00    +0.060 A 
ATOM     13  C   LIG    1        8.108  11.534  -3.063  0.00  0.00    -0.180 A 
ATOM     14  S   LIG    1        6.349  11.447  -3.047  0.00  0.00    +0.130 S 
ENDBRANCH   5   6
ENDBRANCH   3   5
BRANCH   2  15
ATOM     15  C   LIG    1        3.357   7.464   0.009  0.00  0.00    +0.420 C 
BRANCH  15  16
ATOM     16  N   LIG    1        2.175   6.598   0.016  0.00  0.00    -0.450 N 
ATOM     17  N   LIG    1        0.840   7.018   0.032  0.00  0.00    +0.050 NA
ATOM     18  N   LIG    1        0.099   6.028   0.033  0.00  0.00    +0.040 NA
ATOM     19  N   LIG    1        0.880   4.865   0.019  0.00  0.00    -0.390 N 
ATOM     20  C   LIG    1        2.176   5.247   0.015  0.00  0.00    +0.650 A 
ATOM     21  O   LIG    1        3.151   4.517   0.007  0.00  0.00    -0.500 OA
BRANCH  19  22
ATOM     22  C   LIG    1        0.405   3.550   0.017  0.00  0.00    +0.040 A 
ATOM     23  C   LIG    1       -0.888   3.194   0.027  0.00  0.00    +0.010 A 
ATOM     24  C   LIG    1       -1.113   1.829   0.017  0.00  0.00    +0.030 A 
ATOM     25  C   LIG    1       -0.013   1.076   0.008  0.00  0.00    -0.040 A 
ATOM     26  S   LIG    1        1.412   2.108  -0.000  0.00  0.00    +0.200 S 
ENDBRANCH  19  22
ENDBRANCH  15  16
ENDBRANCH   2  15
TORSDOF 5
