REMARK  Name = ZINCtV000002O7Hy.0
REMARK                            x       y       z     vdW  Elec       q    Type
REMARK                         _______ _______ _______ _____ _____    ______ ____
ROOT
ATOM      1  O   LIG    1        2.899   4.788   1.124  0.00  0.00    -0.490 OA
ATOM      2  C   LIG    1        1.813   4.255   1.218  0.00  0.00    +0.550 C 
ATOM      3  N   LIG    1        1.232   4.117   2.426  0.00  0.00    -0.660 N 
ATOM      4  H   LIG    1        0.333   3.761   2.494  0.00  0.00    +0.420 HD
ENDROOT
BRANCH   3   5
ATOM      5  C   LIG    1        1.927   4.487   3.583  0.00  0.00    +0.150 A 
ATOM      6  C   LIG    1        3.305   4.330   3.647  0.00  0.00    +0.070 A 
ATOM      7  C   LIG    1        3.990   4.701   4.788  0.00  0.00    +0.060 A 
ATOM      8  C   LIG    1        3.302   5.219   5.871  0.00  0.00    -0.010 A 
ATOM      9  C   LIG    1        1.927   5.372   5.812  0.00  0.00    -0.160 A 
ATOM     10 CL   LIG    1        4.164   5.679   7.306  0.00  0.00    -0.040 Cl
ATOM     11  C   LIG    1        1.239   5.007   4.671  0.00  0.00    +0.060 A 
BRANCH   9  12
ATOM     12  C   LIG    1        1.181   5.937   6.993  0.00  0.00    +0.510 C 
ATOM     13  F   LIG    1        1.653   7.224   7.271  0.00  0.00    -0.170 F 
ATOM     14  F   LIG    1        1.383   5.116   8.108  0.00  0.00    -0.170 F 
ATOM     15  F   LIG    1       -0.185   5.995   6.697  0.00  0.00    -0.170 F 
ENDBRANCH   9  12
ENDBRANCH   3   5
BRANCH   2  16
ATOM     16  C   LIG    1        1.114   3.747  -0.017  0.00  0.00    +0.060 C 
BRANCH  16  17
ATOM     17  C   LIG    1        1.315   2.258  -0.132  0.00  0.00    -0.100 A 
ATOM     18  C   LIG    1        0.223   1.411  -0.135  0.00  0.00    +0.060 A 
ATOM     19  C   LIG    1        0.408   0.045  -0.241  0.00  0.00    +0.010 A 
ATOM     20  C   LIG    1        1.685  -0.473  -0.344  0.00  0.00    +0.020 A 
ATOM     21  C   LIG    1        2.777   0.374  -0.342  0.00  0.00    +0.010 A 
ATOM     22  C   LIG    1        2.593   1.740  -0.237  0.00  0.00    +0.030 A 
ENDBRANCH  16  17
BRANCH  16  23
ATOM     23  S   LIG    1        1.803   4.566  -1.482  0.00  0.00    +0.060 S 
BRANCH  23  24
ATOM     24  C   LIG    1        0.780   3.970  -2.787  0.00  0.00    +0.040 A 
ATOM     25  C   LIG    1        1.002   4.390  -4.099  0.00  0.00    +0.090 A 
ATOM     26  C   LIG    1        0.174   3.888  -5.090  0.00  0.00    +0.080 A 
ATOM     27  C   LIG    1       -0.832   3.006  -4.715  0.00  0.00    +0.110 A 
ATOM     28  N   LIG    1       -0.974   2.667  -3.448  0.00  0.00    -0.210 NA
ATOM     29 CL   LIG    1       -1.904   2.352  -5.914  0.00  0.00    +0.000 Cl
ATOM     30  N   LIG    1       -0.206   3.124  -2.526  0.00  0.00    -0.220 NA
ENDBRANCH  23  24
ENDBRANCH  16  23
ENDBRANCH   2  16
TORSDOF 6
