REMARK  Name = ZINCrH00000No4Mk.0
REMARK                            x       y       z     vdW  Elec       q    Type
REMARK                         _______ _______ _______ _____ _____    ______ ____
ROOT
ATOM      1  C   LIG    1       -0.859   1.626   3.486  0.00  0.00    +0.170 A 
ATOM      2  C   LIG    1       -0.384   1.041   4.643  0.00  0.00    +0.000 A 
ATOM      3  C   LIG    1        0.964   0.675   4.735  0.00  0.00    +0.010 A 
ATOM      4  C   LIG    1        1.822   0.904   3.654  0.00  0.00    -0.020 A 
ATOM      5  C   LIG    1        1.338   1.483   2.501  0.00  0.00    +0.070 A 
ATOM      6  C   LIG    1        0.003   1.850   2.413  0.00  0.00    +0.090 A 
ENDROOT
BRANCH   4   7
ATOM      7  N   LIG    1        3.248   0.518   3.747  0.00  0.00    +0.020 N 
ATOM      8  O   LIG    1        3.821   0.063   2.773  0.00  0.00    -0.140 OA
ATOM      9  O   LIG    1        3.850   0.657   4.797  0.00  0.00    -0.140 OA
ENDBRANCH   4   7
BRANCH   1  11
ATOM     10  C   LIG    1       -2.994   1.723   4.530  0.00  0.00    +0.260 C 
ATOM     11  O   LIG    1       -2.168   1.982   3.393  0.00  0.00    -0.290 OA
ENDBRANCH   1  11
BRANCH   3  12
ATOM     12  C   LIG    1        1.476   0.053   5.964  0.00  0.00    +0.120 C 
ATOM     13  C   LIG    1        0.755   0.114   7.103  0.00  0.00    -0.050 C 
BRANCH  13  14
ATOM     14  C   LIG    1        1.264  -0.505   8.326  0.00  0.00    +0.550 C 
ATOM     15  N   LIG    1        0.598  -0.352   9.488  0.00  0.00    -0.600 N 
ATOM     16  C   LIG    1        1.023  -1.072  10.696  0.00  0.00    +0.280 C 
ATOM     17  C   LIG    1        1.223  -0.053  11.827  0.00  0.00    -0.030 C 
ATOM     18  C   LIG    1       -0.059   0.765  12.002  0.00  0.00    +0.030 C 
ATOM     19  C   LIG    1       -0.358   1.531  10.711  0.00  0.00    -0.030 C 
ATOM     20  C   LIG    1       -1.621   2.373  10.898  0.00  0.00    +0.030 C 
ATOM     21  C   LIG    1        2.381   0.883  11.478  0.00  0.00    +0.030 C 
ATOM     22  C   LIG    1       -0.572   0.534   9.568  0.00  0.00    +0.260 C 
ATOM     23  O   LIG    1        2.291  -1.158   8.296  0.00  0.00    -0.530 OA
ENDBRANCH  13  14
ENDBRANCH   3  12
BRANCH   6  24
ATOM     24  O   LIG    1       -0.468   2.425   1.275  0.00  0.00    -0.300 OA
BRANCH  24  25
ATOM     25  C   LIG    1        0.469   2.626   0.215  0.00  0.00    +0.600 C 
ATOM     26  F   LIG    1        1.503   3.459   0.657  0.00  0.00    -0.200 F 
ATOM     27  F   LIG    1        1.000   1.393  -0.179  0.00  0.00    -0.190 F 
ENDBRANCH  24  25
ENDBRANCH   6  24
TORSDOF 6
