REMARK  Name = ZINCrD000000BpKA.0
REMARK                            x       y       z     vdW  Elec       q    Type
REMARK                         _______ _______ _______ _____ _____    ______ ____
ROOT
ATOM      1  O   LIG    1        1.710   1.566   0.538  0.00  0.00    -0.590 OA
ATOM      2  C   LIG    1        1.414   0.390   0.627  0.00  0.00    +0.710 C 
ATOM      3  N   LIG    1        2.374  -0.532   0.840  0.00  0.00    -0.630 N 
ATOM      4  C   LIG    1        2.047  -1.965   0.846  0.00  0.00    +0.260 C 
ATOM      5  C   LIG    1        2.973  -2.681  -0.149  0.00  0.00    +0.020 C 
ATOM      6  C   LIG    1        4.429  -2.368   0.202  0.00  0.00    +0.040 C 
ATOM      7  C   LIG    1        4.671  -0.861   0.086  0.00  0.00    -0.020 C 
ATOM      8  C   LIG    1        3.765  -0.124   1.078  0.00  0.00    +0.310 C 
ATOM      9  N   LIG    1        0.127   0.009   0.513  0.00  0.00    -0.740 N 
ATOM     10  H   LIG    1       -0.102  -0.934   0.512  0.00  0.00    +0.400 HD
ENDROOT
BRANCH   7  11
ATOM     11  C   LIG    1        6.135  -0.551   0.405  0.00  0.00    +0.330 C 
ATOM     12  O   LIG    1        6.433  -0.961   1.750  0.00  0.00    -0.370 OA
ATOM     13  C   LIG    1        7.364   0.030   2.243  0.00  0.00    +0.210 C 
ATOM     14  C   LIG    1        6.826   1.322   1.578  0.00  0.00    +0.200 C 
ATOM     15  O   LIG    1        6.365   0.859   0.292  0.00  0.00    -0.380 OA
ENDBRANCH   7  11
BRANCH   9  16
ATOM     16  C   LIG    1       -0.928   1.018   0.385  0.00  0.00    +0.330 C 
BRANCH  16  17
ATOM     17  C   LIG    1       -2.266   0.335   0.267  0.00  0.00    -0.150 A 
ATOM     18  C   LIG    1       -2.762  -0.000  -0.979  0.00  0.00    +0.070 A 
ATOM     19  C   LIG    1       -3.986  -0.632  -1.089  0.00  0.00    -0.030 A 
ATOM     20  C   LIG    1       -4.722  -0.920   0.051  0.00  0.00    +0.140 A 
ATOM     21  C   LIG    1       -4.224  -0.578   1.300  0.00  0.00    -0.080 A 
ATOM     22  C   LIG    1       -2.997   0.049   1.405  0.00  0.00    +0.070 A 
BRANCH  20  23
ATOM     23  O   LIG    1       -5.928  -1.536  -0.055  0.00  0.00    -0.310 OA
BRANCH  23  24
ATOM     24  C   LIG    1       -6.683  -1.696   1.147  0.00  0.00    +0.160 C 
ATOM     25  C   LIG    1       -6.267  -2.996   1.864  0.00  0.00    +0.000 C 
ATOM     26  C   LIG    1       -7.591  -3.547   2.451  0.00  0.00    +0.020 C 
ATOM     27  C   LIG    1       -8.621  -3.216   1.342  0.00  0.00    +0.020 C 
ATOM     28  C   LIG    1       -8.180  -1.835   0.816  0.00  0.00    +0.040 C 
ENDBRANCH  23  24
ENDBRANCH  20  23
ENDBRANCH  16  17
ENDBRANCH   9  16
TORSDOF 5
