REMARK  Name = ZINCpk00001AZiKz.0
REMARK                            x       y       z     vdW  Elec       q    Type
REMARK                         _______ _______ _______ _____ _____    ______ ____
ROOT
ATOM      1  C   LIG    1       -3.747   6.086  -1.183  0.00  0.00    +0.200 A 
ATOM      2  N   LIG    1       -4.213   5.712  -2.340  0.00  0.00    -0.280 NA
ATOM      3  N   LIG    1       -3.244   5.461  -3.146  0.00  0.00    -0.310 NA
ATOM      4  C   LIG    1       -2.097   5.668  -2.542  0.00  0.00    +0.350 A 
ATOM      5  N   LIG    1       -2.382   6.068  -1.269  0.00  0.00    -0.460 N 
ENDROOT
BRANCH   1   9
ATOM      6  O   LIG    1       -7.700   8.027   0.731  0.00  0.00    -0.530 OA
ATOM      7  C   LIG    1       -6.793   7.259   0.492  0.00  0.00    +0.520 C 
ATOM      8  C   LIG    1       -5.556   7.601  -0.310  0.00  0.00    +0.090 C 
ATOM      9  C   LIG    1       -4.561   6.467   0.027  0.00  0.00    +0.100 C 
ATOM     10  C   LIG    1       -5.514   5.321   0.435  0.00  0.00    +0.290 C 
ATOM     11  N   LIG    1       -6.740   5.979   0.901  0.00  0.00    -0.730 N 
ATOM     12  H   LIG    1       -7.424   5.547   1.435  0.00  0.00    +0.410 HD
ENDBRANCH   1   9
BRANCH   4  13
ATOM     13  N   LIG    1       -0.835   5.509  -3.092  0.00  0.00    -0.440 N 
ATOM     14  C   LIG    1       -0.403   4.104  -3.020  0.00  0.00    +0.200 C 
ATOM     15  C   LIG    1        0.320   3.766  -4.339  0.00  0.00    +0.040 C 
ATOM     16  C   LIG    1        0.275   5.054  -5.178  0.00  0.00    -0.010 C 
ATOM     17  C   LIG    1        1.275   6.138  -4.750  0.00  0.00    +0.040 C 
ATOM     18  C   LIG    1        0.097   7.125  -4.774  0.00  0.00    +0.040 C 
ATOM     19  C   LIG    1       -0.821   5.918  -4.511  0.00  0.00    +0.150 C 
ENDBRANCH   4  13
BRANCH   5  20
ATOM     20  C   LIG    1       -1.425   6.413  -0.215  0.00  0.00    +0.330 C 
BRANCH  20  21
ATOM     21  C   LIG    1       -1.035   7.887  -0.342  0.00  0.00    +0.150 C 
ATOM     22  C   LIG    1        0.058   8.217   0.678  0.00  0.00    +0.010 C 
ATOM     23  C   LIG    1        0.400   9.707   0.586  0.00  0.00    +0.010 C 
ATOM     24  C   LIG    1       -0.874  10.527   0.812  0.00  0.00    -0.010 C 
ATOM     25  C   LIG    1       -1.931  10.108  -0.213  0.00  0.00    +0.210 C 
ATOM     26  O   LIG    1       -2.180   8.706  -0.093  0.00  0.00    -0.380 OA
ENDBRANCH  20  21
ENDBRANCH   5  20
TORSDOF 4
