REMARK  Name = ZINCqH000000741F.0
REMARK                            x       y       z     vdW  Elec       q    Type
REMARK                         _______ _______ _______ _____ _____    ______ ____
ROOT
ATOM      1  C   LIG    1        0.193   6.046  -0.443  0.00  0.00    +0.570 C 
ATOM      2  N   LIG    1        0.086   7.380  -0.276  0.00  0.00    -0.730 N 
ATOM      3  H   LIG    1       -0.360   7.737   0.508  0.00  0.00    +0.390 HD
ATOM      4  O   LIG    1        0.752   5.599  -1.425  0.00  0.00    -0.520 OA
ENDROOT
BRANCH   1   8
ATOM      5  C   LIG    1       -1.428   3.411   2.471  0.00  0.00    +0.130 A 
ATOM      6  C   LIG    1       -1.537   4.784   2.640  0.00  0.00    -0.040 A 
ATOM      7  C   LIG    1       -1.012   5.642   1.698  0.00  0.00    +0.050 A 
ATOM      8  C   LIG    1       -0.370   5.129   0.568  0.00  0.00    -0.140 A 
ATOM      9  C   LIG    1       -0.255   3.747   0.400  0.00  0.00    +0.040 A 
ATOM     10  C   LIG    1       -0.787   2.893   1.346  0.00  0.00    +0.090 A 
BRANCH   5  12
ATOM     11  C   LIG    1       -2.589   3.168   4.530  0.00  0.00    +0.250 C 
ATOM     12  O   LIG    1       -1.946   2.570   3.403  0.00  0.00    -0.300 OA
ENDBRANCH   5  12
BRANCH  10  13
ATOM     13  O   LIG    1       -0.682   1.547   1.184  0.00  0.00    -0.300 OA
ATOM     14  C   LIG    1       -0.013   1.086   0.008  0.00  0.00    +0.250 C 
ENDBRANCH  10  13
ENDBRANCH   1   8
BRANCH   2  15
ATOM     15  C   LIG    1        0.644   8.290  -1.279  0.00  0.00    +0.350 C 
BRANCH  15  16
ATOM     16  C   LIG    1        0.958   9.616  -0.635  0.00  0.00    +0.280 A 
ATOM     17  N   LIG    1        1.378  10.671  -1.270  0.00  0.00    -0.470 NA
ATOM     18  C   LIG    1        1.562  11.689  -0.390  0.00  0.00    +0.050 A 
ATOM     19  C   LIG    1        1.990  13.012  -0.523  0.00  0.00    +0.070 A 
ATOM     20  C   LIG    1        2.073  13.815   0.579  0.00  0.00    +0.000 A 
ATOM     21  C   LIG    1        1.737  13.331   1.835  0.00  0.00    +0.030 A 
ATOM     22  C   LIG    1        1.312  12.028   1.990  0.00  0.00    +0.010 A 
ATOM     23  C   LIG    1        1.221  11.198   0.882  0.00  0.00    +0.050 A 
ATOM     24  N   LIG    1        0.838   9.885   0.693  0.00  0.00    -0.600 N 
ATOM     25  H   LIG    1        0.540   9.268   1.379  0.00  0.00    +0.420 HD
ENDBRANCH  15  16
BRANCH  15  26
ATOM     26  C   LIG    1       -0.373   8.496  -2.403  0.00  0.00    +0.000 C 
ATOM     27  C   LIG    1        0.255   9.345  -3.510  0.00  0.00    +0.040 C 
ATOM     28  C   LIG    1       -1.607   9.212  -1.849  0.00  0.00    +0.010 C 
ENDBRANCH  15  26
ENDBRANCH   2  15
TORSDOF 6
