REMARK  Name = ZINCpk00001AZj9D.0
REMARK                            x       y       z     vdW  Elec       q    Type
REMARK                         _______ _______ _______ _____ _____    ______ ____
ROOT
ATOM      1  N   LIG    1       -4.046  11.345   0.099  0.00  0.00    -0.670 N 
ATOM      2  H   LIG    1       -3.281  11.940   0.045  0.00  0.00    +0.420 HD
ATOM      3  C   LIG    1       -3.858  10.021   0.262  0.00  0.00    +0.520 C 
ATOM      4  O   LIG    1       -4.811   9.289   0.425  0.00  0.00    -0.490 OA
ENDROOT
BRANCH   1   8
ATOM      5  C   LIG    1       -7.907  12.885  -0.172  0.00  0.00    -0.140 A 
ATOM      6  C   LIG    1       -6.894  13.635   0.433  0.00  0.00    +0.110 A 
ATOM      7  C   LIG    1       -5.619  13.123   0.521  0.00  0.00    -0.020 A 
ATOM      8  C   LIG    1       -5.338  11.861   0.009  0.00  0.00    +0.190 A 
ATOM      9  C   LIG    1       -6.342  11.113  -0.599  0.00  0.00    +0.000 A 
ATOM     10  C   LIG    1       -7.620  11.617  -0.685  0.00  0.00    +0.100 A 
BRANCH   5  11
ATOM     11  C   LIG    1       -9.273  13.430  -0.268  0.00  0.00    +0.510 C 
ATOM     12  O   LIG    1       -9.521  14.533   0.179  0.00  0.00    -0.510 OA
BRANCH  11  14
ATOM     13  C   LIG    1      -11.569  13.305  -0.911  0.00  0.00    +0.260 C 
ATOM     14  O   LIG    1      -10.248  12.705  -0.851  0.00  0.00    -0.360 OA
ENDBRANCH  11  14
ENDBRANCH   5  11
ENDBRANCH   1   8
BRANCH   3  15
ATOM     15  C   LIG    1       -2.464   9.449   0.240  0.00  0.00    +0.270 C 
BRANCH  15  16
ATOM     16  O   LIG    1       -2.528   8.011   0.435  0.00  0.00    -0.330 OA
BRANCH  16  17
ATOM     17  C   LIG    1       -1.357   7.342   0.442  0.00  0.00    +0.500 C 
ATOM     18  O   LIG    1       -0.311   7.944   0.290  0.00  0.00    -0.500 OA
BRANCH  17  19
ATOM     19  C   LIG    1       -1.345   5.890   0.633  0.00  0.00    +0.020 C 
ATOM     20  C   LIG    1       -0.175   5.221   0.641  0.00  0.00    +0.140 C 
BRANCH  20  21
ATOM     21  C   LIG    1       -0.162   3.760   0.833  0.00  0.00    +0.080 A 
ATOM     22  C   LIG    1        1.050   3.064   0.841  0.00  0.00    +0.260 A 
ATOM     23  N   LIG    1        1.054   1.755   1.014  0.00  0.00    -0.440 NA
ATOM     24  C   LIG    1       -0.084   1.104   1.180  0.00  0.00    +0.240 A 
ATOM     25  C   LIG    1       -1.290   1.790   1.167  0.00  0.00    +0.240 A 
ATOM     26  N   LIG    1       -1.306   3.098   1.001  0.00  0.00    -0.430 NA
ENDBRANCH  20  21
ENDBRANCH  17  19
ENDBRANCH  16  17
ENDBRANCH  15  16
ENDBRANCH   3  15
TORSDOF 8
