REMARK  Name = ZINCkj000005j8r6.0
REMARK                            x       y       z     vdW  Elec       q    Type
REMARK                         _______ _______ _______ _____ _____    ______ ____
ROOT
ATOM      1  N   LIG    1       -3.454   6.410  -1.909  0.00  0.00    -0.750 N 
ATOM      2  H   LIG    1       -2.937   5.810  -2.469  0.00  0.00    +0.390 HD
ATOM      3  C   LIG    1       -3.323   6.362  -0.569  0.00  0.00    +0.710 C 
ATOM      4  N   LIG    1       -2.400   5.555  -0.011  0.00  0.00    -0.630 N 
ATOM      5  C   LIG    1       -1.593   4.652  -0.843  0.00  0.00    +0.250 C 
ATOM      6  C   LIG    1       -1.722   3.228  -0.294  0.00  0.00    +0.020 C 
ATOM      7  C   LIG    1       -1.344   3.221   1.189  0.00  0.00    +0.020 C 
ATOM      8  C   LIG    1       -2.302   4.127   1.966  0.00  0.00    -0.020 C 
ATOM      9  C   LIG    1       -2.180   5.561   1.442  0.00  0.00    +0.310 C 
ATOM     10  O   LIG    1       -4.039   7.047   0.137  0.00  0.00    -0.580 OA
ENDROOT
BRANCH   1  12
ATOM     11  C   LIG    1       -5.786   6.772  -2.552  0.00  0.00    +0.020 C 
ATOM     12  C   LIG    1       -4.377   7.369  -2.521  0.00  0.00    +0.280 C 
BRANCH  12  13
ATOM     13  C   LIG    1       -3.922   7.675  -3.950  0.00  0.00    -0.090 C 
ATOM     14  C   LIG    1       -3.911   6.383  -4.769  0.00  0.00    +0.050 C 
ATOM     15  C   LIG    1       -2.513   8.271  -3.919  0.00  0.00    +0.050 C 
BRANCH  13  16
ATOM     16  C   LIG    1       -4.886   8.677  -4.589  0.00  0.00    +0.280 C 
BRANCH  16  17
ATOM     17  N   LIG    1       -4.582   8.803  -6.020  0.00  0.00    -0.390 N 
ATOM     18  C   LIG    1       -3.242   9.381  -6.188  0.00  0.00    +0.320 C 
ATOM     19  C   LIG    1       -5.576   9.679  -6.656  0.00  0.00    +0.320 C 
ATOM     20  H   LIG    1       -4.612   7.892  -6.452  0.00  0.00    +0.420 HD
ENDBRANCH  16  17
ENDBRANCH  13  16
ENDBRANCH  12  13
ENDBRANCH   1  12
BRANCH   8  21
ATOM     21  C   LIG    1       -1.944   4.094   3.453  0.00  0.00    +0.180 C 
BRANCH  21  22
ATOM     22  O   LIG    1       -2.906   4.849   4.192  0.00  0.00    -0.570 OA
ATOM     23  H   LIG    1       -2.742   4.871   5.144  0.00  0.00    +0.380 HD
ENDBRANCH  21  22
ENDBRANCH   8  21
TORSDOF 6
