REMARK  Name = ZINCtV00000L6kco.0
REMARK                            x       y       z     vdW  Elec       q    Type
REMARK                         _______ _______ _______ _____ _____    ______ ____
ROOT
ATOM      1  C   LIG    1       -2.835   1.030   2.301  0.00  0.00    +0.300 A 
ATOM      2  N   LIG    1       -3.473  -0.084   2.507  0.00  0.00    -0.480 NA
ATOM      3  C   LIG    1       -4.750   0.031   2.059  0.00  0.00    +0.050 A 
ATOM      4  C   LIG    1       -5.844  -0.838   2.032  0.00  0.00    +0.070 A 
ATOM      5  C   LIG    1       -7.029  -0.423   1.494  0.00  0.00    +0.000 A 
ATOM      6  C   LIG    1       -7.161   0.856   0.972  0.00  0.00    +0.030 A 
ATOM      7  C   LIG    1       -6.095   1.730   0.987  0.00  0.00    +0.000 A 
ATOM      8  C   LIG    1       -4.883   1.326   1.530  0.00  0.00    +0.050 A 
ATOM      9  N   LIG    1       -3.654   1.934   1.698  0.00  0.00    -0.480 N 
ENDROOT
BRANCH   1  10
ATOM     10  C   LIG    1       -1.396   1.282   2.670  0.00  0.00    +0.120 C 
ATOM     11  C   LIG    1       -0.499   0.279   1.942  0.00  0.00    +0.060 C 
BRANCH  10  15
ATOM     12  C   LIG    1       -0.909   0.827   6.890  0.00  0.00    -0.070 A 
ATOM     13  C   LIG    1       -0.615   2.035   6.287  0.00  0.00    +0.000 A 
ATOM     14  C   LIG    1       -0.773   2.183   4.921  0.00  0.00    +0.010 A 
ATOM     15  C   LIG    1       -1.224   1.121   4.159  0.00  0.00    -0.090 A 
ATOM     16  C   LIG    1       -1.522  -0.086   4.763  0.00  0.00    +0.060 A 
ATOM     17  C   LIG    1       -1.360  -0.235   6.128  0.00  0.00    +0.000 A 
BRANCH  12  18
ATOM     18  C   LIG    1       -0.737   0.666   8.378  0.00  0.00    +0.060 C 
BRANCH  18  20
ATOM     19  C   LIG    1       -1.907   0.763  10.584  0.00  0.00    +0.010 C 
ATOM     20  C   LIG    1       -2.040   1.044   9.086  0.00  0.00    -0.020 C 
ATOM     21  C   LIG    1       -2.324   2.532   8.870  0.00  0.00    +0.010 C 
ENDBRANCH  18  20
ENDBRANCH  12  18
ENDBRANCH  10  15
ENDBRANCH   1  10
BRANCH   9  22
ATOM     22  C   LIG    1       -3.299   3.299   1.301  0.00  0.00    +0.290 C 
ATOM     23  C   LIG    1       -4.419   4.257   1.710  0.00  0.00    +0.060 C 
BRANCH  22  24
ATOM     24  C   LIG    1       -3.111   3.354  -0.193  0.00  0.00    -0.110 A 
ATOM     25  C   LIG    1       -3.938   2.619  -1.022  0.00  0.00    +0.020 A 
ATOM     26  C   LIG    1       -3.769   2.674  -2.393  0.00  0.00    +0.000 A 
ATOM     27  C   LIG    1       -2.767   3.456  -2.934  0.00  0.00    +0.010 A 
ATOM     28  C   LIG    1       -1.937   4.188  -2.106  0.00  0.00    +0.010 A 
ATOM     29  C   LIG    1       -2.109   4.136  -0.735  0.00  0.00    +0.010 A 
ENDBRANCH  22  24
ENDBRANCH   9  22
TORSDOF 6
