REMARK  Name = ZINCpe000000SXIM.0
REMARK                            x       y       z     vdW  Elec       q    Type
REMARK                         _______ _______ _______ _____ _____    ______ ____
ROOT
ATOM      1  C   LIG    1       -1.432   0.339   4.756  0.00  0.00    +0.290 C 
ENDROOT
BRANCH   1   3
ATOM      2  C   LIG    1       -0.869   1.810   2.897  0.00  0.00    +0.530 C 
ATOM      3  N   LIG    1       -1.474   1.643   4.090  0.00  0.00    -0.720 N 
ATOM      4  H   LIG    1       -1.937   2.386   4.507  0.00  0.00    +0.400 HD
ATOM      5  O   LIG    1       -0.290   0.881   2.375  0.00  0.00    -0.530 OA
BRANCH   2   8
ATOM      6  N   LIG    1       -0.922   3.973  -0.042  0.00  0.00    -0.620 N 
ATOM      7  C   LIG    1       -0.157   3.110   0.865  0.00  0.00    +0.300 C 
ATOM      8  C   LIG    1       -0.913   3.152   2.212  0.00  0.00    +0.000 C 
ATOM      9  C   LIG    1       -2.351   3.496   1.753  0.00  0.00    +0.080 C 
ATOM     10  C   LIG    1       -2.160   4.202   0.429  0.00  0.00    +0.520 C 
ATOM     11  O   LIG    1       -3.002   4.876  -0.127  0.00  0.00    -0.520 OA
BRANCH   6  13
ATOM     12  C   LIG    1       -1.270   4.028  -2.462  0.00  0.00    +0.030 C 
ATOM     13  C   LIG    1       -0.403   4.516  -1.300  0.00  0.00    +0.240 C 
ATOM     14  C   LIG    1       -0.435   6.045  -1.247  0.00  0.00    +0.030 C 
ENDBRANCH   6  13
ENDBRANCH   2   8
ENDBRANCH   1   3
BRANCH   1  15
ATOM     15  C   LIG    1       -2.188   0.419   6.083  0.00  0.00    -0.010 C 
BRANCH  15  16
ATOM     16  C   LIG    1       -3.647   0.682   5.814  0.00  0.00    +0.520 C 
ATOM     17  O   LIG    1       -4.096   0.528   4.698  0.00  0.00    -0.530 OA
ATOM     18  N   LIG    1       -4.454   1.090   6.814  0.00  0.00    -0.850 N 
ATOM     19  H   LIG    1       -5.377   1.323   6.629  0.00  0.00    +0.410 HD
ATOM     20  H   LIG    1       -4.112   1.149   7.720  0.00  0.00    +0.400 HD
ENDBRANCH  15  16
BRANCH  15  21
ATOM     21  C   LIG    1       -2.039  -0.904   6.836  0.00  0.00    +0.110 C 
BRANCH  21  22
ATOM     22  C   LIG    1       -0.596  -1.104   7.220  0.00  0.00    -0.100 A 
ATOM     23  C   LIG    1        0.228  -1.883   6.429  0.00  0.00    +0.060 A 
ATOM     24  C   LIG    1        1.554  -2.062   6.778  0.00  0.00    -0.010 A 
ATOM     25  C   LIG    1        2.053  -1.470   7.926  0.00  0.00    +0.100 A 
ATOM     26  C   LIG    1        1.226  -0.695   8.720  0.00  0.00    -0.010 A 
ATOM     27  F   LIG    1        3.347  -1.649   8.270  0.00  0.00    -0.140 F 
ATOM     28  C   LIG    1       -0.098  -0.512   8.366  0.00  0.00    +0.040 A 
ENDBRANCH  21  22
ENDBRANCH  15  21
ENDBRANCH   1  15
TORSDOF 7
