REMARK  Name = ZINCvU000000044a.0
REMARK                            x       y       z     vdW  Elec       q    Type
REMARK                         _______ _______ _______ _____ _____    ______ ____
ROOT
ATOM      1  C   LIG    1        1.213   2.249   0.003  0.00  0.00    -0.030 A 
ATOM      2  C   LIG    1       -0.022   1.749   0.012  0.00  0.00    -0.010 A 
ATOM      3  S   LIG    1        0.002  -0.004   0.002  0.00  0.00    +0.190 S 
ATOM      4  C   LIG    1        1.759  -0.053  -0.015  0.00  0.00    +0.100 A 
ATOM      5  N   LIG    1        2.610  -1.087  -0.029  0.00  0.00    -0.500 NA
ATOM      6  C   LIG    1        3.909  -0.895  -0.041  0.00  0.00    +0.540 A 
ATOM      7  N   LIG    1        4.441   0.313  -0.040  0.00  0.00    -0.530 NA
ATOM      8  C   LIG    1        3.679   1.398  -0.026  0.00  0.00    +0.190 A 
ATOM      9  C   LIG    1        2.269   1.246  -0.013  0.00  0.00    -0.160 A 
ENDROOT
BRANCH   1  14
ATOM     10  C   LIG    1        2.284   7.907   0.021  0.00  0.00    +0.090 C 
ATOM     11  C   LIG    1        2.004   6.426   0.016  0.00  0.00    -0.070 A 
ATOM     12  C   LIG    1        1.109   5.897  -0.897  0.00  0.00    +0.010 A 
ATOM     13  C   LIG    1        0.848   4.542  -0.906  0.00  0.00    +0.030 A 
ATOM     14  C   LIG    1        1.489   3.706   0.007  0.00  0.00    -0.050 A 
ATOM     15  C   LIG    1        2.385   4.245   0.929  0.00  0.00    +0.040 A 
ATOM     16  C   LIG    1        2.642   5.601   0.925  0.00  0.00    +0.030 A 
ENDBRANCH   1  14
BRANCH   8  17
ATOM     17  S   LIG    1        4.406   3.003  -0.024  0.00  0.00    +0.100 S 
BRANCH  17  18
ATOM     18  C   LIG    1        6.159   2.554  -0.043  0.00  0.00    +0.050 C 
BRANCH  18  19
ATOM     19  C   LIG    1        6.998   3.805  -0.044  0.00  0.00    +0.530 C 
ATOM     20  N   LIG    1        8.343   3.715  -0.057  0.00  0.00    -0.720 N 
ATOM     21  H   LIG    1        8.770   2.845  -0.066  0.00  0.00    +0.410 HD
ATOM     22  O   LIG    1        6.463   4.894  -0.033  0.00  0.00    -0.520 OA
BRANCH  20  23
ATOM     23  C   LIG    1        9.159   4.932  -0.058  0.00  0.00    +0.290 C 
ATOM     24  C   LIG    1       10.521   4.631  -0.688  0.00  0.00    +0.010 C 
ATOM     25  C   LIG    1       11.452   5.819  -0.412  0.00  0.00    +0.260 C 
ATOM     26  O   LIG    1       11.665   5.907   0.997  0.00  0.00    -0.310 OA
ATOM     27  C   LIG    1       10.575   5.870   1.807  0.00  0.00    +0.140 A 
ATOM     28  C   LIG    1       10.709   6.307   3.121  0.00  0.00    -0.020 A 
ATOM     29  C   LIG    1        9.626   6.280   3.976  0.00  0.00    +0.050 A 
ATOM     30  C   LIG    1        8.403   5.817   3.526  0.00  0.00    -0.040 A 
ATOM     31  C   LIG    1        8.266   5.384   2.222  0.00  0.00    +0.060 A 
ATOM     32  C   LIG    1        9.348   5.410   1.359  0.00  0.00    -0.180 A 
ENDBRANCH  20  23
ENDBRANCH  18  19
ENDBRANCH  17  18
ENDBRANCH   8  17
TORSDOF 5
