REMARK  Name = ZINCrD000000Asvs.0
REMARK                            x       y       z     vdW  Elec       q    Type
REMARK                         _______ _______ _______ _____ _____    ______ ____
ROOT
ATOM      1  O   LIG    1       -3.604   1.925  -0.057  0.00  0.00    -0.490 OA
ATOM      2  C   LIG    1       -3.616   3.138  -0.050  0.00  0.00    +0.530 C 
ATOM      3  N   LIG    1       -2.459   3.822   0.044  0.00  0.00    -0.670 N 
ATOM      4  H   LIG    1       -2.473   4.789   0.126  0.00  0.00    +0.420 HD
ENDROOT
BRANCH   3   5
ATOM      5  C   LIG    1       -1.236   3.138   0.024  0.00  0.00    +0.140 A 
ATOM      6  C   LIG    1       -1.099   1.984  -0.736  0.00  0.00    +0.080 A 
ATOM      7  C   LIG    1        0.105   1.308  -0.751  0.00  0.00    +0.030 A 
ATOM      8  C   LIG    1        1.179   1.787  -0.017  0.00  0.00    +0.150 A 
ATOM      9  C   LIG    1        1.044   2.942   0.739  0.00  0.00    -0.190 A 
ATOM     10  C   LIG    1       -0.160   3.617   0.759  0.00  0.00    +0.070 A 
BRANCH   9  11
ATOM     11  C   LIG    1        2.212   3.462   1.537  0.00  0.00    +0.520 C 
ATOM     12  F   LIG    1        3.277   3.744   0.674  0.00  0.00    -0.180 F 
ATOM     13  F   LIG    1        2.609   2.495   2.466  0.00  0.00    -0.170 F 
ATOM     14  F   LIG    1        1.835   4.629   2.210  0.00  0.00    -0.180 F 
ENDBRANCH   9  11
BRANCH   8  15
ATOM     15  O   LIG    1        2.366   1.123  -0.037  0.00  0.00    -0.490 OA
ATOM     16  H   LIG    1        2.968   1.415  -0.736  0.00  0.00    +0.400 HD
ENDBRANCH   8  15
ENDBRANCH   3   5
BRANCH   2  17
ATOM     17  C   LIG    1       -4.925   3.879  -0.148  0.00  0.00    +0.100 C 
BRANCH  17  18
ATOM     18  S   LIG    1       -6.287   2.687  -0.261  0.00  0.00    -0.130 S 
BRANCH  18  19
ATOM     19  C   LIG    1       -7.752   3.751  -0.369  0.00  0.00    +0.150 C 
BRANCH  19  20
ATOM     20  C   LIG    1       -8.989   2.896  -0.471  0.00  0.00    +0.230 A 
ATOM     21  C   LIG    1       -9.825   2.746   0.615  0.00  0.00    -0.110 A 
ATOM     22  C   LIG    1      -10.964   1.948   0.495  0.00  0.00    +0.530 A 
ATOM     23  N   LIG    1      -11.236   1.328  -0.691  0.00  0.00    -0.470 N 
ATOM     24  C   LIG    1      -12.306   0.516  -0.972  0.00  0.00    +0.240 A 
ATOM     25  C   LIG    1      -12.414  -0.005  -2.182  0.00  0.00    +0.020 A 
ATOM     26  S   LIG    1      -11.008   0.591  -3.081  0.00  0.00    +0.190 S 
ATOM     27  C   LIG    1      -10.364   1.523  -1.718  0.00  0.00    +0.320 A 
ATOM     28  O   LIG    1      -11.715   1.805   1.447  0.00  0.00    -0.520 OA
ATOM     29  N   LIG    1       -9.289   2.281  -1.608  0.00  0.00    -0.490 NA
ENDBRANCH  19  20
ENDBRANCH  18  19
ENDBRANCH  17  18
ENDBRANCH   2  17
TORSDOF 7
