REMARK  Name = ZINCrD000000fQ5D.0
REMARK                            x       y       z     vdW  Elec       q    Type
REMARK                         _______ _______ _______ _____ _____    ______ ____
ROOT
ATOM      1  C   LIG    1       -4.336  -2.111  -2.743  0.00  0.00    +0.090 C 
ENDROOT
BRANCH   1   4
ATOM      2  N   LIG    1       -6.272  -3.227  -3.802  0.00  0.00    -0.670 N 
ATOM      3  H   LIG    1       -6.215  -3.911  -3.117  0.00  0.00    +0.420 HD
ATOM      4  C   LIG    1       -5.365  -2.230  -3.836  0.00  0.00    +0.520 C 
ATOM      5  O   LIG    1       -5.378  -1.429  -4.747  0.00  0.00    -0.500 OA
BRANCH   2   9
ATOM      6  C   LIG    1       -9.314  -3.368  -6.637  0.00  0.00    -0.190 A 
ATOM      7  C   LIG    1       -8.833  -2.134  -6.184  0.00  0.00    +0.100 A 
ATOM      8  C   LIG    1       -7.831  -2.092  -5.249  0.00  0.00    +0.000 A 
ATOM      9  C   LIG    1       -7.291  -3.274  -4.751  0.00  0.00    +0.180 A 
ATOM     10  C   LIG    1       -7.762  -4.504  -5.203  0.00  0.00    -0.030 A 
ATOM     11  C   LIG    1       -8.768  -4.556  -6.133  0.00  0.00    +0.090 A 
BRANCH   6  13
ATOM     12  C   LIG    1      -10.902  -4.748  -8.124  0.00  0.00    +0.080 C 
ATOM     13  C   LIG    1      -10.387  -3.418  -7.638  0.00  0.00    +0.390 C 
ATOM     14  O   LIG    1      -10.858  -2.389  -8.074  0.00  0.00    -0.460 OA
ENDBRANCH   6  13
ENDBRANCH   2   9
ENDBRANCH   1   4
BRANCH   1  15
ATOM     15  C   LIG    1       -3.436  -0.904  -3.019  0.00  0.00    +0.120 C 
BRANCH  15  16
ATOM     16  S   LIG    1       -2.199  -0.761  -1.705  0.00  0.00    +0.040 S 
BRANCH  16  17
ATOM     17  C   LIG    1       -1.327   0.666  -2.261  0.00  0.00    +0.210 A 
ATOM     18  N   LIG    1       -1.583   1.366  -3.344  0.00  0.00    -0.330 NA
ATOM     19  N   LIG    1       -0.754   2.340  -3.458  0.00  0.00    -0.030 NA
ATOM     20  N   LIG    1        0.076   2.338  -2.471  0.00  0.00    -0.070 NA
ATOM     21  N   LIG    1       -0.268   1.249  -1.651  0.00  0.00    -0.360 N 
BRANCH  21  22
ATOM     22  C   LIG    1        0.384   0.832  -0.407  0.00  0.00    +0.350 C 
BRANCH  22  23
ATOM     23  C   LIG    1       -0.282   1.534   0.778  0.00  0.00    +0.130 C 
BRANCH  23  24
ATOM     24  C   LIG    1        0.388   1.104   2.057  0.00  0.00    -0.190 A 
ATOM     25  C   LIG    1        1.436   1.710   2.618  0.00  0.00    +0.020 A 
ATOM     26  C   LIG    1        1.881   1.135   3.795  0.00  0.00    +0.000 A 
ATOM     27  C   LIG    1        1.195   0.062   4.191  0.00  0.00    -0.030 A 
ATOM     28  S   LIG    1       -0.096  -0.269   3.044  0.00  0.00    +0.110 S 
ENDBRANCH  23  24
ENDBRANCH  22  23
ENDBRANCH  21  22
ENDBRANCH  16  17
ENDBRANCH  15  16
ENDBRANCH   1  15
TORSDOF 9
