REMARK  Name = ZINCqH0000002Ury.0
REMARK                            x       y       z     vdW  Elec       q    Type
REMARK                         _______ _______ _______ _____ _____    ______ ____
ROOT
ATOM      1  S   LIG    1        2.299   5.500  -1.197  0.00  0.00    +0.050 S 
ENDROOT
BRANCH   1  11
ATOM      2  N   LIG    1        4.432   7.165  -1.841  0.00  0.00    -0.470 N 
ATOM      3  C   LIG    1        5.761   7.333  -1.484  0.00  0.00    +0.060 A 
ATOM      4  C   LIG    1        6.755   8.217  -1.873  0.00  0.00    +0.040 A 
ATOM      5  C   LIG    1        8.016   8.118  -1.322  0.00  0.00    +0.050 A 
ATOM      6  C   LIG    1        8.297   7.139  -0.380  0.00  0.00    -0.040 A 
ATOM      7  C   LIG    1        7.320   6.252   0.018  0.00  0.00    +0.080 A 
ATOM      8 CL   LIG    1        9.889   7.030   0.302  0.00  0.00    -0.060 Cl
ATOM      9  C   LIG    1        6.038   6.339  -0.531  0.00  0.00    +0.070 A 
ATOM     10  N   LIG    1        4.894   5.630  -0.347  0.00  0.00    -0.490 NA
ATOM     11  C   LIG    1        3.947   6.115  -1.113  0.00  0.00    +0.260 A 
BRANCH   2  12
ATOM     12  C   LIG    1        3.685   7.966  -2.814  0.00  0.00    +0.310 C 
BRANCH  12  14
ATOM     13  C   LIG    1        2.252   9.990  -3.119  0.00  0.00    +0.030 C 
ATOM     14  C   LIG    1        3.032   9.153  -2.103  0.00  0.00    +0.010 C 
ENDBRANCH  12  14
ENDBRANCH   2  12
ENDBRANCH   1  11
BRANCH   1  15
ATOM     15  C   LIG    1        2.406   4.147   0.001  0.00  0.00    +0.120 C 
ATOM     16  C   LIG    1        2.668   4.721   1.395  0.00  0.00    +0.090 C 
BRANCH  15  17
ATOM     17  C   LIG    1        1.110   3.379   0.010  0.00  0.00    +0.450 A 
ATOM     18  N   LIG    1        1.127   2.058   0.002  0.00  0.00    -0.620 NA
ATOM     19  C   LIG    1       -0.017   1.376   0.010  0.00  0.00    +0.630 A 
ATOM     20  N   LIG    1       -1.175   2.025   0.019  0.00  0.00    -0.650 NA
ATOM     21  C   LIG    1       -1.188   3.354   0.031  0.00  0.00    +0.630 A 
ATOM     22  N   LIG    1       -0.041   4.029   0.024  0.00  0.00    -0.630 NA
BRANCH  21  23
ATOM     23  N   LIG    1       -2.389   4.033   0.046  0.00  0.00    -0.800 N 
ATOM     24  H   LIG    1       -3.225   3.540   0.051  0.00  0.00    +0.420 HD
ATOM     25  H   LIG    1       -2.398   5.003   0.051  0.00  0.00    +0.420 HD
ENDBRANCH  21  23
BRANCH  19  26
ATOM     26  N   LIG    1        0.002  -0.004   0.002  0.00  0.00    -0.580 N 
ATOM     27  C   LIG    1       -1.256  -0.754   0.010  0.00  0.00    +0.310 C 
ATOM     28  C   LIG    1        1.281  -0.719  -0.014  0.00  0.00    +0.310 C 
ENDBRANCH  19  26
ENDBRANCH  15  17
ENDBRANCH   1  15
TORSDOF 7
