REMARK  Name = ZINCrH000004rhMR.0
REMARK                            x       y       z     vdW  Elec       q    Type
REMARK                         _______ _______ _______ _____ _____    ______ ____
ROOT
ATOM      1  C   LIG    1       -2.728  -3.055  -0.642  0.00  0.00    +0.290 C 
ENDROOT
BRANCH   1   5
ATOM      2  N   LIG    1       -2.579  -6.548   0.487  0.00  0.00    -0.470 N 
ATOM      3  C   LIG    1       -1.176  -6.166   0.754  0.00  0.00    +0.190 C 
ATOM      4  C   LIG    1       -1.137  -4.632   0.545  0.00  0.00    +0.030 C 
ATOM      5  C   LIG    1       -2.109  -4.454  -0.651  0.00  0.00    -0.030 C 
ATOM      6  C   LIG    1       -3.185  -5.528  -0.388  0.00  0.00    +0.210 C 
BRANCH   2  14
ATOM      7  C   LIG    1       -5.123  -7.489  -0.371  0.00  0.00    +0.100 C 
ATOM      8  C   LIG    1       -3.872  -8.314  -0.531  0.00  0.00    -0.100 A 
ATOM      9  C   LIG    1       -3.939  -9.564  -1.114  0.00  0.00    +0.050 A 
ATOM     10  C   LIG    1       -2.792 -10.325  -1.256  0.00  0.00    +0.000 A 
ATOM     11  C   LIG    1       -1.574  -9.834  -0.820  0.00  0.00    -0.010 A 
ATOM     12  C   LIG    1       -1.500  -8.581  -0.241  0.00  0.00    -0.020 A 
ATOM     13 CL   LIG    1       -0.138 -10.792  -1.001  0.00  0.00    -0.070 Cl
ATOM     14  C   LIG    1       -2.650  -7.815  -0.097  0.00  0.00    +0.120 A 
ENDBRANCH   2  14
ENDBRANCH   1   5
BRANCH   1  15
ATOM     15  N   LIG    1       -1.709  -2.068  -1.012  0.00  0.00    -0.710 N 
ATOM     16  H   LIG    1       -0.806  -2.357  -1.214  0.00  0.00    +0.410 HD
ATOM     17  C   LIG    1       -2.028  -0.760  -1.071  0.00  0.00    +0.610 C 
ATOM     18  O   LIG    1       -3.161  -0.399  -0.817  0.00  0.00    -0.530 OA
BRANCH  17  19
ATOM     19  C   LIG    1       -1.004   0.232  -1.443  0.00  0.00    -0.070 A 
ATOM     20  C   LIG    1       -1.180   1.578  -1.542  0.00  0.00    +0.040 A 
ATOM     21  O   LIG    1        0.002   2.102  -1.904  0.00  0.00    -0.190 OA
ATOM     22  C   LIG    1        0.885   1.101  -2.024  0.00  0.00    +0.440 A 
ATOM     23  N   LIG    1        0.296  -0.025  -1.750  0.00  0.00    -0.470 NA
BRANCH  20  24
ATOM     24  C   LIG    1       -2.461   2.335  -1.300  0.00  0.00    +0.300 C 
ATOM     25  C   LIG    1       -3.070   2.780  -2.647  0.00  0.00    +0.030 C 
ATOM     26  C   LIG    1       -3.600   4.202  -2.313  0.00  0.00    +0.030 C 
ATOM     27  C   LIG    1       -2.536   4.684  -1.295  0.00  0.00    +0.200 C 
ATOM     28  O   LIG    1       -2.189   3.515  -0.534  0.00  0.00    -0.370 OA
ENDBRANCH  20  24
ENDBRANCH  17  19
ENDBRANCH   1  15
TORSDOF 5
