REMARK  Name = ZINCqH0000034aRF.0
REMARK                            x       y       z     vdW  Elec       q    Type
REMARK                         _______ _______ _______ _____ _____    ______ ____
ROOT
ATOM      1  C   LIG    1        3.711  -0.707  -0.037  0.00  0.00    +0.170 C 
ATOM      2  N   LIG    1        3.558  -2.055   0.538  0.00  0.00    -0.710 N 
ATOM      3  H   LIG    1        3.284  -2.271   1.443  0.00  0.00    +0.440 HD
ATOM      4  C   LIG    1        3.874  -2.927  -0.436  0.00  0.00    +0.710 C 
ATOM      5  N   LIG    1        4.214  -2.317  -1.578  0.00  0.00    -0.570 N 
ATOM      6  O   LIG    1        3.853  -4.134  -0.295  0.00  0.00    -0.540 OA
ATOM      7  C   LIG    1        4.154  -0.976  -1.462  0.00  0.00    +0.540 C 
ATOM      8  O   LIG    1        4.404  -0.155  -2.318  0.00  0.00    -0.440 OA
ENDROOT
BRANCH   1   9
ATOM      9  C   LIG    1        2.396   0.029  -0.021  0.00  0.00    -0.100 A 
ATOM     10  C   LIG    1        1.208  -0.679  -0.013  0.00  0.00    +0.020 A 
ATOM     11  C   LIG    1        0.002  -0.004   0.002  0.00  0.00    +0.010 A 
ATOM     12  C   LIG    1       -0.017   1.378   0.010  0.00  0.00    +0.020 A 
ATOM     13  C   LIG    1        1.171   2.086   0.002  0.00  0.00    +0.010 A 
ATOM     14  C   LIG    1        2.377   1.411  -0.015  0.00  0.00    +0.040 A 
ENDBRANCH   1   9
BRANCH   1  16
ATOM     15  C   LIG    1        6.102  -0.681   0.687  0.00  0.00    +0.020 C 
ATOM     16  C   LIG    1        4.779   0.086   0.718  0.00  0.00    +0.060 C 
ENDBRANCH   1  16
BRANCH   5  17
ATOM     17  C   LIG    1        4.605  -3.021  -2.802  0.00  0.00    +0.440 C 
BRANCH  17  18
ATOM     18  C   LIG    1        6.096  -3.238  -2.803  0.00  0.00    -0.040 A 
ATOM     19  C   LIG    1        6.735  -4.343  -2.380  0.00  0.00    +0.200 A 
ATOM     20  O   LIG    1        8.057  -4.133  -2.553  0.00  0.00    -0.190 OA
ATOM     21  C   LIG    1        8.211  -2.901  -3.070  0.00  0.00    +0.270 A 
ATOM     22  N   LIG    1        7.022  -2.360  -3.220  0.00  0.00    -0.450 NA
BRANCH  21  23
ATOM     23  C   LIG    1        9.493  -2.266  -3.409  0.00  0.00    -0.150 A 
ATOM     24  C   LIG    1       10.720  -2.834  -3.249  0.00  0.00    +0.060 A 
ATOM     25  C   LIG    1       11.773  -2.037  -3.642  0.00  0.00    +0.010 A 
ATOM     26  C   LIG    1       11.430  -0.835  -4.117  0.00  0.00    -0.040 A 
ATOM     27  S   LIG    1        9.681  -0.656  -4.092  0.00  0.00    +0.220 S 
ENDBRANCH  21  23
ENDBRANCH  17  18
ENDBRANCH   5  17
TORSDOF 5
