REMARK  Name = ZINCpe000000YvBa.0
REMARK                            x       y       z     vdW  Elec       q    Type
REMARK                         _______ _______ _______ _____ _____    ______ ____
ROOT
ATOM      1  C   LIG    1       -4.583   2.236   4.716  0.00  0.00    +0.560 C 
ATOM      2  N   LIG    1       -3.602   3.161   4.706  0.00  0.00    -0.600 N 
ATOM      3  C   LIG    1       -3.653   4.315   5.613  0.00  0.00    +0.270 C 
ATOM      4  C   LIG    1       -3.507   5.598   4.788  0.00  0.00    +0.030 C 
ATOM      5  C   LIG    1       -2.232   5.515   3.946  0.00  0.00    +0.060 C 
ATOM      6  C   LIG    1       -2.330   4.330   2.983  0.00  0.00    -0.470 C 
ATOM      7  C   LIG    1       -2.462   3.033   3.788  0.00  0.00    +0.330 C 
ATOM      8  O   LIG    1       -4.585   1.344   3.891  0.00  0.00    -0.520 OA
ENDROOT
BRANCH   1  12
ATOM      9  C   LIG    1       -7.668   2.439   7.636  0.00  0.00    -0.000 A 
ATOM     10  C   LIG    1       -7.978   2.115   6.314  0.00  0.00    +0.070 A 
ATOM     11  C   LIG    1       -6.979   2.049   5.368  0.00  0.00    +0.070 A 
ATOM     12  C   LIG    1       -5.656   2.307   5.732  0.00  0.00    -0.100 A 
ATOM     13  C   LIG    1       -5.344   2.626   7.055  0.00  0.00    +0.050 A 
ATOM     14  C   LIG    1       -6.344   2.697   8.000  0.00  0.00    +0.060 A 
BRANCH   9  16
ATOM     15  N   LIG    1       -9.531   2.561   9.400  0.00  0.00    -0.400 NA
ATOM     16  C   LIG    1       -8.707   2.507   8.620  0.00  0.00    +0.240 C 
ENDBRANCH   9  16
ENDBRANCH   1  12
BRANCH   6  17
ATOM     17  S   LIG    1       -0.835   4.256   1.958  0.00  0.00    +2.610 S 
ATOM     18  O   LIG    1       -0.790   5.358   1.062  0.00  0.00    -0.940 OA
ATOM     19  O   LIG    1        0.294   3.908   2.748  0.00  0.00    -0.940 OA
BRANCH  17  20
ATOM     20  N   LIG    1       -1.069   2.942   0.978  0.00  0.00    -1.000 NA
ATOM     21  C   LIG    1       -0.623   1.602   1.390  0.00  0.00    +0.260 C 
ATOM     22  C   LIG    1        0.199   0.994   0.247  0.00  0.00    +0.220 C 
ATOM     23  O   LIG    1       -0.554   1.069  -0.966  0.00  0.00    -0.380 OA
ATOM     24  C   LIG    1       -0.853   2.401  -1.388  0.00  0.00    +0.220 C 
ATOM     25  C   LIG    1       -1.730   3.081  -0.329  0.00  0.00    +0.260 C 
ENDBRANCH  17  20
ENDBRANCH   6  17
TORSDOF 4
