REMARK  Name = ZINCue00000006zB.0
REMARK                            x       y       z     vdW  Elec       q    Type
REMARK                         _______ _______ _______ _____ _____    ______ ____
ROOT
ATOM      1  N   LIG    1       -1.407   3.525  -2.258  0.00  0.00    -0.600 N 
ATOM      2  C   LIG    1       -2.532   2.811  -2.459  0.00  0.00    +0.630 C 
ATOM      3  O   LIG    1       -2.966   2.100  -1.576  0.00  0.00    -0.510 OA
ENDROOT
BRANCH   2   4
ATOM      4  C   LIG    1       -3.243   2.894  -3.765  0.00  0.00    +0.210 A 
ATOM      5  N   LIG    1       -2.819   3.540  -4.821  0.00  0.00    -0.550 NA
ATOM      6  C   LIG    1       -3.703   3.411  -5.835  0.00  0.00    +0.530 A 
ATOM      7  N   LIG    1       -3.674   3.894  -7.068  0.00  0.00    -0.640 NA
ATOM      8  C   LIG    1       -4.654   3.658  -7.948  0.00  0.00    +0.540 A 
ATOM      9  C   LIG    1       -5.800   2.832  -7.523  0.00  0.00    -0.200 A 
ATOM     10  C   LIG    1       -6.857   2.542  -8.380  0.00  0.00    +0.100 A 
ATOM     11  C   LIG    1       -7.903   1.764  -7.930  0.00  0.00    -0.040 A 
ATOM     12  C   LIG    1       -7.905   1.272  -6.633  0.00  0.00    +0.050 A 
ATOM     13  C   LIG    1       -6.864   1.552  -5.772  0.00  0.00    -0.020 A 
ATOM     14  C   LIG    1       -5.802   2.333  -6.208  0.00  0.00    +0.210 A 
ATOM     15  O   LIG    1       -4.601   4.116  -9.077  0.00  0.00    -0.560 OA
ATOM     16  N   LIG    1       -4.738   2.640  -5.385  0.00  0.00    -0.380 N 
ATOM     17  N   LIG    1       -4.440   2.303  -4.056  0.00  0.00    -0.330 NA
ENDBRANCH   2   4
BRANCH   1  18
ATOM     18  C   LIG    1       -0.647   3.360  -1.017  0.00  0.00    +0.250 C 
ATOM     19  C   LIG    1       -0.189   1.905  -0.890  0.00  0.00    +0.020 C 
ATOM     20  C   LIG    1        0.635   1.743   0.392  0.00  0.00    +0.280 C 
ATOM     21  N   LIG    1       -0.156   2.228   1.530  0.00  0.00    -0.610 N 
ATOM     22  C   LIG    1       -0.724   3.582   1.470  0.00  0.00    +0.270 C 
ATOM     23  C   LIG    1       -0.360   1.445   2.608  0.00  0.00    +0.550 C 
ATOM     24  O   LIG    1        0.032   0.294   2.606  0.00  0.00    -0.550 OA
ATOM     25  C   LIG    1       -1.533   3.723   0.177  0.00  0.00    +0.020 C 
BRANCH  23  26
ATOM     26  C   LIG    1       -1.057   1.982   3.787  0.00  0.00    -0.090 C 
ATOM     27  C   LIG    1       -1.177   1.240   4.884  0.00  0.00    +0.120 C 
ENDBRANCH  23  26
ENDBRANCH   1  18
BRANCH   1  28
ATOM     28  C   LIG    1       -0.945   4.468  -3.280  0.00  0.00    +0.440 C 
BRANCH  28  30
ATOM     29  C   LIG    1        0.485   3.172  -5.091  0.00  0.00    +0.010 C 
ATOM     30  C   LIG    1       -0.149   3.747  -4.287  0.00  0.00    -0.170 C 
ENDBRANCH  28  30
ENDBRANCH   1  28
TORSDOF 5
