REMARK  Name = ZINCrH000004rI6c.0
REMARK                            x       y       z     vdW  Elec       q    Type
REMARK                         _______ _______ _______ _____ _____    ______ ____
ROOT
ATOM      1  C   LIG    1        0.101   4.002  -0.105  0.00  0.00    +0.010 A 
ATOM      2  C   LIG    1        1.203   3.531   0.608  0.00  0.00    +0.030 A 
ATOM      3  C   LIG    1        1.146   2.302   1.235  0.00  0.00    +0.020 A 
ATOM      4  C   LIG    1       -0.001   1.536   1.158  0.00  0.00    -0.010 A 
ATOM      5  C   LIG    1       -1.107   2.000   0.456  0.00  0.00    +0.140 A 
ATOM      6  C   LIG    1       -1.056   3.229  -0.182  0.00  0.00    +0.070 A 
ENDROOT
BRANCH   1  13
ATOM      7  C   LIG    1        1.809  10.568  -2.864  0.00  0.00    +0.150 C 
ATOM      8  C   LIG    1        1.026   9.323  -2.534  0.00  0.00    +0.180 A 
ATOM      9  C   LIG    1       -0.246   9.195  -3.002  0.00  0.00    -0.040 A 
ATOM     10  C   LIG    1       -0.991   8.058  -2.713  0.00  0.00    +0.210 A 
ATOM     11  C   LIG    1       -0.410   7.053  -1.937  0.00  0.00    -0.010 A 
ATOM     12  N   LIG    1       -0.826   5.860  -1.479  0.00  0.00    -0.510 NA
ATOM     13  C   LIG    1        0.160   5.321  -0.779  0.00  0.00    +0.300 A 
ATOM     14  N   LIG    1        1.214   6.141  -0.765  0.00  0.00    -0.550 NA
ATOM     15  C   LIG    1        0.919   7.225  -1.469  0.00  0.00    +0.230 A 
ATOM     16  N   LIG    1        1.601   8.367  -1.787  0.00  0.00    -0.480 N 
ATOM     17  H   LIG    1        2.510   8.487  -1.468  0.00  0.00    +0.420 HD
ENDBRANCH   1  13
BRANCH   5  18
ATOM     18  N   LIG    1       -2.268   1.223   0.387  0.00  0.00    -0.680 N 
ATOM     19  H   LIG    1       -2.204   0.256   0.342  0.00  0.00    +0.410 HD
ATOM     20  C   LIG    1       -3.478   1.818   0.383  0.00  0.00    +0.520 C 
ATOM     21  O   LIG    1       -3.558   3.028   0.353  0.00  0.00    -0.490 OA
BRANCH  20  22
ATOM     22  C   LIG    1       -4.730   0.980   0.416  0.00  0.00    +0.110 C 
ATOM     23  C   LIG    1       -5.121   0.410  -0.955  0.00  0.00    +0.060 C 
ATOM     24  C   LIG    1       -6.549   0.735  -0.489  0.00  0.00    +0.170 C 
ATOM     25  N   LIG    1       -5.971   1.777   0.382  0.00  0.00    -0.430 NA
BRANCH  25  26
ATOM     26  C   LIG    1       -6.626   1.788   1.696  0.00  0.00    +0.070 C 
ATOM     27  C   LIG    1       -6.900   0.349   2.142  0.00  0.00    +0.010 C 
ATOM     28  C   LIG    1       -7.948   2.552   1.601  0.00  0.00    +0.050 C 
ATOM     29  C   LIG    1       -5.714   2.472   2.715  0.00  0.00    +0.040 C 
ENDBRANCH  25  26
ENDBRANCH  20  22
ENDBRANCH   5  18
TORSDOF 4
