REMARK  Name = ZINCkj000005jVuz.0
REMARK                            x       y       z     vdW  Elec       q    Type
REMARK                         _______ _______ _______ _____ _____    ______ ____
ROOT
ATOM      1  C   LIG    1        1.132   3.098   0.056  0.00  0.00    +0.310 A 
ATOM      2  C   LIG    1       -0.048   3.816   0.245  0.00  0.00    -0.030 A 
ATOM      3  C   LIG    1       -1.245   3.152   0.242  0.00  0.00    +0.140 A 
ATOM      4  C   LIG    1       -1.240   1.763   0.043  0.00  0.00    -0.190 A 
ATOM      5  C   LIG    1       -0.020   1.108  -0.134  0.00  0.00    +0.370 A 
ATOM      6  N   LIG    1        1.109   1.784  -0.125  0.00  0.00    -0.520 NA
ENDROOT
BRANCH   1  10
ATOM      7  C   LIG    1        5.939   2.646  -0.408  0.00  0.00    +0.100 C 
ATOM      8  C   LIG    1        4.774   3.616  -0.206  0.00  0.00    +0.180 C 
ATOM      9  C   LIG    1        3.460   2.833  -0.155  0.00  0.00    +0.250 C 
ATOM     10  N   LIG    1        2.345   3.766   0.058  0.00  0.00    -0.480 N 
ATOM     11  C   LIG    1        2.528   4.522   1.305  0.00  0.00    +0.230 C 
ATOM     12  C   LIG    1        3.849   5.291   1.243  0.00  0.00    +0.180 C 
ATOM     13  C   LIG    1        4.052   6.063   2.548  0.00  0.00    +0.100 C 
ATOM     14  N   LIG    1        4.958   4.346   1.056  0.00  0.00    -0.390 N 
ATOM     15  C   LIG    1        6.228   5.083   1.014  0.00  0.00    +0.320 C 
ATOM     16  H   LIG    1        4.974   3.691   1.823  0.00  0.00    +0.420 HD
ENDBRANCH   1  10
BRANCH   4  17
ATOM     17  C   LIG    1       -2.506   1.005   0.026  0.00  0.00    +0.560 C 
ATOM     18  N   LIG    1       -3.625   1.573  -0.466  0.00  0.00    -0.610 N 
ATOM     19  C   LIG    1       -3.561   2.894  -1.094  0.00  0.00    +0.290 C 
ATOM     20  C   LIG    1       -4.906   0.868  -0.372  0.00  0.00    +0.300 C 
ATOM     21  O   LIG    1       -2.539  -0.132   0.457  0.00  0.00    -0.520 OA
ENDBRANCH   4  17
TORSDOF 2
