REMARK  Name = ZINCkj000005jVuz.1
REMARK                            x       y       z     vdW  Elec       q    Type
REMARK                         _______ _______ _______ _____ _____    ______ ____
ROOT
ATOM      1  C   LIG    1        1.306   2.647   0.680  0.00  0.00    +0.310 A 
ATOM      2  C   LIG    1        0.189   3.478   0.639  0.00  0.00    -0.030 A 
ATOM      3  C   LIG    1       -1.054   2.926   0.479  0.00  0.00    +0.150 A 
ATOM      4  C   LIG    1       -1.156   1.532   0.356  0.00  0.00    -0.190 A 
ATOM      5  C   LIG    1        0.006   0.760   0.412  0.00  0.00    +0.340 A 
ATOM      6  N   LIG    1        1.182   1.331   0.567  0.00  0.00    -0.520 NA
ENDROOT
BRANCH   1  10
ATOM      7  C   LIG    1        6.059   1.735   1.019  0.00  0.00    +0.100 C 
ATOM      8  C   LIG    1        4.978   2.818   0.980  0.00  0.00    +0.180 C 
ATOM      9  C   LIG    1        3.602   2.161   0.860  0.00  0.00    +0.250 C 
ATOM     10  N   LIG    1        2.565   3.202   0.842  0.00  0.00    -0.480 N 
ATOM     11  C   LIG    1        2.626   4.021   2.061  0.00  0.00    +0.240 C 
ATOM     12  C   LIG    1        4.011   4.663   2.171  0.00  0.00    +0.180 C 
ATOM     13  C   LIG    1        4.085   5.500   3.450  0.00  0.00    +0.100 C 
ATOM     14  N   LIG    1        5.036   3.612   2.215  0.00  0.00    -0.380 N 
ATOM     15  C   LIG    1        4.792   2.738   3.370  0.00  0.00    +0.310 C 
ATOM     16  H   LIG    1        5.948   4.035   2.300  0.00  0.00    +0.430 HD
ENDBRANCH   1  10
BRANCH   4  17
ATOM     17  C   LIG    1       -2.472   0.891   0.177  0.00  0.00    +0.560 C 
ATOM     18  N   LIG    1       -2.602  -0.161  -0.656  0.00  0.00    -0.610 N 
ATOM     19  C   LIG    1       -1.418  -0.735  -1.300  0.00  0.00    +0.280 C 
ATOM     20  C   LIG    1       -3.926  -0.730  -0.916  0.00  0.00    +0.310 C 
ATOM     21  O   LIG    1       -3.441   1.312   0.780  0.00  0.00    -0.520 OA
ENDBRANCH   4  17
TORSDOF 2
