REMARK  Name = ZINCrD00000lb6DB.0
REMARK                            x       y       z     vdW  Elec       q    Type
REMARK                         _______ _______ _______ _____ _____    ______ ____
ROOT
ATOM      1  C   LIG    1       -2.602   1.515   0.021  0.00  0.00    +0.420 C 
ATOM      2  O   LIG    1       -3.487   2.344   0.028  0.00  0.00    -0.460 OA
ENDROOT
BRANCH   1   3
ATOM      3  C   LIG    1       -1.200   1.940   0.018  0.00  0.00    -0.270 A 
ATOM      4  C   LIG    1       -0.724   3.238   0.026  0.00  0.00    +0.120 A 
ATOM      5  N   LIG    1        0.620   3.190   0.013  0.00  0.00    -0.430 N 
ATOM      6  C   LIG    1        1.052   1.896   0.002  0.00  0.00    +0.010 A 
ATOM      7  C   LIG    1        2.493   1.456  -0.013  0.00  0.00    +0.120 C 
ATOM      8  C   LIG    1       -1.564   4.488   0.041  0.00  0.00    +0.150 C 
ATOM      9  C   LIG    1       -0.013   1.076   0.008  0.00  0.00    +0.000 A 
BRANCH   5  10
ATOM     10  C   LIG    1        1.498   4.364   0.011  0.00  0.00    +0.300 C 
BRANCH  10  11
ATOM     11  C   LIG    1        1.789   4.780  -1.432  0.00  0.00    +0.110 C 
BRANCH  11  12
ATOM     12  C   LIG    1        2.691   5.987  -1.434  0.00  0.00    -0.190 A 
ATOM     13  C   LIG    1        4.024   5.950  -1.448  0.00  0.00    +0.010 A 
ATOM     14  C   LIG    1        4.642   7.189  -1.447  0.00  0.00    +0.000 A 
ATOM     15  C   LIG    1        3.811   8.232  -1.433  0.00  0.00    -0.040 A 
ATOM     16  S   LIG    1        2.147   7.660  -1.427  0.00  0.00    +0.100 S 
ENDBRANCH  11  12
ENDBRANCH  10  11
ENDBRANCH   5  10
ENDBRANCH   1   3
BRANCH   1  17
ATOM     17  C   LIG    1       -2.943   0.047   0.014  0.00  0.00    +0.340 C 
BRANCH  17  22
ATOM     18  C   LIG    1       -6.578  -0.363   0.659  0.00  0.00    +0.120 C 
ATOM     19  N   LIG    1       -6.458  -0.342  -0.809  0.00  0.00    -0.720 N 
ATOM     20  H   LIG    1       -7.182  -0.419  -1.450  0.00  0.00    +0.440 HD
ATOM     21  C   LIG    1       -5.150  -0.194  -1.086  0.00  0.00    +0.710 C 
ATOM     22  N   LIG    1       -4.399  -0.116   0.019  0.00  0.00    -0.570 N 
ATOM     23  O   LIG    1       -4.701  -0.137  -2.214  0.00  0.00    -0.540 OA
ATOM     24  C   LIG    1       -7.439   0.804   1.147  0.00  0.00    +0.080 C 
ATOM     25  C   LIG    1       -5.147  -0.211   1.136  0.00  0.00    +0.530 C 
ATOM     26  O   LIG    1       -4.756  -0.179   2.283  0.00  0.00    -0.460 OA
BRANCH  18  28
ATOM     27  C   LIG    1       -8.512  -1.932   0.450  0.00  0.00    +0.040 C 
ATOM     28  C   LIG    1       -7.162  -1.696   1.132  0.00  0.00    +0.040 C 
ENDBRANCH  18  28
ENDBRANCH  17  22
ENDBRANCH   1  17
TORSDOF 7
