REMARK  Name = ZINCpk00000xI9ye.1
REMARK                            x       y       z     vdW  Elec       q    Type
REMARK                         _______ _______ _______ _____ _____    ______ ____
ROOT
ATOM      1  C   LIG    1       -1.147   2.146   0.070  0.00  0.00    -0.150 A 
ATOM      2  C   LIG    1       -0.013   1.382   0.038  0.00  0.00    +0.020 A 
ATOM      3  S   LIG    1        1.375   2.367   0.005  0.00  0.00    +0.220 S 
ATOM      4  C   LIG    1        0.430   3.846   0.044  0.00  0.00    -0.190 A 
ATOM      5  C   LIG    1        1.011   5.247   0.039  0.00  0.00    +0.120 C 
ATOM      6  C   LIG    1       -0.095   6.237  -0.336  0.00  0.00    +0.030 C 
ATOM      7  C   LIG    1       -1.323   5.969   0.539  0.00  0.00    +0.030 C 
ATOM      8  C   LIG    1       -1.960   4.642   0.119  0.00  0.00    +0.110 C 
ATOM      9  C   LIG    1       -0.880   3.572   0.080  0.00  0.00    -0.040 A 
ENDROOT
BRANCH   1  10
ATOM     10  C   LIG    1       -2.498   1.581   0.098  0.00  0.00    +0.530 C 
ATOM     11  O   LIG    1       -3.035   1.338   1.162  0.00  0.00    -0.480 OA
BRANCH  10  12
ATOM     12  O   LIG    1       -3.147   1.329  -1.058  0.00  0.00    -0.350 OA
BRANCH  12  14
ATOM     13  C   LIG    1       -5.055   0.553  -2.357  0.00  0.00    +0.070 C 
ATOM     14  C   LIG    1       -4.483   0.769  -0.955  0.00  0.00    +0.200 C 
ENDBRANCH  12  14
ENDBRANCH  10  12
ENDBRANCH   1  10
BRANCH   2  15
ATOM     15  N   LIG    1        0.004  -0.002   0.026  0.00  0.00    -0.570 N 
ATOM     16  H   LIG    1       -0.830  -0.497   0.046  0.00  0.00    +0.440 HD
BRANCH  15  17
ATOM     17  C   LIG    1        1.181  -0.663  -0.012  0.00  0.00    +0.500 C 
ATOM     18  C   LIG    1        1.203  -2.042   0.085  0.00  0.00    -0.400 C 
ATOM     19  C   LIG    1       -0.042  -2.832   0.101  0.00  0.00    +0.580 C 
ATOM     20  N   LIG    1        0.057  -4.174   0.193  0.00  0.00    -0.660 N 
ATOM     21  H   LIG    1       -0.753  -4.709   0.202  0.00  0.00    +0.440 HD
ATOM     22  C   LIG    1        1.246  -4.786   0.278  0.00  0.00    +0.720 C 
ATOM     23  N   LIG    1        2.416  -4.131   0.274  0.00  0.00    -0.660 N 
ATOM     24  H   LIG    1        3.242  -4.636   0.338  0.00  0.00    +0.440 HD
ATOM     25  O   LIG    1        1.266  -5.998   0.364  0.00  0.00    -0.530 OA
ATOM     26  O   LIG    1       -1.128  -2.288   0.030  0.00  0.00    -0.520 OA
ATOM     27  C   LIG    1        2.471  -2.787   0.181  0.00  0.00    +0.590 C 
ATOM     28  O   LIG    1        3.539  -2.204   0.178  0.00  0.00    -0.500 OA
ENDBRANCH  15  17
ENDBRANCH   2  15
TORSDOF 5
