REMARK  Name = ZINCpe00000bI457.0
REMARK                            x       y       z     vdW  Elec       q    Type
REMARK                         _______ _______ _______ _____ _____    ______ ____
ROOT
ATOM      1  N   LIG    1       -3.296   2.943  -2.796  0.00  0.00    -0.390 N 
ATOM      2  N   LIG    1       -4.298   3.060  -3.776  0.00  0.00    -0.070 NA
ATOM      3  N   LIG    1       -4.606   1.861  -4.138  0.00  0.00    -0.030 NA
ATOM      4  N   LIG    1       -3.900   1.005  -3.492  0.00  0.00    -0.300 NA
ATOM      5  C   LIG    1       -3.083   1.614  -2.662  0.00  0.00    +0.410 A 
ENDROOT
BRANCH   5   6
ATOM      6  N   LIG    1       -2.178   1.009  -1.808  0.00  0.00    -0.440 N 
ATOM      7  C   LIG    1       -0.801   1.419  -2.122  0.00  0.00    +0.160 C 
ATOM      8  C   LIG    1        0.173   0.676  -1.203  0.00  0.00    +0.260 C 
ATOM      9  O   LIG    1       -0.164   0.950   0.161  0.00  0.00    -0.360 OA
ATOM     10  C   LIG    1       -1.500   0.595   0.504  0.00  0.00    +0.090 C 
ATOM     11  C   LIG    1       -1.686  -0.933   0.401  0.00  0.00    +0.010 C 
ATOM     12  C   LIG    1       -1.524  -1.377   1.879  0.00  0.00    +0.220 C 
ATOM     13  O   LIG    1       -2.148  -0.309   2.623  0.00  0.00    -0.370 OA
ATOM     14  C   LIG    1       -1.784   0.924   1.977  0.00  0.00    +0.240 C 
ATOM     15  C   LIG    1       -2.500   1.305  -0.403  0.00  0.00    +0.200 C 
ENDBRANCH   5   6
BRANCH   1  16
ATOM     16  C   LIG    1       -2.626   4.029  -2.075  0.00  0.00    +0.380 C 
BRANCH  16  20
ATOM     17  C   LIG    1       -0.390   6.402  -4.835  0.00  0.00    -0.070 A 
ATOM     18  C   LIG    1       -1.742   6.629  -4.666  0.00  0.00    +0.030 A 
ATOM     19  C   LIG    1       -2.466   5.861  -3.773  0.00  0.00    +0.050 A 
ATOM     20  C   LIG    1       -1.837   4.866  -3.049  0.00  0.00    -0.120 A 
ATOM     21  C   LIG    1       -0.483   4.642  -3.214  0.00  0.00    +0.020 A 
ATOM     22  C   LIG    1        0.240   5.406  -4.111  0.00  0.00    +0.030 A 
BRANCH  17  23
ATOM     23  C   LIG    1        0.400   7.239  -5.808  0.00  0.00    +0.220 C 
BRANCH  23  25
ATOM     24  C   LIG    1        1.689   9.253  -5.973  0.00  0.00    +0.200 C 
ATOM     25  O   LIG    1        0.920   8.387  -5.136  0.00  0.00    -0.380 OA
ENDBRANCH  23  25
ENDBRANCH  17  23
ENDBRANCH  16  20
ENDBRANCH   1  16
TORSDOF 5
