REMARK  Name = ZINCrD0000074cPq.0
REMARK                            x       y       z     vdW  Elec       q    Type
REMARK                         _______ _______ _______ _____ _____    ______ ____
ROOT
ATOM      1  C   LIG    1       -0.090   8.023  -0.169  0.00  0.00    +0.520 C 
ATOM      2  O   LIG    1        0.991   7.474  -0.089  0.00  0.00    -0.480 OA
ENDROOT
BRANCH   1   3
ATOM      3  C   LIG    1       -1.326   7.220  -0.160  0.00  0.00    -0.200 A 
ATOM      4  C   LIG    1       -2.579   7.839  -0.251  0.00  0.00    +0.180 A 
ATOM      5  C   LIG    1       -3.708   7.040  -0.237  0.00  0.00    -0.070 A 
ATOM      6  C   LIG    1       -3.571   5.668  -0.135  0.00  0.00    +0.350 A 
ATOM      7  N   LIG    1       -2.381   5.105  -0.055  0.00  0.00    -0.530 NA
ATOM      8  C   LIG    1       -1.269   5.821  -0.058  0.00  0.00    +0.380 A 
BRANCH   8   9
ATOM      9  O   LIG    1       -0.069   5.201   0.031  0.00  0.00    -0.220 OA
BRANCH   9  10
ATOM     10  C   LIG    1       -0.049   3.842   0.004  0.00  0.00    +0.090 A 
ATOM     11  C   LIG    1       -0.341   3.166  -1.172  0.00  0.00    +0.000 A 
ATOM     12  C   LIG    1       -0.319   1.785  -1.196  0.00  0.00    +0.020 A 
ATOM     13  C   LIG    1       -0.007   1.077  -0.051  0.00  0.00    +0.010 A 
ATOM     14  C   LIG    1        0.279   1.748   1.124  0.00  0.00    +0.020 A 
ATOM     15  C   LIG    1        0.265   3.129   1.152  0.00  0.00    +0.020 A 
ENDBRANCH   9  10
ENDBRANCH   8   9
ENDBRANCH   1   3
BRANCH   1  16
ATOM     16  O   LIG    1       -0.159   9.365  -0.267  0.00  0.00    -0.330 OA
BRANCH  16  18
ATOM     17  C   LIG    1        1.595  10.244  -1.709  0.00  0.00    +0.070 C 
ATOM     18  C   LIG    1        1.099  10.091  -0.270  0.00  0.00    +0.190 C 
BRANCH  18  19
ATOM     19  C   LIG    1        0.893  11.454   0.338  0.00  0.00    +0.520 C 
ATOM     20  N   LIG    1        1.929  12.310   0.441  0.00  0.00    -0.720 N 
ATOM     21  H   LIG    1        2.808  12.048   0.123  0.00  0.00    +0.410 HD
ATOM     22  O   LIG    1       -0.205  11.782   0.735  0.00  0.00    -0.510 OA
BRANCH  20  23
ATOM     23  C   LIG    1        1.730  13.635   1.032  0.00  0.00    +0.400 C 
BRANCH  23  24
ATOM     24  C   LIG    1        3.035  14.389   1.028  0.00  0.00    -0.050 A 
ATOM     25  C   LIG    1        3.480  15.186   0.041  0.00  0.00    -0.030 A 
ATOM     26  C   LIG    1        4.737  15.685   0.453  0.00  0.00    -0.070 A 
ATOM     27  C   LIG    1        4.985  15.162   1.667  0.00  0.00    +0.190 A 
ATOM     28  O   LIG    1        3.948  14.383   2.013  0.00  0.00    -0.170 OA
ENDBRANCH  23  24
ENDBRANCH  20  23
ENDBRANCH  18  19
ENDBRANCH  16  18
ENDBRANCH   1  16
TORSDOF 8
