REMARK  Name = ZINCAx0000000jrV.2
REMARK                            x       y       z     vdW  Elec       q    Type
REMARK                         _______ _______ _______ _____ _____    ______ ____
ROOT
ATOM      1  N   LIG    1        3.599  -6.420  -0.662  0.00  0.00    -0.520 NA
ATOM      2  C   LIG    1        4.953  -5.982  -1.025  0.00  0.00    +0.190 C 
ENDROOT
BRANCH   1   3
ATOM      3  C   LIG    1        3.410  -7.847  -0.958  0.00  0.00    +0.210 C 
BRANCH   3   5
ATOM      4  C   LIG    1        4.096 -10.166  -0.332  0.00  0.00    +0.060 C 
ATOM      5  C   LIG    1        4.216  -8.686   0.036  0.00  0.00    -0.020 C 
BRANCH   5   6
ATOM      6  C   LIG    1        3.678  -8.469   1.427  0.00  0.00    +0.540 C 
ATOM      7  N   LIG    1        4.463  -8.705   2.497  0.00  0.00    -0.620 N 
ATOM      8  C   LIG    1        3.942  -8.590   3.869  0.00  0.00    +0.310 C 
ATOM      9  C   LIG    1        3.997  -9.975   4.514  0.00  0.00    +0.110 C 
ATOM     10  C   LIG    1        5.337 -10.618   4.281  0.00  0.00    +0.240 A 
ATOM     11  N   LIG    1        5.706 -11.613   5.081  0.00  0.00    -0.570 NA
ATOM     12  C   LIG    1        6.868 -12.223   4.919  0.00  0.00    +0.570 A 
ATOM     13  N   LIG    1        7.708 -11.870   3.957  0.00  0.00    -0.570 NA
ATOM     14  C   LIG    1        7.404 -10.886   3.128  0.00  0.00    +0.380 A 
ATOM     15  C   LIG    1        6.192 -10.222   3.276  0.00  0.00    -0.270 A 
ATOM     16  C   LIG    1        5.870  -9.092   2.340  0.00  0.00    +0.350 C 
ATOM     17  O   LIG    1        2.540  -8.082   1.584  0.00  0.00    -0.520 OA
BRANCH  12  18
ATOM     18  N   LIG    1        7.216 -13.254   5.775  0.00  0.00    -0.820 N 
ATOM     19  H   LIG    1        8.066 -13.709   5.667  0.00  0.00    +0.420 HD
ATOM     20  H   LIG    1        6.610 -13.521   6.484  0.00  0.00    +0.420 HD
ENDBRANCH  12  18
ENDBRANCH   5   6
ENDBRANCH   3   5
ENDBRANCH   1   3
BRANCH   1  21
ATOM     21  C   LIG    1        2.582  -5.603  -1.337  0.00  0.00    +0.220 C 
BRANCH  21  22
ATOM     22  C   LIG    1        2.651  -4.189  -0.822  0.00  0.00    +0.510 C 
ATOM     23  N   LIG    1        1.807  -3.254  -1.301  0.00  0.00    -0.680 N 
ATOM     24  H   LIG    1        1.115  -3.505  -1.934  0.00  0.00    +0.410 HD
ATOM     25  O   LIG    1        3.468  -3.891   0.025  0.00  0.00    -0.500 OA
BRANCH  23  26
ATOM     26  C   LIG    1        1.927  -1.921  -0.887  0.00  0.00    +0.110 A 
ATOM     27  C   LIG    1        2.304  -1.631   0.418  0.00  0.00    +0.070 A 
ATOM     28  C   LIG    1        2.422  -0.317   0.826  0.00  0.00    +0.000 A 
ATOM     29  C   LIG    1        2.165   0.712  -0.067  0.00  0.00    +0.120 A 
ATOM     30  C   LIG    1        1.783   0.423  -1.369  0.00  0.00    -0.060 A 
ATOM     31  C   LIG    1        1.670  -0.890  -1.780  0.00  0.00    +0.030 A 
BRANCH  29  32
ATOM     32  O   LIG    1        2.281   2.006   0.335  0.00  0.00    -0.310 OA
BRANCH  32  33
ATOM     33  C   LIG    1        2.001   3.015  -0.636  0.00  0.00    +0.240 C 
BRANCH  33  34
ATOM     34  C   LIG    1        2.181   4.376  -0.014  0.00  0.00    -0.100 A 
ATOM     35  C   LIG    1        1.111   5.003   0.599  0.00  0.00    +0.020 A 
ATOM     36  C   LIG    1        1.278   6.248   1.174  0.00  0.00    +0.010 A 
ATOM     37  C   LIG    1        2.510   6.872   1.129  0.00  0.00    +0.010 A 
ATOM     38  C   LIG    1        3.578   6.248   0.511  0.00  0.00    +0.010 A 
ATOM     39  C   LIG    1        3.413   5.000  -0.060  0.00  0.00    +0.020 A 
ENDBRANCH  33  34
ENDBRANCH  32  33
ENDBRANCH  29  32
ENDBRANCH  23  26
ENDBRANCH  21  22
ENDBRANCH   1  21
TORSDOF 10
