REMARK  Name = ZINCvU0000000B3y.0
REMARK                            x       y       z     vdW  Elec       q    Type
REMARK                         _______ _______ _______ _____ _____    ______ ____
ROOT
ATOM      1  N   LIG    1        6.003  -1.938  -2.677  0.00  0.00    -0.720 N 
ATOM      2  H   LIG    1        5.569  -1.702  -3.512  0.00  0.00    +0.400 HD
ATOM      3  C   LIG    1        5.422  -1.624  -1.502  0.00  0.00    +0.520 C 
ATOM      4  O   LIG    1        5.966  -1.919  -0.459  0.00  0.00    -0.530 OA
ENDROOT
BRANCH   1   5
ATOM      5  C   LIG    1        7.292  -2.636  -2.694  0.00  0.00    +0.330 C 
BRANCH   5  10
ATOM      6  C   LIG    1       10.033  -1.500  -7.652  0.00  0.00    +0.090 C 
ATOM      7  C   LIG    1        9.318  -1.797  -6.359  0.00  0.00    -0.080 A 
ATOM      8  C   LIG    1       10.027  -1.848  -5.173  0.00  0.00    +0.010 A 
ATOM      9  C   LIG    1        9.371  -2.120  -3.987  0.00  0.00    +0.030 A 
ATOM     10  C   LIG    1        8.007  -2.340  -3.987  0.00  0.00    -0.100 A 
ATOM     11  C   LIG    1        7.299  -2.294  -5.173  0.00  0.00    +0.010 A 
ATOM     12  C   LIG    1        7.954  -2.018  -6.359  0.00  0.00    +0.000 A 
ENDBRANCH   5  10
BRANCH   5  13
ATOM     13  C   LIG    1        7.060  -4.121  -2.576  0.00  0.00    -0.090 A 
ATOM     14  C   LIG    1        6.006  -4.711  -3.248  0.00  0.00    +0.020 A 
ATOM     15  C   LIG    1        5.797  -6.074  -3.143  0.00  0.00    +0.000 A 
ATOM     16  C   LIG    1        6.636  -6.844  -2.360  0.00  0.00    +0.000 A 
ATOM     17  C   LIG    1        7.686  -6.252  -1.684  0.00  0.00    +0.000 A 
ATOM     18  C   LIG    1        7.899  -4.891  -1.792  0.00  0.00    +0.020 A 
ENDBRANCH   5  13
ENDBRANCH   1   5
BRANCH   3  19
ATOM     19  C   LIG    1        4.097  -0.906  -1.485  0.00  0.00    +0.060 C 
BRANCH  19  20
ATOM     20  C   LIG    1        3.663  -0.672  -0.037  0.00  0.00    +0.120 C 
BRANCH  20  21
ATOM     21  C   LIG    1        2.338   0.046  -0.020  0.00  0.00    -0.190 A 
ATOM     22  C   LIG    1        1.148  -0.664  -0.013  0.00  0.00    +0.200 A 
ATOM     23  N   LIG    1        0.002  -0.004   0.002  0.00  0.00    -0.500 NA
ATOM     24  C   LIG    1       -0.016   1.321   0.009  0.00  0.00    +0.300 A 
ATOM     25  N   LIG    1        1.104   2.030   0.002  0.00  0.00    -0.510 NA
ATOM     26  C   LIG    1        1.159  -2.171  -0.020  0.00  0.00    +0.160 C 
ATOM     27  C   LIG    1        2.283   1.431  -0.012  0.00  0.00    +0.200 A 
ATOM     28  C   LIG    1        3.552   2.245  -0.019  0.00  0.00    +0.160 C 
BRANCH  24  29
ATOM     29  S   LIG    1       -1.565   2.161   0.021  0.00  0.00    +0.010 S 
BRANCH  29  30
ATOM     30  C   LIG    1       -0.992   3.878   0.028  0.00  0.00    +0.430 C 
ATOM     31  F   LIG    1       -0.225   4.117  -1.117  0.00  0.00    -0.170 F 
ATOM     32  F   LIG    1       -0.214   4.105   1.168  0.00  0.00    -0.170 F 
ENDBRANCH  29  30
ENDBRANCH  24  29
ENDBRANCH  20  21
ENDBRANCH  19  20
ENDBRANCH   3  19
TORSDOF 8
