REMARK  Name = ZINCvU00000008zh.0
REMARK                            x       y       z     vdW  Elec       q    Type
REMARK                         _______ _______ _______ _____ _____    ______ ____
ROOT
ATOM      1  C   LIG    1       -1.453   7.973  -0.394  0.00  0.00    +0.150 A 
ATOM      2  N   LIG    1       -0.287   8.579  -0.388  0.00  0.00    -0.290 NA
ATOM      3  N   LIG    1       -0.450   9.850  -0.486  0.00  0.00    -0.240 NA
ATOM      4  C   LIG    1       -1.730  10.134  -0.552  0.00  0.00    +0.220 A 
ATOM      5  N   LIG    1       -2.412   8.940  -0.495  0.00  0.00    -0.440 N 
ENDROOT
BRANCH   4   6
ATOM      6  C   LIG    1       -2.327  11.482  -0.666  0.00  0.00    +0.010 A 
ATOM      7  C   LIG    1       -3.283  11.744  -1.648  0.00  0.00    +0.030 A 
ATOM      8  C   LIG    1       -3.840  13.003  -1.746  0.00  0.00    +0.040 A 
ATOM      9  C   LIG    1       -3.445  14.007  -0.880  0.00  0.00    +0.040 A 
ATOM     10  C   LIG    1       -2.494  13.755   0.093  0.00  0.00    +0.050 A 
ATOM     11  C   LIG    1       -1.932  12.499   0.205  0.00  0.00    -0.060 A 
ATOM     12 BR   LIG    1       -0.632  12.158   1.535  0.00  0.00    -0.020 Br
ENDBRANCH   4   6
BRANCH   1  13
ATOM     13  S   LIG    1       -1.728   6.236  -0.285  0.00  0.00    +0.090 S 
BRANCH  13  14
ATOM     14  C   LIG    1       -0.018   5.652  -0.184  0.00  0.00    +0.110 C 
BRANCH  14  16
ATOM     15  O   LIG    1       -1.050   3.533  -0.076  0.00  0.00    -0.500 OA
ATOM     16  C   LIG    1       -0.005   4.149  -0.080  0.00  0.00    +0.540 C 
ATOM     17  N   LIG    1        1.167   3.489   0.007  0.00  0.00    -0.660 N 
ATOM     18  H   LIG    1        1.998   3.984   0.084  0.00  0.00    +0.420 HD
BRANCH  17  19
ATOM     19  C   LIG    1        1.186   2.089  -0.014  0.00  0.00    +0.120 A 
ATOM     20  C   LIG    1        0.151   1.389  -0.617  0.00  0.00    +0.060 A 
ATOM     21  C   LIG    1        0.172   0.007  -0.636  0.00  0.00    +0.030 A 
ATOM     22  C   LIG    1        1.222  -0.679  -0.055  0.00  0.00    +0.030 A 
ATOM     23  C   LIG    1        2.256   0.015   0.548  0.00  0.00    +0.010 A 
ATOM     24  C   LIG    1        2.242   1.397   0.570  0.00  0.00    +0.070 A 
ATOM     25  F   LIG    1        3.251   2.075   1.159  0.00  0.00    -0.140 F 
ENDBRANCH  17  19
ENDBRANCH  14  16
ENDBRANCH  13  14
ENDBRANCH   1  13
BRANCH   5  26
ATOM     26  C   LIG    1       -3.864   8.747  -0.535  0.00  0.00    +0.360 C 
BRANCH  26  27
ATOM     27  C   LIG    1       -4.429   8.899   0.854  0.00  0.00    -0.120 A 
ATOM     28  C   LIG    1       -4.447   7.818   1.715  0.00  0.00    +0.040 A 
ATOM     29  C   LIG    1       -4.961   7.959   2.991  0.00  0.00    +0.010 A 
ATOM     30  C   LIG    1       -5.467   9.178   3.401  0.00  0.00    +0.030 A 
ATOM     31  C   LIG    1       -5.453  10.258   2.538  0.00  0.00    +0.010 A 
ATOM     32  C   LIG    1       -4.934  10.118   1.265  0.00  0.00    +0.030 A 
ENDBRANCH  26  27
ENDBRANCH   5  26
TORSDOF 7
