REMARK  Name = ZINCnE000005uihQ.0
REMARK                            x       y       z     vdW  Elec       q    Type
REMARK                         _______ _______ _______ _____ _____    ______ ____
ROOT
ATOM      1  N   LIG    1       -1.940  -0.507   0.526  0.00  0.00    -0.510 NA
ATOM      2  C   LIG    1       -1.097  -0.847  -0.627  0.00  0.00    +0.190 C 
ATOM      3  C   LIG    1       -0.483  -2.234  -0.421  0.00  0.00    -0.000 C 
ATOM      4  C   LIG    1       -1.604  -3.265  -0.263  0.00  0.00    +0.160 C 
ATOM      5  C   LIG    1       -2.495  -2.861   0.915  0.00  0.00    +0.020 C 
ATOM      6  C   LIG    1       -3.051  -1.456   0.670  0.00  0.00    +0.160 C 
ENDROOT
BRANCH   5   7
ATOM      7  C   LIG    1       -3.653  -3.853   1.043  0.00  0.00    +0.000 C 
ATOM      8  C   LIG    1       -4.509  -3.834  -0.239  0.00  0.00    +0.000 C 
ATOM      9  C   LIG    1       -5.962  -4.010   0.272  0.00  0.00    +0.000 C 
ATOM     10  C   LIG    1       -5.968  -3.176   1.578  0.00  0.00    +0.000 C 
ATOM     11  C   LIG    1       -4.579  -3.436   2.198  0.00  0.00    +0.010 C 
ENDBRANCH   5   7
BRANCH   4  12
ATOM     12  O   LIG    1       -1.036  -4.552  -0.013  0.00  0.00    -0.570 OA
ATOM     13  H   LIG    1       -0.459  -4.872  -0.719  0.00  0.00    +0.370 HD
ENDBRANCH   4  12
BRANCH   1  14
ATOM     14  C   LIG    1       -2.435   0.872   0.427  0.00  0.00    +0.100 C 
BRANCH  14  15
ATOM     15  C   LIG    1       -3.209   1.218   1.673  0.00  0.00    -0.010 A 
ATOM     16  C   LIG    1       -2.910   0.593   2.868  0.00  0.00    +0.050 A 
ATOM     17  C   LIG    1       -3.617   0.914   4.013  0.00  0.00    +0.000 A 
ATOM     18  C   LIG    1       -4.626   1.858   3.960  0.00  0.00    -0.010 A 
ATOM     19  C   LIG    1       -4.929   2.479   2.764  0.00  0.00    +0.020 A 
ATOM     20  C   LIG    1       -4.223   2.158   1.619  0.00  0.00    -0.090 A 
ATOM     21 BR   LIG    1       -4.639   3.008  -0.019  0.00  0.00    -0.050 Br
ENDBRANCH  14  15
BRANCH  14  23
ATOM     22  O   LIG    1       -0.158   1.472   0.647  0.00  0.00    -0.670 OA
ATOM     23  C   LIG    1       -1.269   1.816   0.282  0.00  0.00    +0.510 C 
ATOM     24  O   LIG    1       -1.437   2.922  -0.201  0.00  0.00    -0.680 OA
ENDBRANCH  14  23
ENDBRANCH   1  14
TORSDOF 5
