REMARK  Name = ZINCrD000000At0R.0
REMARK                            x       y       z     vdW  Elec       q    Type
REMARK                         _______ _______ _______ _____ _____    ______ ____
ROOT
ATOM      1  C   LIG    1        8.955   0.900  -0.412  0.00  0.00    +0.150 A 
ATOM      2  C   LIG    1        9.210   2.266  -0.411  0.00  0.00    +0.020 A 
ATOM      3  C   LIG    1       10.507   2.726  -0.513  0.00  0.00    +0.050 A 
ATOM      4  C   LIG    1       11.557   1.825  -0.628  0.00  0.00    +0.110 A 
ATOM      5  C   LIG    1       11.302   0.460  -0.635  0.00  0.00    +0.050 A 
ATOM      6  C   LIG    1       10.005  -0.001  -0.527  0.00  0.00    +0.050 A 
ENDROOT
BRANCH   4   7
ATOM      7  N   LIG    1       12.874   2.293  -0.737  0.00  0.00    -0.450 N 
ATOM      8  C   LIG    1       13.942   1.879   0.000  0.00  0.00    +0.490 A 
ATOM      9  N   LIG    1       15.013   2.523  -0.364  0.00  0.00    -0.490 NA
ATOM     10  C   LIG    1       14.707   3.394  -1.360  0.00  0.00    +0.050 A 
ATOM     11  C   LIG    1       15.456   4.310  -2.102  0.00  0.00    +0.070 A 
ATOM     12  C   LIG    1       14.845   5.061  -3.080  0.00  0.00    +0.000 A 
ATOM     13  C   LIG    1       13.486   4.923  -3.328  0.00  0.00    +0.030 A 
ATOM     14  C   LIG    1       12.731   4.026  -2.603  0.00  0.00    +0.010 A 
ATOM     15  C   LIG    1       13.332   3.255  -1.618  0.00  0.00    +0.050 A 
ENDBRANCH   4   7
BRANCH   1  18
ATOM     16  O   LIG    1        8.279  -1.288   0.943  0.00  0.00    -0.490 OA
ATOM     17  C   LIG    1        7.384  -0.712   0.361  0.00  0.00    +0.540 C 
ATOM     18  N   LIG    1        7.640   0.433  -0.302  0.00  0.00    -0.670 N 
ATOM     19  H   LIG    1        6.912   0.933  -0.704  0.00  0.00    +0.420 HD
BRANCH  17  20
ATOM     20  C   LIG    1        5.987  -1.277   0.380  0.00  0.00    +0.070 C 
BRANCH  20  21
ATOM     21  S   LIG    1        5.968  -2.811   1.347  0.00  0.00    +0.110 S 
BRANCH  21  22
ATOM     22  C   LIG    1        4.282  -3.315   1.257  0.00  0.00    +0.050 C 
ATOM     23  C   LIG    1        3.445  -2.752   0.301  0.00  0.00    +0.020 C 
ATOM     24  C   LIG    1        2.123  -3.157   0.241  0.00  0.00    +0.100 C 
ATOM     25  C   LIG    1        1.682  -4.115   1.143  0.00  0.00    +0.040 C 
ATOM     26  C   LIG    1        2.568  -4.633   2.068  0.00  0.00    +0.290 C 
ATOM     27  N   LIG    1        3.824  -4.228   2.102  0.00  0.00    -0.110 NA
ATOM     28  O   LIG    1        4.702  -4.783   3.064  0.00  0.00    -0.530 OA
ENDBRANCH  21  22
ENDBRANCH  20  21
ENDBRANCH  17  20
ENDBRANCH   1  18
TORSDOF 5
