REMARK  Name = ZINCvU00000009Oi.0
REMARK                            x       y       z     vdW  Elec       q    Type
REMARK                         _______ _______ _______ _____ _____    ______ ____
ROOT
ATOM      1  N   LIG    1       -2.140   5.659  -0.058  0.00  0.00    -0.580 N 
ATOM      2  C   LIG    1       -2.243   4.324   0.095  0.00  0.00    +0.560 C 
ATOM      3  O   LIG    1       -1.240   3.650   0.248  0.00  0.00    -0.530 OA
ENDROOT
BRANCH   1   4
ATOM      4  C   LIG    1       -0.820   6.284  -0.172  0.00  0.00    +0.200 C 
ATOM      5  C   LIG    1        0.367   5.374  -0.497  0.00  0.00    +0.040 C 
ATOM      6  C   LIG    1        0.212   5.957   0.909  0.00  0.00    +0.020 C 
ENDBRANCH   1   4
BRANCH   2   7
ATOM      7  C   LIG    1       -3.514   3.706   0.077  0.00  0.00    -0.120 C 
ATOM      8  C   LIG    1       -3.612   2.352   0.128  0.00  0.00    +0.190 C 
BRANCH   8   9
ATOM      9  C   LIG    1       -4.884   1.734   0.111  0.00  0.00    -0.190 A 
ATOM     10  C   LIG    1       -5.106   0.383   0.158  0.00  0.00    +0.060 A 
ATOM     11  C   LIG    1       -6.424   0.020   0.134  0.00  0.00    +0.030 A 
ATOM     12  C   LIG    1       -7.304   1.062   0.068  0.00  0.00    -0.140 A 
ATOM     13  S   LIG    1       -6.422   2.583   0.033  0.00  0.00    +0.170 S 
BRANCH  12  14
ATOM     14  C   LIG    1       -8.774   0.932   0.031  0.00  0.00    -0.020 A 
ATOM     15  C   LIG    1       -9.567   1.679   0.905  0.00  0.00    +0.040 A 
ATOM     16  C   LIG    1      -10.940   1.552   0.866  0.00  0.00    +0.030 A 
ATOM     17  C   LIG    1      -11.533   0.687  -0.036  0.00  0.00    +0.040 A 
ATOM     18  C   LIG    1      -10.755  -0.057  -0.906  0.00  0.00    +0.030 A 
ATOM     19  C   LIG    1       -9.380   0.064  -0.882  0.00  0.00    -0.020 A 
ATOM     20 CL   LIG    1       -8.405  -0.864  -1.979  0.00  0.00    -0.060 Cl
ENDBRANCH  12  14
ENDBRANCH   8   9
ENDBRANCH   2   7
BRANCH   1  21
ATOM     21  C   LIG    1       -3.349   6.485  -0.111  0.00  0.00    +0.340 C 
BRANCH  21  25
ATOM     22  C   LIG    1       -4.393   7.738   3.842  0.00  0.00    -0.130 A 
ATOM     23  C   LIG    1       -3.541   8.520   3.061  0.00  0.00    +0.080 A 
ATOM     24  C   LIG    1       -3.208   8.110   1.786  0.00  0.00    +0.030 A 
ATOM     25  C   LIG    1       -3.716   6.927   1.282  0.00  0.00    -0.080 A 
ATOM     26  C   LIG    1       -4.566   6.149   2.049  0.00  0.00    +0.020 A 
ATOM     27  C   LIG    1       -4.903   6.545   3.327  0.00  0.00    +0.050 A 
BRANCH  22  31
ATOM     28  C   LIG    1       -5.937   7.844   7.314  0.00  0.00    +0.290 C 
ATOM     29  N   LIG    1       -5.578   7.414   5.960  0.00  0.00    -0.730 N 
ATOM     30  H   LIG    1       -5.934   6.585   5.604  0.00  0.00    +0.400 HD
ATOM     31  C   LIG    1       -4.755   8.172   5.208  0.00  0.00    +0.560 C 
ATOM     32  O   LIG    1       -4.310   9.211   5.654  0.00  0.00    -0.530 OA
ENDBRANCH  22  31
ENDBRANCH  21  25
ENDBRANCH   1  21
TORSDOF 7
