REMARK  Name = ZINCnE000001Qgzk.1
REMARK                            x       y       z     vdW  Elec       q    Type
REMARK                         _______ _______ _______ _____ _____    ______ ____
ROOT
ATOM      1  N   LIG    1       -1.171   2.483   0.021  0.00  0.00    -0.700 NA
ATOM      2  C   LIG    1       -1.075   3.827   0.028  0.00  0.00    +0.650 C 
ATOM      3  N   LIG    1       -2.192   4.582   0.038  0.00  0.00    -0.740 N 
ATOM      4  H   LIG    1       -3.064   4.158   0.040  0.00  0.00    +0.390 HD
ATOM      5  O   LIG    1        0.018   4.359   0.026  0.00  0.00    -0.620 OA
ENDROOT
BRANCH   1   9
ATOM      6  C   LIG    1        1.764   0.008  -0.015  0.00  0.00    -0.320 A 
ATOM      7  C   LIG    1        2.170   1.294  -0.012  0.00  0.00    +0.260 A 
ATOM      8  N   LIG    1        1.190   2.172   0.002  0.00  0.00    -0.570 NA
ATOM      9  C   LIG    1       -0.021   1.705   0.011  0.00  0.00    +0.360 A 
ATOM     10  S   LIG    1        0.002  -0.004   0.002  0.00  0.00    +0.030 S 
BRANCH   6  17
ATOM     11  C   LIG    1        1.339  -2.109   1.912  0.00  0.00    +0.100 C 
ATOM     12  C   LIG    1        2.446  -2.208   0.894  0.00  0.00    -0.090 A 
ATOM     13  C   LIG    1        3.265  -3.318   0.871  0.00  0.00    +0.000 A 
ATOM     14  C   LIG    1        4.286  -3.409  -0.059  0.00  0.00    -0.030 A 
ATOM     15  C   LIG    1        4.488  -2.392  -0.975  0.00  0.00    +0.000 A 
ATOM     16  C   LIG    1        3.673  -1.279  -0.966  0.00  0.00    +0.000 A 
ATOM     17  C   LIG    1        2.641  -1.181  -0.030  0.00  0.00    +0.040 A 
ENDBRANCH   6  17
ENDBRANCH   1   9
BRANCH   3  18
ATOM     18  C   LIG    1       -2.088   6.043   0.045  0.00  0.00    +0.250 C 
BRANCH  18  19
ATOM     19  C   LIG    1       -3.491   6.654   0.055  0.00  0.00    -0.020 C 
ATOM     20  C   LIG    1       -4.226   6.347  -1.273  0.00  0.00    +0.020 C 
ATOM     21  C   LIG    1       -5.281   7.478  -1.349  0.00  0.00    -0.020 C 
ATOM     22  C   LIG    1       -4.547   8.718  -0.799  0.00  0.00    +0.160 C 
ATOM     23  C   LIG    1       -3.408   8.194   0.094  0.00  0.00    +0.050 C 
BRANCH  22  24
ATOM     24  O   LIG    1       -5.446   9.517  -0.028  0.00  0.00    -0.570 OA
ATOM     25  H   LIG    1       -6.198   9.860  -0.530  0.00  0.00    +0.370 HD
ENDBRANCH  22  24
ENDBRANCH  18  19
ENDBRANCH   3  18
TORSDOF 5
