REMARK  Name = ZINCpk00000xMxuQ.0
REMARK                            x       y       z     vdW  Elec       q    Type
REMARK                         _______ _______ _______ _____ _____    ______ ____
ROOT
ATOM      1  N   LIG    1        1.193  -2.722  -4.393  0.00  0.00    -0.510 NA
ATOM      2  C   LIG    1        2.408  -2.342  -3.659  0.00  0.00    +0.180 C 
ATOM      3  C   LIG    1        2.474  -3.129  -2.346  0.00  0.00    +0.310 C 
ATOM      4  N   LIG    1        1.215  -2.924  -1.614  0.00  0.00    -1.000 NA
ATOM      5  C   LIG    1       -0.051  -3.159  -2.327  0.00  0.00    +0.320 C 
ATOM      6  C   LIG    1       -0.018  -2.365  -3.642  0.00  0.00    +0.220 C 
ENDROOT
BRANCH   6   7
ATOM      7  C   LIG    1       -1.236  -2.703  -4.462  0.00  0.00    +0.200 A 
ATOM      8  N   LIG    1       -1.292  -3.603  -5.405  0.00  0.00    -0.450 NA
ATOM      9  C   LIG    1       -2.533  -3.633  -5.915  0.00  0.00    +0.140 A 
ATOM     10  C   LIG    1       -3.271  -2.710  -5.269  0.00  0.00    +0.130 A 
ATOM     11  N   LIG    1       -2.449  -2.120  -4.347  0.00  0.00    -0.570 N 
ATOM     12  H   LIG    1       -2.692  -1.415  -3.727  0.00  0.00    +0.420 HD
ENDBRANCH   6   7
BRANCH   4  13
ATOM     13  S   LIG    1        1.221  -2.448  -0.028  0.00  0.00    +2.690 S 
ATOM     14  O   LIG    1       -0.021  -2.866   0.521  0.00  0.00    -0.950 OA
ATOM     15  O   LIG    1        2.478  -2.842   0.504  0.00  0.00    -0.950 OA
BRANCH  13  16
ATOM     16  C   LIG    1        1.204  -0.686  -0.012  0.00  0.00    -0.710 A 
ATOM     17  C   LIG    1        0.002  -0.004   0.002  0.00  0.00    +0.160 A 
ATOM     18  C   LIG    1       -0.017   1.375   0.010  0.00  0.00    -0.020 A 
ATOM     19  C   LIG    1        1.177   2.093   0.002  0.00  0.00    +0.160 A 
ATOM     20  O   LIG    1        1.387   3.438  -0.012  0.00  0.00    -0.300 OA
ATOM     21  C   LIG    1        2.731   3.712   0.418  0.00  0.00    +0.240 C 
ATOM     22  C   LIG    1        3.490   2.428   0.007  0.00  0.00    +0.090 C 
ATOM     23  C   LIG    1        2.378   1.396  -0.005  0.00  0.00    -0.190 A 
ATOM     24  C   LIG    1        2.395   0.019  -0.015  0.00  0.00    +0.170 A 
ENDBRANCH  13  16
ENDBRANCH   4  13
BRANCH   1  26
ATOM     25  C   LIG    1        1.067  -0.600  -5.608  0.00  0.00    -0.030 C 
ATOM     26  C   LIG    1        1.178  -2.120  -5.733  0.00  0.00    +0.230 C 
ENDBRANCH   1  26
TORSDOF 4
