REMARK  Name = ZINCkj00000hdrdR.0
REMARK                            x       y       z     vdW  Elec       q    Type
REMARK                         _______ _______ _______ _____ _____    ______ ____
ROOT
ATOM      1  C   LIG    1        0.379  -0.675   2.220  0.00  0.00    +0.300 C 
ENDROOT
BRANCH   1   2
ATOM      2  C   LIG    1        0.010   0.807   2.314  0.00  0.00    +0.170 C 
ATOM      3  C   LIG    1       -0.924   1.025   3.506  0.00  0.00    +0.070 C 
ATOM      4  C   LIG    1       -1.290   2.509   3.595  0.00  0.00    +0.040 C 
ATOM      5  C   LIG    1       -1.924   2.949   2.272  0.00  0.00    +0.040 C 
ATOM      6  C   LIG    1       -0.952   2.660   1.126  0.00  0.00    +0.270 C 
ATOM      7  N   LIG    1       -0.663   1.222   1.077  0.00  0.00    -0.380 N 
ATOM      8  H   LIG    1       -1.526   0.709   0.978  0.00  0.00    +0.410 HD
BRANCH   7   9
ATOM      9  C   LIG    1        0.208   0.938  -0.071  0.00  0.00    +0.270 C 
BRANCH   9  10
ATOM     10  C   LIG    1       -0.561   1.191  -1.369  0.00  0.00    +0.220 C 
BRANCH  10  11
ATOM     11  O   LIG    1       -0.778   2.595  -1.528  0.00  0.00    -0.570 OA
ATOM     12  H   LIG    1       -1.262   2.829  -2.332  0.00  0.00    +0.410 HD
ENDBRANCH  10  11
ENDBRANCH   9  10
ENDBRANCH   7   9
ENDBRANCH   1   2
BRANCH   1  15
ATOM     13  O   LIG    1        0.367  -3.324   1.721  0.00  0.00    -0.500 OA
ATOM     14  C   LIG    1       -0.716  -2.781   1.667  0.00  0.00    +0.530 C 
ATOM     15  N   LIG    1       -0.818  -1.457   1.901  0.00  0.00    -0.750 N 
ATOM     16  H   LIG    1       -1.684  -1.022   1.858  0.00  0.00    +0.400 HD
BRANCH  14  17
ATOM     17  C   LIG    1       -1.948  -3.585   1.339  0.00  0.00    +0.010 C 
ATOM     18  C   LIG    1       -2.930  -3.556   2.528  0.00  0.00    +0.050 C 
ATOM     19  C   LIG    1       -3.543  -4.978   2.549  0.00  0.00    +0.050 C 
ATOM     20  C   LIG    1       -2.336  -5.876   2.178  0.00  0.00    +0.280 C 
ATOM     21  F   LIG    1       -1.529  -6.103   3.298  0.00  0.00    -0.190 F 
ATOM     22  F   LIG    1       -2.776  -7.090   1.639  0.00  0.00    -0.190 F 
ATOM     23  C   LIG    1       -1.570  -5.060   1.116  0.00  0.00    +0.070 C 
ENDBRANCH  14  17
ENDBRANCH   1  15
TORSDOF 6
