REMARK  Name = ZINCkj00000hdrdR.1
REMARK                            x       y       z     vdW  Elec       q    Type
REMARK                         _______ _______ _______ _____ _____    ______ ____
ROOT
ATOM      1  C   LIG    1       -4.055   3.291   3.606  0.00  0.00    +0.290 C 
ENDROOT
BRANCH   1   2
ATOM      2  C   LIG    1       -4.152   2.957   5.096  0.00  0.00    +0.160 C 
ATOM      3  C   LIG    1       -5.017   4.005   5.798  0.00  0.00    +0.070 C 
ATOM      4  C   LIG    1       -4.378   5.386   5.623  0.00  0.00    +0.040 C 
ATOM      5  C   LIG    1       -2.950   5.350   6.174  0.00  0.00    +0.060 C 
ATOM      6  C   LIG    1       -2.161   4.252   5.458  0.00  0.00    +0.240 C 
ATOM      7  N   LIG    1       -2.807   2.953   5.684  0.00  0.00    -0.370 N 
ATOM      8  H   LIG    1       -2.876   2.783   6.676  0.00  0.00    +0.430 HD
BRANCH   7   9
ATOM      9  C   LIG    1       -2.004   1.893   5.061  0.00  0.00    +0.270 C 
BRANCH   9  10
ATOM     10  C   LIG    1       -0.660   1.780   5.783  0.00  0.00    +0.220 C 
BRANCH  10  11
ATOM     11  O   LIG    1       -0.876   1.349   7.128  0.00  0.00    -0.580 OA
ATOM     12  H   LIG    1       -0.066   1.255   7.646  0.00  0.00    +0.410 HD
ENDBRANCH  10  11
ENDBRANCH   9  10
ENDBRANCH   7   9
ENDBRANCH   1   2
BRANCH   1  15
ATOM     13  O   LIG    1       -4.623   3.935   1.051  0.00  0.00    -0.520 OA
ATOM     14  C   LIG    1       -5.558   3.519   1.702  0.00  0.00    +0.530 C 
ATOM     15  N   LIG    1       -5.379   3.169   2.990  0.00  0.00    -0.730 N 
ATOM     16  H   LIG    1       -6.126   2.836   3.511  0.00  0.00    +0.410 HD
BRANCH  14  17
ATOM     17  C   LIG    1       -6.920   3.394   1.069  0.00  0.00    +0.010 C 
ATOM     18  C   LIG    1       -7.351   1.904   0.992  0.00  0.00    +0.060 C 
ATOM     19  C   LIG    1       -8.385   1.911  -0.161  0.00  0.00    +0.050 C 
ATOM     20  C   LIG    1       -7.807   2.909  -1.186  0.00  0.00    +0.280 C 
ATOM     21  F   LIG    1       -8.842   3.640  -1.779  0.00  0.00    -0.190 F 
ATOM     22  F   LIG    1       -7.082   2.224  -2.166  0.00  0.00    -0.190 F 
ATOM     23  C   LIG    1       -6.875   3.852  -0.404  0.00  0.00    +0.050 C 
ENDBRANCH  14  17
ENDBRANCH   1  15
TORSDOF 6
