REMARK  Name = ZINCpk00000xLMNQ.0
REMARK                            x       y       z     vdW  Elec       q    Type
REMARK                         _______ _______ _______ _____ _____    ______ ____
ROOT
ATOM      1  N   LIG    1       -8.116   4.037  -0.061  0.00  0.00    -0.590 N 
ATOM      2  C   LIG    1       -7.730   5.165  -0.660  0.00  0.00    +0.520 C 
ATOM      3  C   LIG    1       -6.331   5.406  -1.150  0.00  0.00    +0.070 C 
ATOM      4  C   LIG    1       -5.582   4.076  -1.263  0.00  0.00    +0.040 C 
ATOM      5  C   LIG    1       -5.779   3.296   0.043  0.00  0.00    -0.020 C 
ATOM      6  O   LIG    1       -8.553   6.042  -0.818  0.00  0.00    -0.550 OA
ATOM      7  C   LIG    1       -7.248   2.886   0.151  0.00  0.00    +0.320 C 
ENDROOT
BRANCH   7   8
ATOM      8  C   LIG    1       -7.505   2.315   1.522  0.00  0.00    -0.260 A 
ATOM      9  C   LIG    1       -7.575   1.000   1.836  0.00  0.00    +0.260 A 
ATOM     10  N   LIG    1       -7.820   0.906   3.160  0.00  0.00    -0.370 N 
ATOM     11  N   LIG    1       -7.902   2.206   3.676  0.00  0.00    -0.290 NA
ATOM     12  C   LIG    1       -7.971  -0.336   3.922  0.00  0.00    +0.360 C 
ATOM     13  C   LIG    1       -7.708   3.049   2.695  0.00  0.00    +0.250 A 
ENDBRANCH   7   8
BRANCH   1  15
ATOM     14  C   LIG    1      -10.384   3.381  -0.698  0.00  0.00    +0.010 C 
ATOM     15  C   LIG    1       -9.499   3.951   0.413  0.00  0.00    +0.260 C 
ENDBRANCH   1  15
BRANCH   5  16
ATOM     16  C   LIG    1       -4.896   2.047   0.033  0.00  0.00    +0.290 C 
BRANCH  16  17
ATOM     17  N   LIG    1       -3.486   2.445   0.029  0.00  0.00    -0.710 N 
ATOM     18  H   LIG    1       -3.248   3.385   0.033  0.00  0.00    +0.410 HD
ATOM     19  C   LIG    1       -2.521   1.504   0.020  0.00  0.00    +0.610 C 
ATOM     20  O   LIG    1       -2.820   0.326   0.015  0.00  0.00    -0.510 OA
BRANCH  19  21
ATOM     21  C   LIG    1       -1.101   1.905   0.017  0.00  0.00    -0.090 A 
ATOM     22  C   LIG    1       -0.013   1.076   0.008  0.00  0.00    +0.030 A 
ATOM     23  C   LIG    1        1.087   1.962   0.002  0.00  0.00    +0.010 A 
ATOM     24  N   LIG    1        0.595   3.166   0.013  0.00  0.00    -0.340 NA
ATOM     25  C   LIG    1        2.547   1.586  -0.014  0.00  0.00    +0.180 C 
ATOM     26  O   LIG    1       -0.614   3.160   0.025  0.00  0.00    +0.120 OA
ENDBRANCH  19  21
ENDBRANCH  16  17
ENDBRANCH   5  16
TORSDOF 5
