REMARK  Name = ZINCvU00000006pt.0
REMARK                            x       y       z     vdW  Elec       q    Type
REMARK                         _______ _______ _______ _____ _____    ______ ____
ROOT
ATOM      1  N   LIG    1        1.305   3.156   1.526  0.00  0.00    -0.590 N 
ATOM      2  C   LIG    1        2.142   2.177   1.913  0.00  0.00    +0.520 C 
ATOM      3  C   LIG    1        1.473   1.300   2.897  0.00  0.00    +0.100 C 
ATOM      4  C   LIG    1        0.213   1.748   3.107  0.00  0.00    -0.230 C 
ATOM      5  O   LIG    1        3.280   2.033   1.512  0.00  0.00    -0.510 OA
ATOM      6  C   LIG    1        0.035   2.973   2.240  0.00  0.00    +0.340 C 
ENDROOT
BRANCH   6   7
ATOM      7  C   LIG    1       -1.084   2.748   1.256  0.00  0.00    -0.070 A 
ATOM      8  C   LIG    1       -1.068   1.638   0.433  0.00  0.00    +0.090 A 
ATOM      9  C   LIG    1       -2.095   1.431  -0.469  0.00  0.00    +0.030 A 
ATOM     10  C   LIG    1       -3.140   2.334  -0.548  0.00  0.00    -0.010 A 
ATOM     11  C   LIG    1       -3.157   3.445   0.277  0.00  0.00    +0.040 A 
ATOM     12 CL   LIG    1       -4.429   2.074  -1.681  0.00  0.00    -0.060 Cl
ATOM     13  C   LIG    1       -2.132   3.649   1.183  0.00  0.00    +0.000 A 
ATOM     14 CL   LIG    1       -2.156   5.039   2.222  0.00  0.00    -0.050 Cl
ENDBRANCH   6   7
BRANCH   4  15
ATOM     15  C   LIG    1       -0.786   1.160   4.005  0.00  0.00    +0.480 C 
ATOM     16  O   LIG    1       -1.213   0.041   3.790  0.00  0.00    -0.430 OA
BRANCH  15  17
ATOM     17  C   LIG    1       -1.274   1.926   5.168  0.00  0.00    -0.200 A 
ATOM     18  C   LIG    1       -0.759   3.197   5.437  0.00  0.00    +0.100 A 
ATOM     19  C   LIG    1       -1.221   3.910   6.520  0.00  0.00    -0.020 A 
ATOM     20  C   LIG    1       -2.190   3.363   7.353  0.00  0.00    +0.170 A 
ATOM     21  C   LIG    1       -2.701   2.096   7.093  0.00  0.00    -0.080 A 
ATOM     22  C   LIG    1       -2.248   1.379   6.009  0.00  0.00    +0.130 A 
BRANCH  20  23
ATOM     23  O   LIG    1       -2.638   4.066   8.424  0.00  0.00    -0.300 OA
BRANCH  23  24
ATOM     24  C   LIG    1       -3.686   3.476   9.195  0.00  0.00    +0.150 C 
ATOM     25  C   LIG    1       -4.436   4.570   9.958  0.00  0.00    +0.070 C 
ATOM     26  C   LIG    1       -3.087   2.480  10.191  0.00  0.00    +0.030 C 
ENDBRANCH  23  24
ENDBRANCH  20  23
ENDBRANCH  15  17
ENDBRANCH   4  15
BRANCH   3  27
ATOM     27  O   LIG    1        2.029   0.219   3.490  0.00  0.00    -0.430 OA
ATOM     28  H   LIG    1        2.940   0.045   3.216  0.00  0.00    +0.410 HD
ENDBRANCH   3  27
BRANCH   1  29
ATOM     29  C   LIG    1        1.606   4.218   0.562  0.00  0.00    +0.350 C 
BRANCH  29  30
ATOM     30  C   LIG    1        1.369   3.700  -0.858  0.00  0.00    +0.170 C 
BRANCH  30  32
ATOM     31  C   LIG    1       -0.367   3.046  -2.376  0.00  0.00    +0.200 C 
ATOM     32  O   LIG    1       -0.031   3.494  -1.062  0.00  0.00    -0.380 OA
ENDBRANCH  30  32
ENDBRANCH  29  30
ENDBRANCH   1  29
TORSDOF 9
