REMARK  Name = ZINCvU0000000DoK.0
REMARK                            x       y       z     vdW  Elec       q    Type
REMARK                         _______ _______ _______ _____ _____    ______ ____
ROOT
ATOM      1  O   LIG    1       -0.726   2.153  -1.989  0.00  0.00    -0.400 OA
ATOM      2  C   LIG    1        0.092   2.435  -1.139  0.00  0.00    +0.410 C 
ENDROOT
BRANCH   2   3
ATOM      3  C   LIG    1        0.947   3.616  -1.306  0.00  0.00    -0.180 A 
ATOM      4  C   LIG    1        1.972   3.879  -0.390  0.00  0.00    +0.120 A 
ATOM      5  C   LIG    1        2.771   4.990  -0.553  0.00  0.00    -0.090 A 
ATOM      6  C   LIG    1        2.565   5.849  -1.622  0.00  0.00    +0.110 A 
ATOM      7  C   LIG    1        1.558   5.602  -2.534  0.00  0.00    -0.060 A 
ATOM      8 CL   LIG    1        4.042   5.315   0.584  0.00  0.00    -0.060 Cl
ATOM      9  C   LIG    1        0.747   4.487  -2.390  0.00  0.00    +0.190 A 
BRANCH   9  10
ATOM     10  O   LIG    1       -0.239   4.240  -3.288  0.00  0.00    -0.270 OA
BRANCH  10  11
ATOM     11  C   LIG    1       -0.383   5.169  -4.364  0.00  0.00    +0.250 C 
BRANCH  11  12
ATOM     12  C   LIG    1       -1.519   4.735  -5.254  0.00  0.00    -0.100 A 
ATOM     13  C   LIG    1       -1.277   3.895  -6.325  0.00  0.00    +0.030 A 
ATOM     14  C   LIG    1       -2.320   3.493  -7.138  0.00  0.00    +0.010 A 
ATOM     15  C   LIG    1       -3.604   3.939  -6.886  0.00  0.00    +0.020 A 
ATOM     16  C   LIG    1       -3.846   4.784  -5.819  0.00  0.00    +0.010 A 
ATOM     17  C   LIG    1       -2.803   5.181  -5.003  0.00  0.00    +0.030 A 
ENDBRANCH  11  12
ENDBRANCH  10  11
ENDBRANCH   9  10
ENDBRANCH   2   3
BRANCH   2  18
ATOM     18  C   LIG    1        0.230   1.572   0.089  0.00  0.00    +0.090 C 
ATOM     19  O   LIG    1       -0.875   0.739   0.445  0.00  0.00    -0.290 OA
ATOM     20  C   LIG    1        0.253   0.055  -0.105  0.00  0.00    +0.230 C 
BRANCH  20  21
ATOM     21  C   LIG    1        0.137  -0.476  -1.511  0.00  0.00    -0.120 A 
ATOM     22  C   LIG    1        1.275  -0.732  -2.248  0.00  0.00    +0.110 A 
ATOM     23  C   LIG    1        1.169  -1.219  -3.539  0.00  0.00    -0.130 A 
ATOM     24  C   LIG    1       -0.077  -1.448  -4.093  0.00  0.00    +0.110 A 
ATOM     25  C   LIG    1       -1.220  -1.191  -3.358  0.00  0.00    -0.200 A 
ATOM     26  C   LIG    1       -2.574  -1.439  -3.974  0.00  0.00    +0.300 C 
ATOM     27  O   LIG    1       -3.565  -1.468  -2.942  0.00  0.00    -0.380 OA
ATOM     28  C   LIG    1       -3.468  -0.358  -2.041  0.00  0.00    +0.430 C 
ATOM     29  O   LIG    1       -2.231  -0.456  -1.328  0.00  0.00    -0.300 OA
ATOM     30 BR   LIG    1        2.729  -1.571  -4.547  0.00  0.00    -0.040 Br
ATOM     31  C   LIG    1       -1.116  -0.711  -2.062  0.00  0.00    +0.200 A 
ENDBRANCH  20  21
ENDBRANCH   2  18
TORSDOF 6
