REMARK  Name = ZINCrH00000tj121.0
REMARK                            x       y       z     vdW  Elec       q    Type
REMARK                         _______ _______ _______ _____ _____    ______ ____
ROOT
ATOM      1  C   LIG    1        1.255  -0.042  -1.213  0.00  0.00    -0.740 A 
ATOM      2  C   LIG    1        1.664  -1.038  -0.346  0.00  0.00    +0.220 A 
ATOM      3  C   LIG    1        2.300  -2.163  -0.835  0.00  0.00    -0.070 A 
ATOM      4  C   LIG    1        2.527  -2.292  -2.199  0.00  0.00    +0.330 A 
ATOM      5  C   LIG    1        2.114  -1.289  -3.067  0.00  0.00    -0.150 A 
ATOM      6  C   LIG    1        1.475  -0.170  -2.572  0.00  0.00    +0.270 A 
ENDROOT
BRANCH   1   7
ATOM      7  S   LIG    1        0.444   1.391  -0.585  0.00  0.00    +2.700 S 
ATOM      8  O   LIG    1       -0.208   0.991   0.613  0.00  0.00    -0.940 OA
ATOM      9  O   LIG    1       -0.240   1.979  -1.683  0.00  0.00    -0.950 OA
BRANCH   7  10
ATOM     10  N   LIG    1        1.623   2.465  -0.139  0.00  0.00    -1.060 N 
ATOM     11  H   LIG    1        1.700   3.318  -0.595  0.00  0.00    +0.430 HD
BRANCH  10  15
ATOM     12  C   LIG    1        4.259   1.506   2.944  0.00  0.00    +0.140 A 
ATOM     13  C   LIG    1        4.688   1.458   1.625  0.00  0.00    -0.010 A 
ATOM     14  C   LIG    1        3.815   1.776   0.604  0.00  0.00    +0.060 A 
ATOM     15  C   LIG    1        2.508   2.143   0.896  0.00  0.00    +0.080 A 
ATOM     16  C   LIG    1        2.082   2.197   2.216  0.00  0.00    +0.080 A 
ATOM     17  C   LIG    1        2.955   1.874   3.237  0.00  0.00    -0.060 A 
BRANCH  12  19
ATOM     18  C   LIG    1        4.612   1.264   5.284  0.00  0.00    +0.240 C 
ATOM     19  O   LIG    1        5.120   1.193   3.950  0.00  0.00    -0.310 OA
ENDBRANCH  12  19
ENDBRANCH  10  15
ENDBRANCH   7  10
ENDBRANCH   1   7
BRANCH   5  20
ATOM     20  N   LIG    1        2.354  -1.423  -4.521  0.00  0.00    +0.050 N 
ATOM     21  O   LIG    1        3.014  -2.355  -4.947  0.00  0.00    -0.200 OA
ATOM     22  O   LIG    1        1.893  -0.601  -5.293  0.00  0.00    -0.140 OA
ENDBRANCH   5  20
BRANCH   4  23
ATOM     23  N   LIG    1        3.169  -3.429  -2.697  0.00  0.00    -0.700 N 
ATOM     24  H   LIG    1        3.406  -3.479  -3.636  0.00  0.00    +0.420 HD
BRANCH  23  25
ATOM     25  C   LIG    1        3.484  -4.544  -1.800  0.00  0.00    +0.220 C 
ATOM     26  C   LIG    1        4.861  -4.321  -1.143  0.00  0.00    +0.010 C 
ATOM     27  C   LIG    1        5.482  -5.738  -1.072  0.00  0.00    +0.020 C 
ATOM     28  C   LIG    1        5.024  -6.379  -2.406  0.00  0.00    +0.010 C 
ATOM     29  C   LIG    1        3.587  -5.853  -2.604  0.00  0.00    +0.030 C 
ENDBRANCH  23  25
ENDBRANCH   4  23
TORSDOF 7
