REMARK  Name = ZINCtV000002KpmF.0
REMARK                            x       y       z     vdW  Elec       q    Type
REMARK                         _______ _______ _______ _____ _____    ______ ____
ROOT
ATOM      1  C   LIG    1        1.769   6.336  -2.674  0.00  0.00    +0.520 C 
ATOM      2  N   LIG    1        1.619   5.280  -1.850  0.00  0.00    -0.670 N 
ATOM      3  H   LIG    1        0.813   4.742  -1.892  0.00  0.00    +0.410 HD
ATOM      4  O   LIG    1        2.809   6.959  -2.679  0.00  0.00    -0.500 OA
ENDROOT
BRANCH   2   5
ATOM      5  C   LIG    1        2.626   4.961  -0.933  0.00  0.00    +0.150 A 
ATOM      6  C   LIG    1        3.958   5.158  -1.266  0.00  0.00    +0.060 A 
ATOM      7  C   LIG    1        4.952   4.836  -0.363  0.00  0.00    +0.010 A 
ATOM      8  C   LIG    1        4.626   4.321   0.882  0.00  0.00    +0.090 A 
ATOM      9  C   LIG    1        3.302   4.125   1.228  0.00  0.00    +0.020 A 
ATOM     10  F   LIG    1        5.605   4.010   1.759  0.00  0.00    -0.140 F 
ATOM     11  C   LIG    1        2.293   4.446   0.325  0.00  0.00    -0.050 A 
BRANCH  11  12
ATOM     12  C   LIG    1        0.871   4.238   0.691  0.00  0.00    -0.050 A 
ATOM     13  C   LIG    1        0.455   3.014   1.212  0.00  0.00    +0.050 A 
ATOM     14  C   LIG    1       -0.869   2.825   1.552  0.00  0.00    +0.030 A 
ATOM     15  C   LIG    1       -1.784   3.847   1.371  0.00  0.00    -0.030 A 
ATOM     16  C   LIG    1       -1.376   5.067   0.860  0.00  0.00    +0.030 A 
ATOM     17 CL   LIG    1       -3.450   3.601   1.794  0.00  0.00    -0.060 Cl
ATOM     18  C   LIG    1       -0.054   5.266   0.516  0.00  0.00    +0.040 A 
ENDBRANCH  11  12
ENDBRANCH   2   5
BRANCH   1  19
ATOM     19  C   LIG    1        0.643   6.742  -3.590  0.00  0.00    +0.180 C 
BRANCH  19  22
ATOM     20  C   LIG    1        0.237   9.736  -2.796  0.00  0.00    +0.190 C 
ATOM     21  C   LIG    1        0.887   9.229  -4.057  0.00  0.00    -0.020 A 
ATOM     22  C   LIG    1        1.062   7.941  -4.401  0.00  0.00    +0.000 A 
ATOM     23  N   LIG    1        1.672   7.913  -5.597  0.00  0.00    -0.460 NA
ATOM     24  C   LIG    1        1.879   9.149  -5.991  0.00  0.00    +0.260 A 
ATOM     25  O   LIG    1        1.403   9.982  -5.050  0.00  0.00    -0.190 OA
BRANCH  24  26
ATOM     26  C   LIG    1        2.526   9.554  -7.255  0.00  0.00    -0.040 A 
ATOM     27  C   LIG    1        2.983   8.667  -8.160  0.00  0.00    -0.020 A 
ATOM     28  S   LIG    1        3.670   9.477  -9.496  0.00  0.00    +0.210 S 
ATOM     29  C   LIG    1        3.319  11.048  -8.792  0.00  0.00    -0.060 A 
ATOM     30  C   LIG    1        2.712  10.891  -7.618  0.00  0.00    +0.040 A 
ENDBRANCH  24  26
ENDBRANCH  19  22
ENDBRANCH   1  19
TORSDOF 5
