REMARK  Name = ZINCrg000000qRwE.0
REMARK                            x       y       z     vdW  Elec       q    Type
REMARK                         _______ _______ _______ _____ _____    ______ ____
ROOT
ATOM      1  N   LIG    1        1.870   6.525  -0.206  0.00  0.00    -1.050 N 
ATOM      2  H   LIG    1        2.130   7.425   0.046  0.00  0.00    +0.430 HD
ENDROOT
BRANCH   1   3
ATOM      3  C   LIG    1        2.815   5.496  -0.196  0.00  0.00    +0.180 A 
ATOM      4  C   LIG    1        2.883   4.606  -1.261  0.00  0.00    +0.000 A 
ATOM      5  C   LIG    1        3.819   3.591  -1.247  0.00  0.00    +0.090 A 
ATOM      6  C   LIG    1        4.687   3.458  -0.179  0.00  0.00    -0.140 A 
ATOM      7  C   LIG    1        5.787   2.455   0.085  0.00  0.00    +0.100 C 
ATOM      8  C   LIG    1        6.366   2.865   1.448  0.00  0.00    +0.290 C 
ATOM      9  N   LIG    1        5.586   4.035   1.861  0.00  0.00    -0.940 N 
ATOM     10  C   LIG    1        4.630   4.340   0.890  0.00  0.00    +0.170 A 
ATOM     11  C   LIG    1        3.687   5.368   0.873  0.00  0.00    -0.010 A 
BRANCH   9  12
ATOM     12  S   LIG    1        5.807   4.873   3.272  0.00  0.00    +2.800 S 
ATOM     13  O   LIG    1        6.430   3.975   4.179  0.00  0.00    -0.960 OA
ATOM     14  O   LIG    1        4.575   5.527   3.547  0.00  0.00    -0.960 OA
BRANCH  12  15
ATOM     15  N   LIG    1        6.911   6.069   2.964  0.00  0.00    -1.260 NA
ATOM     16  H   LIG    1        7.595   5.935   2.289  0.00  0.00    +0.420 HD
ATOM     17  H   LIG    1        6.874   6.902   3.459  0.00  0.00    +0.420 HD
ENDBRANCH  12  15
ENDBRANCH   9  12
ENDBRANCH   1   3
BRANCH   1  18
ATOM     18  S   LIG    1        0.306   6.208  -0.648  0.00  0.00    +2.700 S 
ATOM     19  O   LIG    1       -0.402   7.434  -0.523  0.00  0.00    -0.950 OA
ATOM     20  O   LIG    1        0.373   5.469  -1.860  0.00  0.00    -0.940 OA
BRANCH  18  24
ATOM     21  C   LIG    1       -1.427   3.412   2.469  0.00  0.00    +0.160 A 
ATOM     22  C   LIG    1       -1.532   4.783   2.630  0.00  0.00    -0.050 A 
ATOM     23  C   LIG    1       -1.003   5.634   1.677  0.00  0.00    +0.140 A 
ATOM     24  C   LIG    1       -0.368   5.119   0.562  0.00  0.00    -0.680 A 
ATOM     25  C   LIG    1       -0.254   3.750   0.398  0.00  0.00    +0.080 A 
ATOM     26  C   LIG    1       -0.787   2.893   1.346  0.00  0.00    +0.080 A 
BRANCH  21  28
ATOM     27  C   LIG    1       -2.588   3.177   4.530  0.00  0.00    +0.250 C 
ATOM     28  O   LIG    1       -1.946   2.574   3.405  0.00  0.00    -0.300 OA
ENDBRANCH  21  28
BRANCH  26  29
ATOM     29  O   LIG    1       -0.682   1.547   1.184  0.00  0.00    -0.300 OA
ATOM     30  C   LIG    1       -0.013   1.086   0.008  0.00  0.00    +0.250 C 
ENDBRANCH  26  29
ENDBRANCH  18  24
ENDBRANCH   1  18
TORSDOF 7
