REMARK  Name = ZINCnE000001Hb5N.0
REMARK                            x       y       z     vdW  Elec       q    Type
REMARK                         _______ _______ _______ _____ _____    ______ ____
ROOT
ATOM      1  N   LIG    1       -3.687   3.471   0.054  0.00  0.00    -0.720 N 
ATOM      2  H   LIG    1       -3.679   2.501   0.050  0.00  0.00    +0.400 HD
ATOM      3  C   LIG    1       -2.526   4.154   0.047  0.00  0.00    +0.570 C 
ATOM      4  O   LIG    1       -2.535   5.370   0.053  0.00  0.00    -0.530 OA
ENDROOT
BRANCH   3   5
ATOM      5  C   LIG    1       -1.239   3.426   0.031  0.00  0.00    -0.060 A 
ATOM      6  C   LIG    1       -0.035   4.131   0.023  0.00  0.00    -0.070 A 
ATOM      7  C   LIG    1        1.164   3.447   0.009  0.00  0.00    +0.120 A 
ATOM      8  C   LIG    1        1.177   2.065   0.002  0.00  0.00    -0.180 A 
ATOM      9  C   LIG    1       -0.016   1.355   0.009  0.00  0.00    +0.300 A 
ATOM     10  O   LIG    1        0.002  -0.004   0.002  0.00  0.00    -0.640 OA
ATOM     11  C   LIG    1       -1.225   2.030   0.019  0.00  0.00    -0.080 A 
BRANCH   8  12
ATOM     12  N   LIG    1        2.467   1.339  -0.014  0.00  0.00    +0.060 N 
ATOM     13  O   LIG    1        2.481   0.122  -0.020  0.00  0.00    -0.160 OA
ATOM     14  O   LIG    1        3.515   1.960  -0.021  0.00  0.00    -0.260 OA
ENDBRANCH   8  12
ENDBRANCH   3   5
BRANCH   1  15
ATOM     15  C   LIG    1       -4.962   4.193   0.070  0.00  0.00    +0.290 C 
BRANCH  15  16
ATOM     16  C   LIG    1       -6.039   3.323  -0.524  0.00  0.00    -0.090 A 
ATOM     17  C   LIG    1       -6.069   1.970  -0.242  0.00  0.00    +0.010 A 
ATOM     18  C   LIG    1       -7.060   1.173  -0.784  0.00  0.00    +0.000 A 
ATOM     19  C   LIG    1       -8.016   1.727  -1.615  0.00  0.00    -0.090 A 
ATOM     20  C   LIG    1       -7.983   3.079  -1.901  0.00  0.00    +0.000 A 
ATOM     21  C   LIG    1       -9.094   0.857  -2.208  0.00  0.00    +0.090 C 
ATOM     22  C   LIG    1       -6.994   3.877  -1.356  0.00  0.00    +0.020 A 
ENDBRANCH  15  16
BRANCH  15  24
ATOM     23  C   LIG    1       -4.301   5.530   2.075  0.00  0.00    +0.020 C 
ATOM     24  C   LIG    1       -5.330   4.547   1.512  0.00  0.00    +0.000 C 
ENDBRANCH  15  24
ENDBRANCH   1  15
TORSDOF 5
