REMARK  Name = ZINCtj00001UqOnS.1
REMARK                            x       y       z     vdW  Elec       q    Type
REMARK                         _______ _______ _______ _____ _____    ______ ____
ROOT
ATOM      1  C   LIG    1        2.424   0.737  -0.017  0.00  0.00    +0.030 C 
ENDROOT
BRANCH   1   2
ATOM      2  C   LIG    1        3.738   1.520  -0.025  0.00  0.00    +0.240 C 
ATOM      3  C   LIG    1        4.913   0.546   0.084  0.00  0.00    +0.030 C 
BRANCH   2   4
ATOM      4  N   LIG    1        3.847   2.278  -1.274  0.00  0.00    -0.710 N 
ATOM      5  H   LIG    1        3.373   1.980  -2.066  0.00  0.00    +0.410 HD
ATOM      6  C   LIG    1        4.607   3.391  -1.323  0.00  0.00    +0.570 C 
ATOM      7  O   LIG    1        5.201   3.765  -0.332  0.00  0.00    -0.520 OA
BRANCH   6   8
ATOM      8  C   LIG    1        4.717   4.158  -2.587  0.00  0.00    +0.180 A 
ATOM      9  N   LIG    1        4.063   3.732  -3.647  0.00  0.00    -0.450 NA
ATOM     10  C   LIG    1        4.128   4.387  -4.811  0.00  0.00    +0.260 A 
ATOM     11  N   LIG    1        3.596   4.201  -6.008  0.00  0.00    -0.280 NA
ATOM     12  N   LIG    1        4.023   5.225  -6.861  0.00  0.00    -0.400 N 
ATOM     13  H   LIG    1        3.770   5.314  -7.793  0.00  0.00    +0.450 HD
ATOM     14  C   LIG    1        4.830   6.065  -6.201  0.00  0.00    +0.310 A 
ATOM     15  C   LIG    1        4.949   5.608  -4.902  0.00  0.00    -0.250 A 
ATOM     16  C   LIG    1        5.641   6.044  -3.752  0.00  0.00    +0.170 A 
ATOM     17  C   LIG    1        5.510   5.316  -2.609  0.00  0.00    -0.030 A 
ENDBRANCH   6   8
ENDBRANCH   2   4
ENDBRANCH   1   2
BRANCH   1  18
ATOM     18  C   LIG    1        1.248   1.716  -0.001  0.00  0.00    +0.270 C 
BRANCH  18  20
ATOM     19  C   LIG    1       -1.187   1.624   0.017  0.00  0.00    +0.520 C 
ATOM     20  N   LIG    1       -0.011   0.966   0.007  0.00  0.00    -0.720 N 
ATOM     21  H   LIG    1        0.002  -0.004   0.002  0.00  0.00    +0.400 HD
ATOM     22  O   LIG    1       -1.204   2.837   0.023  0.00  0.00    -0.510 OA
BRANCH  19  29
ATOM     23  C   LIG    1       -7.521  -0.620   0.593  0.00  0.00    +0.200 C 
ATOM     24  C   LIG    1       -6.107  -0.811   1.079  0.00  0.00    +0.060 C 
ATOM     25  C   LIG    1       -5.674  -1.745   1.951  0.00  0.00    +0.230 C 
ATOM     26  N   LIG    1       -4.353  -1.577   2.119  0.00  0.00    -0.470 N 
ATOM     27  C   LIG    1       -3.951  -0.579   1.388  0.00  0.00    +0.300 C 
ATOM     28  C   LIG    1       -2.546  -0.037   1.266  0.00  0.00    +0.200 C 
ATOM     29  C   LIG    1       -2.482   0.853   0.018  0.00  0.00    +0.010 C 
ATOM     30  C   LIG    1       -3.660   1.831   0.035  0.00  0.00    +0.100 C 
ATOM     31  C   LIG    1       -4.966   1.064  -0.199  0.00  0.00    +0.340 C 
ATOM     32  H   LIG    1       -3.787  -2.115   2.695  0.00  0.00    +0.460 HD
ATOM     33  N   LIG    1       -5.018  -0.072   0.724  0.00  0.00    -0.400 N 
ENDBRANCH  19  29
ENDBRANCH  18  20
ENDBRANCH   1  18
TORSDOF 6
