REMARK  Name = ZINCrD00000l0qm2.0
REMARK                            x       y       z     vdW  Elec       q    Type
REMARK                         _______ _______ _______ _____ _____    ______ ____
ROOT
ATOM      1  C   LIG    1       -5.030  -2.454   0.659  0.00  0.00    +0.570 C 
ATOM      2  N   LIG    1       -6.097  -1.883   0.066  0.00  0.00    -0.660 N 
ATOM      3  H   LIG    1       -6.026  -0.987  -0.300  0.00  0.00    +0.410 HD
ATOM      4  O   LIG    1       -5.146  -3.531   1.212  0.00  0.00    -0.500 OA
ENDROOT
BRANCH   2   5
ATOM      5  C   LIG    1       -7.306  -2.581  -0.021  0.00  0.00    +0.160 A 
ATOM      6  C   LIG    1       -7.308  -3.970  -0.023  0.00  0.00    +0.050 A 
ATOM      7  C   LIG    1       -8.502  -4.661  -0.103  0.00  0.00    +0.040 A 
ATOM      8  C   LIG    1       -9.698  -3.972  -0.193  0.00  0.00    +0.060 A 
ATOM      9  C   LIG    1       -9.702  -2.581  -0.197  0.00  0.00    +0.140 A 
ATOM     10  F   LIG    1      -10.864  -4.651  -0.276  0.00  0.00    -0.140 F 
ATOM     11  C   LIG    1       -8.505  -1.886  -0.111  0.00  0.00    +0.030 A 
BRANCH   9  12
ATOM     12  N   LIG    1      -10.912  -1.883  -0.289  0.00  0.00    -0.670 N 
ATOM     13  H   LIG    1      -11.710  -2.238   0.134  0.00  0.00    +0.420 HD
ATOM     14  C   LIG    1      -10.969  -0.718  -0.964  0.00  0.00    +0.550 C 
ATOM     15  O   LIG    1       -9.956  -0.232  -1.421  0.00  0.00    -0.520 OA
BRANCH  14  16
ATOM     16  C   LIG    1      -12.291  -0.020  -1.152  0.00  0.00    -0.070 C 
ATOM     17  C   LIG    1      -12.867   0.032  -2.569  0.00  0.00    +0.060 C 
ATOM     18  C   LIG    1      -12.290   1.297  -1.930  0.00  0.00    +0.080 C 
ENDBRANCH  14  16
ENDBRANCH   9  12
ENDBRANCH   2   5
BRANCH   1  22
ATOM     19  C   LIG    1       -1.263  -0.494   0.597  0.00  0.00    +0.220 A 
ATOM     20  C   LIG    1       -2.364   0.100  -0.010  0.00  0.00    -0.060 A 
ATOM     21  C   LIG    1       -3.586  -0.535   0.004  0.00  0.00    +0.160 A 
ATOM     22  C   LIG    1       -3.721  -1.773   0.638  0.00  0.00    -0.180 A 
ATOM     23  C   LIG    1       -2.613  -2.364   1.252  0.00  0.00    +0.230 A 
ATOM     24  C   LIG    1       -1.394  -1.725   1.230  0.00  0.00    -0.090 A 
BRANCH  24  25
ATOM     25  N   LIG    1       -0.220  -2.350   1.880  0.00  0.00    +0.030 N 
ATOM     26  O   LIG    1        0.859  -1.786   1.860  0.00  0.00    -0.130 OA
ATOM     27  O   LIG    1       -0.334  -3.428   2.434  0.00  0.00    -0.170 OA
ENDBRANCH  24  25
BRANCH  19  29
ATOM     28  C   LIG    1        0.004   1.395  -0.090  0.00  0.00    +0.270 C 
ATOM     29  O   LIG    1       -0.060   0.133   0.577  0.00  0.00    -0.270 OA
ENDBRANCH  19  29
ENDBRANCH   1  22
TORSDOF 6
