REMARK  Name = ZINCtV000002HGFK.0
REMARK                            x       y       z     vdW  Elec       q    Type
REMARK                         _______ _______ _______ _____ _____    ______ ____
ROOT
ATOM      1  C   LIG    1        1.178   1.793   0.000  0.00  0.00    +0.040 A 
ATOM      2  C   LIG    1       -0.013   1.076   0.008  0.00  0.00    +0.030 A 
ATOM      3  C   LIG    1       -1.232   1.766   0.018  0.00  0.00    +0.240 A 
ATOM      4  N   LIG    1       -1.295   3.086   0.032  0.00  0.00    -0.450 NA
ATOM      5  C   LIG    1       -0.201   3.853   0.025  0.00  0.00    +0.140 A 
ATOM      6  C   LIG    1       -0.300   5.256   0.033  0.00  0.00    +0.050 A 
ATOM      7  C   LIG    1        0.833   6.012   0.027  0.00  0.00    +0.050 A 
ATOM      8  C   LIG    1        2.092   5.420   0.011  0.00  0.00    +0.030 A 
ATOM      9  C   LIG    1        2.225   4.061   0.003  0.00  0.00    +0.060 A 
ATOM     10  C   LIG    1        1.083   3.256   0.009  0.00  0.00    -0.070 A 
ENDROOT
BRANCH   1  14
ATOM     11  C   LIG    1        4.022  -0.405  -0.037  0.00  0.00    +0.140 A 
ATOM     12  N   LIG    1        4.580   0.786  -0.036  0.00  0.00    -0.280 NA
ATOM     13  N   LIG    1        3.662   1.688  -0.023  0.00  0.00    -0.250 NA
ATOM     14  C   LIG    1        2.483   1.111  -0.015  0.00  0.00    +0.210 A 
ATOM     15  O   LIG    1        2.688  -0.226  -0.018  0.00  0.00    -0.190 OA
BRANCH  11  16
ATOM     16  S   LIG    1        4.866  -1.951  -0.052  0.00  0.00    +0.080 S 
BRANCH  16  17
ATOM     17  C   LIG    1        6.581  -1.373  -0.066  0.00  0.00    +0.150 C 
BRANCH  17  22
ATOM     18  C   LIG    1       10.148  -5.919  -0.122  0.00  0.00    +0.090 C 
ATOM     19  C   LIG    1        9.218  -4.733  -0.107  0.00  0.00    -0.070 A 
ATOM     20  C   LIG    1        8.780  -4.184  -1.297  0.00  0.00    +0.010 A 
ATOM     21  C   LIG    1        7.927  -3.096  -1.284  0.00  0.00    +0.040 A 
ATOM     22  C   LIG    1        7.511  -2.558  -0.080  0.00  0.00    -0.100 A 
ATOM     23  C   LIG    1        7.954  -3.104   1.110  0.00  0.00    +0.040 A 
ATOM     24  C   LIG    1        8.803  -4.195   1.097  0.00  0.00    +0.010 A 
ENDBRANCH  17  22
ENDBRANCH  16  17
ENDBRANCH  11  16
ENDBRANCH   1  14
BRANCH   3  25
ATOM     25  C   LIG    1       -2.489   0.993   0.019  0.00  0.00    -0.170 A 
ATOM     26  C   LIG    1       -3.730   1.523   0.033  0.00  0.00    +0.070 A 
ATOM     27  C   LIG    1       -4.751   0.598   0.028  0.00  0.00    +0.010 A 
ATOM     28  C   LIG    1       -4.358  -0.680   0.020  0.00  0.00    -0.030 A 
ATOM     29  S   LIG    1       -2.602  -0.762   0.011  0.00  0.00    +0.130 S 
ENDBRANCH   3  25
TORSDOF 5
