REMARK  Name = ZINCrg000000rRAo.0
REMARK                            x       y       z     vdW  Elec       q    Type
REMARK                         _______ _______ _______ _____ _____    ______ ____
ROOT
ATOM      1  N   LIG    1        6.975   2.247  -1.170  0.00  0.00    -0.720 N 
ATOM      2  H   LIG    1        7.346   1.418  -0.830  0.00  0.00    +0.410 HD
ATOM      3  C   LIG    1        5.775   2.248  -1.783  0.00  0.00    +0.520 C 
ATOM      4  O   LIG    1        5.311   3.285  -2.208  0.00  0.00    -0.530 OA
ENDROOT
BRANCH   3   5
ATOM      5  C   LIG    1        5.009   0.960  -1.940  0.00  0.00    +0.010 C 
ATOM      6  C   LIG    1        4.665   0.348  -0.562  0.00  0.00    +0.090 C 
ATOM      7  C   LIG    1        3.284   0.883  -0.254  0.00  0.00    +0.520 C 
ATOM      8  N   LIG    1        2.716   1.369  -1.371  0.00  0.00    -0.580 N 
ATOM      9  O   LIG    1        2.764   0.874   0.843  0.00  0.00    -0.510 OA
ATOM     10  C   LIG    1        3.602   1.213  -2.530  0.00  0.00    +0.310 C 
BRANCH   8  11
ATOM     11  C   LIG    1        1.440   1.944  -1.423  0.00  0.00    +0.170 A 
ATOM     12  C   LIG    1        1.284   3.308  -1.222  0.00  0.00    +0.040 A 
ATOM     13  C   LIG    1        0.024   3.873  -1.274  0.00  0.00    +0.040 A 
ATOM     14  C   LIG    1       -1.081   3.080  -1.524  0.00  0.00    +0.030 A 
ATOM     15  C   LIG    1       -0.928   1.721  -1.731  0.00  0.00    +0.050 A 
ATOM     16  C   LIG    1        0.328   1.149  -1.675  0.00  0.00    -0.090 A 
ATOM     17 BR   LIG    1        0.535  -0.710  -1.949  0.00  0.00    -0.040 Br
ENDBRANCH   8  11
ENDBRANCH   3   5
BRANCH   1  18
ATOM     18  C   LIG    1        7.720   3.499  -1.017  0.00  0.00    +0.250 C 
BRANCH  18  20
ATOM     19  C   LIG    1        9.871   2.231  -1.109  0.00  0.00    +0.080 C 
ATOM     20  C   LIG    1        9.039   3.223  -0.292  0.00  0.00    +0.130 C 
BRANCH  20  21
ATOM     21  O   LIG    1        8.768   2.669   0.997  0.00  0.00    -0.550 OA
ATOM     22  H   LIG    1        8.243   3.245   1.569  0.00  0.00    +0.380 HD
ENDBRANCH  20  21
BRANCH  20  23
ATOM     23  C   LIG    1        9.817   4.531  -0.133  0.00  0.00    +0.160 C 
BRANCH  23  24
ATOM     24  N   LIG    1       11.141   4.247   0.437  0.00  0.00    -0.520 NA
ATOM     25  C   LIG    1       11.040   3.926   1.869  0.00  0.00    +0.160 C 
ATOM     26  C   LIG    1       12.431   3.580   2.407  0.00  0.00    +0.220 C 
ATOM     27  O   LIG    1       13.319   4.672   2.158  0.00  0.00    -0.390 OA
ATOM     28  C   LIG    1       13.441   5.010   0.773  0.00  0.00    +0.220 C 
ATOM     29  C   LIG    1       12.061   5.372   0.218  0.00  0.00    +0.140 C 
ENDBRANCH  23  24
ENDBRANCH  20  23
ENDBRANCH  18  20
ENDBRANCH   1  18
TORSDOF 7
