REMARK  Name = ZINCvU00000004HC.0
REMARK                            x       y       z     vdW  Elec       q    Type
REMARK                         _______ _______ _______ _____ _____    ______ ____
ROOT
ATOM      1  O   LIG    1        1.688   8.432  -0.014  0.00  0.00    -0.460 OA
ATOM      2  C   LIG    1        2.896   8.571  -0.028  0.00  0.00    +0.580 C 
ATOM      3  N   LIG    1        3.699   7.490   0.000  0.00  0.00    -0.500 N 
ENDROOT
BRANCH   2   4
ATOM      4  C   LIG    1        3.484   9.931  -0.076  0.00  0.00    +0.140 A 
ATOM      5  N   LIG    1        4.792  10.070   0.027  0.00  0.00    -0.430 NA
ATOM      6  C   LIG    1        5.364  11.273  -0.011  0.00  0.00    +0.120 A 
ATOM      7  C   LIG    1        6.761  11.415   0.100  0.00  0.00    +0.040 A 
ATOM      8  C   LIG    1        7.319  12.655   0.057  0.00  0.00    +0.030 A 
ATOM      9  C   LIG    1        6.530  13.794  -0.094  0.00  0.00    +0.020 A 
ATOM     10  C   LIG    1        5.176  13.698  -0.204  0.00  0.00    +0.030 A 
ATOM     11  C   LIG    1        4.564  12.435  -0.165  0.00  0.00    -0.090 A 
ATOM     12  C   LIG    1        3.167  12.296  -0.276  0.00  0.00    +0.100 A 
ATOM     13  C   LIG    1        2.639  11.039  -0.236  0.00  0.00    +0.030 A 
ENDBRANCH   2   4
BRANCH   3  14
ATOM     14  C   LIG    1        3.150   6.216  -0.051  0.00  0.00    +0.310 A 
ATOM     15  N   LIG    1        1.883   5.948  -0.128  0.00  0.00    -0.470 NA
ATOM     16  C   LIG    1        1.540   4.668  -0.169  0.00  0.00    +0.130 A 
ATOM     17  C   LIG    1        2.562   3.795  -0.120  0.00  0.00    -0.080 A 
ATOM     18  S   LIG    1        4.065   4.711  -0.024  0.00  0.00    +0.090 S 
BRANCH  16  19
ATOM     19  C   LIG    1        0.126   4.229  -0.256  0.00  0.00    -0.010 A 
ATOM     20  C   LIG    1       -0.191   2.873  -0.191  0.00  0.00    +0.030 A 
ATOM     21  C   LIG    1       -1.508   2.470  -0.274  0.00  0.00    +0.050 A 
ATOM     22  C   LIG    1       -2.513   3.409  -0.426  0.00  0.00    -0.080 A 
ATOM     23  C   LIG    1       -2.205   4.757  -0.485  0.00  0.00    +0.050 A 
ATOM     24 BR   LIG    1       -4.315   2.849  -0.546  0.00  0.00    -0.050 Br
ATOM     25  C   LIG    1       -0.891   5.171  -0.404  0.00  0.00    +0.070 A 
ENDBRANCH  16  19
ENDBRANCH   3  14
BRANCH   3  26
ATOM     26  C   LIG    1        5.152   7.658   0.086  0.00  0.00    +0.300 C 
BRANCH  26  27
ATOM     27  C   LIG    1        5.755   7.607  -1.319  0.00  0.00    +0.150 C 
ATOM     28  C   LIG    1        7.277   7.855  -1.245  0.00  0.00    +0.030 C 
ATOM     29  C   LIG    1        7.526   8.741  -2.498  0.00  0.00    +0.010 C 
ATOM     30  C   LIG    1        6.210   9.557  -2.550  0.00  0.00    +0.190 C 
ATOM     31  O   LIG    1        5.185   8.642  -2.130  0.00  0.00    -0.360 OA
ENDBRANCH  26  27
ENDBRANCH   3  26
TORSDOF 5
