REMARK  Name = ZINCqH00000363hs.0
REMARK                            x       y       z     vdW  Elec       q    Type
REMARK                         _______ _______ _______ _____ _____    ______ ____
ROOT
ATOM      1  C   LIG    1       -2.000   2.477   3.501  0.00  0.00    +0.280 C 
ATOM      2  C   LIG    1       -3.366   1.940   3.025  0.00  0.00    +0.050 C 
ATOM      3  C   LIG    1       -4.204   1.915   4.330  0.00  0.00    +0.040 C 
ATOM      4  C   LIG    1       -3.672   3.170   5.066  0.00  0.00    +0.250 C 
ATOM      5  N   LIG    1       -2.231   3.206   4.756  0.00  0.00    -0.620 N 
ATOM      6  C   LIG    1       -1.282   3.808   5.501  0.00  0.00    +0.530 C 
ATOM      7  O   LIG    1       -0.122   3.773   5.149  0.00  0.00    -0.500 OA
ENDROOT
BRANCH   1  12
ATOM      8  C   LIG    1       -1.003   5.633   1.677  0.00  0.00    +0.100 A 
ATOM      9  C   LIG    1       -0.366   5.117   0.558  0.00  0.00    -0.040 A 
ATOM     10  C   LIG    1       -0.253   3.750   0.396  0.00  0.00    -0.040 A 
ATOM     11  C   LIG    1       -0.787   2.893   1.346  0.00  0.00    +0.100 A 
ATOM     12  C   LIG    1       -1.425   3.408   2.465  0.00  0.00    -0.080 A 
ATOM     13  C   LIG    1       -1.532   4.775   2.630  0.00  0.00    +0.040 A 
BRANCH   8  15
ATOM     14  C   LIG    1       -0.542   7.802   0.819  0.00  0.00    +0.230 C 
ATOM     15  O   LIG    1       -1.109   6.979   1.839  0.00  0.00    -0.320 OA
ENDBRANCH   8  15
BRANCH  11  16
ATOM     16  O   LIG    1       -0.682   1.547   1.184  0.00  0.00    -0.310 OA
ATOM     17  C   LIG    1       -0.013   1.086   0.008  0.00  0.00    +0.230 C 
ENDBRANCH  11  16
ENDBRANCH   1  12
BRANCH   6  18
ATOM     18  C   LIG    1       -1.663   4.523   6.772  0.00  0.00    +0.230 C 
BRANCH  18  19
ATOM     19  O   LIG    1       -0.492   5.075   7.377  0.00  0.00    -0.290 OA
BRANCH  19  20
ATOM     20  C   LIG    1       -0.662   5.757   8.540  0.00  0.00    +0.130 A 
ATOM     21  C   LIG    1       -1.929   5.894   9.087  0.00  0.00    -0.090 A 
ATOM     22  C   LIG    1       -2.100   6.588  10.269  0.00  0.00    +0.050 A 
ATOM     23  C   LIG    1       -1.008   7.147  10.907  0.00  0.00    -0.040 A 
ATOM     24  C   LIG    1        0.257   7.012  10.364  0.00  0.00    -0.050 A 
ATOM     25  C   LIG    1        1.445   7.622  11.062  0.00  0.00    +0.090 C 
ATOM     26  C   LIG    1        0.433   6.314   9.185  0.00  0.00    -0.020 A 
ENDBRANCH  19  20
ENDBRANCH  18  19
ENDBRANCH   6  18
TORSDOF 6
