REMARK  Name = ZINCpk00000xZabO.0
REMARK                            x       y       z     vdW  Elec       q    Type
REMARK                         _______ _______ _______ _____ _____    ______ ____
ROOT
ATOM      1  C   LIG    1       -0.267   1.307  -2.408  0.00  0.00    +0.500 C 
ATOM      2  N   LIG    1       -0.722   1.631  -1.181  0.00  0.00    -0.720 N 
ATOM      3  H   LIG    1       -1.519   2.175  -1.087  0.00  0.00    +0.400 HD
ATOM      4  O   LIG    1        0.730   0.626  -2.525  0.00  0.00    -0.520 OA
ENDROOT
BRANCH   1  11
ATOM      5  C   LIG    1       -4.970   1.147  -4.124  0.00  0.00    +0.090 C 
ATOM      6  C   LIG    1       -4.087   1.447  -5.308  0.00  0.00    +0.520 C 
ATOM      7  N   LIG    1       -2.759   1.234  -5.230  0.00  0.00    -0.610 N 
ATOM      8  C   LIG    1       -1.901   1.408  -6.410  0.00  0.00    +0.280 C 
ATOM      9  C   LIG    1       -0.762   2.369  -6.054  0.00  0.00    +0.030 C 
ATOM     10  C   LIG    1       -0.029   1.847  -4.817  0.00  0.00    +0.080 C 
ATOM     11  C   LIG    1       -0.998   1.789  -3.634  0.00  0.00    +0.110 C 
ATOM     12  C   LIG    1       -2.140   0.822  -3.962  0.00  0.00    +0.280 C 
ATOM     13  O   LIG    1       -4.572   1.881  -6.331  0.00  0.00    -0.540 OA
BRANCH  11  14
ATOM     14  O   LIG    1       -1.532   3.092  -3.389  0.00  0.00    -0.530 OA
ATOM     15  H   LIG    1       -2.157   3.129  -2.652  0.00  0.00    +0.370 HD
ENDBRANCH  11  14
ENDBRANCH   1  11
BRANCH   2  16
ATOM     16  C   LIG    1       -0.011   1.162   0.011  0.00  0.00    +0.330 C 
BRANCH  16  17
ATOM     17  C   LIG    1       -0.718   1.659   1.246  0.00  0.00    -0.150 A 
ATOM     18  C   LIG    1       -0.238   2.766   1.919  0.00  0.00    +0.070 A 
ATOM     19  C   LIG    1       -0.887   3.222   3.052  0.00  0.00    -0.030 A 
ATOM     20  C   LIG    1       -2.017   2.572   3.513  0.00  0.00    +0.060 A 
ATOM     21  C   LIG    1       -2.500   1.465   2.844  0.00  0.00    -0.080 A 
ATOM     22  C   LIG    1       -1.855   1.009   1.704  0.00  0.00    +0.150 A 
BRANCH  22  23
ATOM     23  O   LIG    1       -2.332  -0.077   1.040  0.00  0.00    -0.310 OA
BRANCH  23  24
ATOM     24  C   LIG    1       -3.507  -0.696   1.569  0.00  0.00    +0.230 C 
BRANCH  24  25
ATOM     25  C   LIG    1       -3.890  -1.892   0.694  0.00  0.00    -0.040 C 
ATOM     26  C   LIG    1       -5.230  -1.828  -0.041  0.00  0.00    +0.020 C 
ATOM     27  C   LIG    1       -5.060  -2.761   1.160  0.00  0.00    +0.030 C 
ENDBRANCH  24  25
ENDBRANCH  23  24
ENDBRANCH  22  23
ENDBRANCH  16  17
ENDBRANCH   2  16
TORSDOF 7
