REMARK  Name = ZINCrg00000SjSL8.0
REMARK                            x       y       z     vdW  Elec       q    Type
REMARK                         _______ _______ _______ _____ _____    ______ ____
ROOT
ATOM      1  N   LIG    1        3.936  -2.178   0.323  0.00  0.00    -1.140 NA
ATOM      2  S   LIG    1        3.786  -2.637  -1.090  0.00  0.00    +2.450 S 
ATOM      3  O   LIG    1        4.411  -1.683  -1.938  0.00  0.00    -0.920 OA
ATOM      4  C   LIG    1        4.457  -4.318  -1.218  0.00  0.00    -0.200 C 
ENDROOT
BRANCH   2   5
ATOM      5  C   LIG    1        2.071  -2.693  -1.488  0.00  0.00    -0.720 A 
ATOM      6  C   LIG    1        1.116  -1.877  -1.003  0.00  0.00    +0.220 A 
ATOM      7  C   LIG    1        1.276  -0.747  -0.020  0.00  0.00    +0.410 C 
ATOM      8  N   LIG    1        0.002  -0.004   0.002  0.00  0.00    -0.630 N 
ATOM      9  C   LIG    1       -1.248  -0.779   0.010  0.00  0.00    +0.310 C 
ATOM     10  C   LIG    1       -1.350  -1.586  -1.289  0.00  0.00    +0.330 C 
ATOM     11  C   LIG    1       -0.016   1.344   0.009  0.00  0.00    +0.520 C 
ATOM     12  O   LIG    1        1.026   1.964   0.003  0.00  0.00    -0.520 OA
ATOM     13  C   LIG    1       -1.331   2.079   0.020  0.00  0.00    +0.100 C 
ATOM     14  N   LIG    1       -0.065  -2.239  -1.554  0.00  0.00    -0.350 N 
ATOM     15  N   LIG    1        0.175  -3.324  -2.402  0.00  0.00    -0.270 NA
ATOM     16  C   LIG    1        1.456  -3.596  -2.365  0.00  0.00    +0.320 A 
ENDBRANCH   2   5
BRANCH   1  17
ATOM     17  C   LIG    1        5.149  -2.055   0.858  0.00  0.00    +0.610 C 
ATOM     18  O   LIG    1        6.137  -2.316   0.195  0.00  0.00    -0.570 OA
BRANCH  17  23
ATOM     19  C   LIG    1        6.652  -1.037   4.147  0.00  0.00    -0.160 A 
ATOM     20  C   LIG    1        5.489  -0.756   4.844  0.00  0.00    +0.300 A 
ATOM     21  N   LIG    1        4.305  -0.892   4.277  0.00  0.00    -0.500 NA
ATOM     22  C   LIG    1        4.173  -1.290   3.030  0.00  0.00    +0.340 A 
ATOM     23  C   LIG    1        5.298  -1.599   2.260  0.00  0.00    -0.160 A 
ATOM     24  C   LIG    1        6.568  -1.466   2.834  0.00  0.00    +0.150 A 
BRANCH  19  25
ATOM     25  C   LIG    1        7.996  -0.876   4.810  0.00  0.00    +0.230 C 
BRANCH  25  27
ATOM     26  C   LIG    1        9.750   0.712   5.191  0.00  0.00    +0.200 C 
ATOM     27  O   LIG    1        8.476   0.453   4.599  0.00  0.00    -0.390 OA
ENDBRANCH  25  27
ENDBRANCH  19  25
ENDBRANCH  17  23
ENDBRANCH   1  17
TORSDOF 5
