REMARK  Name = ZINCLJ0000000u8H.0
REMARK                            x       y       z     vdW  Elec       q    Type
REMARK                         _______ _______ _______ _____ _____    ______ ____
ROOT
ATOM      1  C   LIG    1       -4.171   4.932   0.092  0.00  0.00    +0.250 C 
ATOM      2  C   LIG    1       -3.275   3.938   0.325  0.00  0.00    -0.290 A 
ATOM      3  S   LIG    1       -1.508   4.071   0.431  0.00  0.00    +0.210 S 
ATOM      4  C   LIG    1       -1.251   2.345   0.739  0.00  0.00    +0.220 A 
ATOM      5  N   LIG    1       -2.481   1.762   0.754  0.00  0.00    -0.490 N 
ATOM      6  C   LIG    1       -0.022   1.707   0.934  0.00  0.00    -0.170 C 
ATOM      7  C   LIG    1       -3.548   2.516   0.550  0.00  0.00    +0.560 A 
ATOM      8  O   LIG    1       -4.678   2.062   0.550  0.00  0.00    -0.460 OA
ENDROOT
BRANCH   5   9
ATOM      9  C   LIG    1       -2.615   0.385   0.980  0.00  0.00    +0.050 A 
ATOM     10  C   LIG    1       -2.757  -0.097   2.274  0.00  0.00    +0.070 A 
ATOM     11  C   LIG    1       -2.894  -1.454   2.494  0.00  0.00    +0.030 A 
ATOM     12  C   LIG    1       -2.878  -2.334   1.428  0.00  0.00    +0.080 A 
ATOM     13  C   LIG    1       -2.732  -1.860   0.137  0.00  0.00    +0.010 A 
ATOM     14  C   LIG    1       -2.600  -0.503  -0.091  0.00  0.00    +0.120 A 
ATOM     15  F   LIG    1       -2.456  -0.039  -1.351  0.00  0.00    -0.130 F 
ENDBRANCH   5   9
BRANCH   1  18
ATOM     16  C   LIG    1       -4.070   8.605  -0.655  0.00  0.00    +0.120 A 
ATOM     17  C   LIG    1       -4.497   7.293  -0.614  0.00  0.00    +0.010 A 
ATOM     18  C   LIG    1       -3.724   6.329   0.045  0.00  0.00    -0.090 A 
ATOM     19  C   LIG    1       -2.525   6.703   0.664  0.00  0.00    +0.050 A 
ATOM     20  C   LIG    1       -2.104   8.014   0.612  0.00  0.00    +0.000 A 
ATOM     21  C   LIG    1       -2.872   8.969  -0.041  0.00  0.00    +0.110 A 
BRANCH  16  23
ATOM     22  C   LIG    1       -6.034   9.101  -1.901  0.00  0.00    +0.250 C 
ATOM     23  O   LIG    1       -4.818   9.543  -1.294  0.00  0.00    -0.300 OA
ENDBRANCH  16  23
BRANCH  21  24
ATOM     24  O   LIG    1       -2.454  10.261  -0.083  0.00  0.00    -0.310 OA
BRANCH  24  25
ATOM     25  C   LIG    1       -1.218  10.564   0.566  0.00  0.00    +0.600 C 
ATOM     26  F   LIG    1       -0.189   9.818  -0.019  0.00  0.00    -0.190 F 
ATOM     27  F   LIG    1       -1.313  10.243   1.924  0.00  0.00    -0.200 F 
ENDBRANCH  24  25
ENDBRANCH  21  24
ENDBRANCH   1  18
BRANCH   6  28
ATOM     28  C   LIG    1        1.218   2.478   0.881  0.00  0.00    +0.590 C 
ATOM     29  N   LIG    1        2.403   1.862   1.063  0.00  0.00    -0.670 N 
ATOM     30  H   LIG    1        2.429   0.926   1.319  0.00  0.00    +0.410 HD
ATOM     31  O   LIG    1        1.182   3.677   0.672  0.00  0.00    -0.500 OA
BRANCH  29  32
ATOM     32  C   LIG    1        3.595   2.571   0.885  0.00  0.00    +0.130 A 
ATOM     33  C   LIG    1        4.716   1.930   0.374  0.00  0.00    +0.040 A 
ATOM     34  C   LIG    1        5.891   2.635   0.195  0.00  0.00    +0.020 A 
ATOM     35  C   LIG    1        5.954   3.974   0.533  0.00  0.00    +0.110 A 
ATOM     36  C   LIG    1        4.841   4.614   1.047  0.00  0.00    -0.660 A 
ATOM     37  C   LIG    1        3.662   3.917   1.224  0.00  0.00    +0.140 A 
BRANCH  36  38
ATOM     38  S   LIG    1        4.926   6.320   1.478  0.00  0.00    +2.690 S 
ATOM     39  O   LIG    1        3.594   6.813   1.432  0.00  0.00    -0.940 OA
ATOM     40  O   LIG    1        5.987   6.875   0.711  0.00  0.00    -0.950 OA
BRANCH  38  41
ATOM     41  N   LIG    1        5.402   6.403   3.062  0.00  0.00    -1.000 NA
ATOM     42  C   LIG    1        4.407   6.416   4.142  0.00  0.00    +0.290 C 
ATOM     43  C   LIG    1        4.749   5.295   5.135  0.00  0.00    +0.010 C 
ATOM     44  C   LIG    1        6.194   5.465   5.610  0.00  0.00    +0.010 C 
ATOM     45  C   LIG    1        7.142   5.356   4.414  0.00  0.00    +0.010 C 
ATOM     46  C   LIG    1        6.827   6.472   3.413  0.00  0.00    +0.290 C 
ENDBRANCH  38  41
ENDBRANCH  36  38
ENDBRANCH  29  32
ENDBRANCH   6  28
BRANCH   6  47
ATOM     47  C   LIG    1        0.021   0.297   1.179  0.00  0.00    +0.250 C 
ATOM     48  N   LIG    1        0.055  -0.822   1.374  0.00  0.00    -0.400 NA
ENDBRANCH   6  47
TORSDOF 10
