REMARK  Name = ZINCkj000005inHM.0
REMARK                            x       y       z     vdW  Elec       q    Type
REMARK                         _______ _______ _______ _____ _____    ______ ____
ROOT
ATOM      1  N   LIG    1        1.476   3.534  -2.554  0.00  0.00    -0.520 N 
ATOM      2  H   LIG    1        2.444   3.815  -2.602  0.00  0.00    +0.420 HD
ATOM      3  H   LIG    1        1.053   3.926  -1.726  0.00  0.00    +0.430 HD
ENDROOT
BRANCH   1   7
ATOM      4  N   LIG    1        0.784   5.559  -6.187  0.00  0.00    -0.380 NA
ATOM      5  C   LIG    1        0.059   6.054  -5.010  0.00  0.00    +0.220 C 
ATOM      6  C   LIG    1        0.747   5.552  -3.738  0.00  0.00    +0.070 C 
ATOM      7  C   LIG    1        0.766   4.021  -3.744  0.00  0.00    +0.170 C 
ATOM      8  C   LIG    1        1.483   3.530  -5.004  0.00  0.00    +0.060 C 
ATOM      9  C   LIG    1        0.775   4.092  -6.239  0.00  0.00    +0.210 C 
BRANCH   4  11
ATOM     10  C   LIG    1        1.182   6.891  -8.175  0.00  0.00    +0.240 C 
ATOM     11  O   LIG    1        0.238   6.131  -7.418  0.00  0.00    -0.240 OA
ENDBRANCH   4  11
ENDBRANCH   1   7
BRANCH   1  12
ATOM     12  C   LIG    1        1.393   2.069  -2.499  0.00  0.00    +0.310 C 
BRANCH  12  13
ATOM     13  C   LIG    1        2.133   1.562  -1.259  0.00  0.00    -0.570 C 
ATOM     14  C   LIG    1        1.417   2.055  -0.000  0.00  0.00    +0.060 C 
ATOM     15  C   LIG    1       -0.019   1.526   0.010  0.00  0.00    +0.030 C 
ATOM     16  C   LIG    1        0.002  -0.004   0.002  0.00  0.00    +0.020 C 
ATOM     17  C   LIG    1        0.718  -0.497  -1.257  0.00  0.00    +0.040 C 
ATOM     18  C   LIG    1        2.154   0.032  -1.268  0.00  0.00    +0.100 C 
BRANCH  13  19
ATOM     19  S   LIG    1        3.835   2.190  -1.272  0.00  0.00    +2.390 S 
ATOM     20  O   LIG    1        3.797   3.604  -1.135  0.00  0.00    -0.940 OA
ATOM     21  O   LIG    1        4.520   1.618  -2.378  0.00  0.00    -0.910 OA
ATOM     22  C   LIG    1        4.508   1.479   0.255  0.00  0.00    -0.210 C 
ENDBRANCH  13  19
ENDBRANCH  12  13
ENDBRANCH   1  12
TORSDOF 5
