REMARK  Name = ZINCrH000004tyjD.0
REMARK                            x       y       z     vdW  Elec       q    Type
REMARK                         _______ _______ _______ _____ _____    ______ ____
ROOT
ATOM      1  C   LIG    1       -4.962   1.782   0.050  0.00  0.00    +0.630 C 
ATOM      2  N   LIG    1       -5.800   2.818   0.247  0.00  0.00    -0.610 N 
ATOM      3  C   LIG    1       -5.401   4.230   0.391  0.00  0.00    +0.260 C 
ATOM      4  C   LIG    1       -6.553   4.892   1.184  0.00  0.00    +0.040 C 
ATOM      5  C   LIG    1       -7.793   4.156   0.609  0.00  0.00    +0.040 C 
ATOM      6  C   LIG    1       -7.263   2.728   0.362  0.00  0.00    +0.240 C 
ATOM      7  O   LIG    1       -5.408   0.659  -0.106  0.00  0.00    -0.550 OA
ENDROOT
BRANCH   1   9
ATOM      8  C   LIG    1       -2.633   1.010  -0.019  0.00  0.00    +0.310 A 
ATOM      9  C   LIG    1       -3.561   1.997   0.023  0.00  0.00    -0.380 A 
ATOM     10  S   LIG    1       -2.801   3.576   0.039  0.00  0.00    +0.190 S 
ATOM     11  C   LIG    1       -1.184   2.884  -0.012  0.00  0.00    +0.070 A 
ATOM     12  N   LIG    1        0.007   3.489  -0.026  0.00  0.00    -0.460 NA
ATOM     13  C   LIG    1        1.133   2.816  -0.065  0.00  0.00    +0.320 A 
ATOM     14  C   LIG    1        1.139   1.429  -0.094  0.00  0.00    -0.030 A 
ATOM     15  C   LIG    1       -0.057   0.747  -0.082  0.00  0.00    +0.120 A 
ATOM     16  C   LIG    1       -1.261   1.487  -0.046  0.00  0.00    -0.170 A 
BRANCH   8  17
ATOM     17  N   LIG    1       -2.965  -0.338  -0.039  0.00  0.00    -0.820 N 
ATOM     18  H   LIG    1       -2.266  -1.009  -0.069  0.00  0.00    +0.400 HD
ATOM     19  H   LIG    1       -3.897  -0.608  -0.023  0.00  0.00    +0.420 HD
ENDBRANCH   8  17
ENDBRANCH   1   9
BRANCH   6  20
ATOM     20  C   LIG    1       -7.853   2.168  -0.934  0.00  0.00    +0.010 C 
BRANCH  20  21
ATOM     21  C   LIG    1       -9.370   2.037  -0.788  0.00  0.00    +0.260 C 
BRANCH  21  22
ATOM     22  C   LIG    1       -9.964   1.591  -2.100  0.00  0.00    -0.130 A 
ATOM     23  C   LIG    1      -10.005   0.246  -2.418  0.00  0.00    +0.050 A 
ATOM     24  C   LIG    1      -10.555  -0.164  -3.618  0.00  0.00    -0.010 A 
ATOM     25  C   LIG    1      -11.054   0.773  -4.507  0.00  0.00    +0.100 A 
ATOM     26  C   LIG    1      -11.006   2.120  -4.190  0.00  0.00    -0.010 A 
ATOM     27  F   LIG    1      -11.586   0.374  -5.682  0.00  0.00    -0.140 F 
ATOM     28  C   LIG    1      -10.461   2.528  -2.987  0.00  0.00    +0.050 A 
ENDBRANCH  21  22
BRANCH  21  29
ATOM     29  O   LIG    1       -9.670   1.072   0.222  0.00  0.00    -0.550 OA
ATOM     30  H   LIG    1       -9.324   0.188   0.038  0.00  0.00    +0.380 HD
ENDBRANCH  21  29
ENDBRANCH  20  21
ENDBRANCH   6  20
TORSDOF 6
