REMARK  Name = ZINCpe00000VVGp5.0
REMARK                            x       y       z     vdW  Elec       q    Type
REMARK                         _______ _______ _______ _____ _____    ______ ____
ROOT
ATOM      1  C   LIG    1       -3.416   2.947  -4.220  0.00  0.00    +0.170 C 
ATOM      2  C   LIG    1       -4.005   1.559  -4.584  0.00  0.00    +0.080 C 
ATOM      3  C   LIG    1       -3.579   0.677  -3.391  0.00  0.00    +0.250 C 
ATOM      4  N   LIG    1       -2.425   1.329  -2.756  0.00  0.00    -0.610 N 
ATOM      5  C   LIG    1       -1.773   0.883  -1.664  0.00  0.00    +0.740 C 
ATOM      6  N   LIG    1       -0.721   1.571  -1.179  0.00  0.00    -0.740 N 
ATOM      7  H   LIG    1       -0.433   2.388  -1.615  0.00  0.00    +0.400 HD
ATOM      8  O   LIG    1       -2.135  -0.141  -1.117  0.00  0.00    -0.570 OA
ATOM      9  C   LIG    1       -2.095   2.549  -3.515  0.00  0.00    +0.230 C 
ENDROOT
BRANCH   3  10
ATOM     10  C   LIG    1       -3.189  -0.695  -3.878  0.00  0.00    +0.530 C 
ATOM     11  N   LIG    1       -4.140  -1.611  -4.148  0.00  0.00    -0.620 N 
ATOM     12  C   LIG    1       -5.590  -1.408  -4.005  0.00  0.00    +0.240 C 
ATOM     13  C   LIG    1       -6.279  -2.730  -4.402  0.00  0.00    +0.030 C 
ATOM     14  C   LIG    1       -5.156  -3.781  -4.194  0.00  0.00    +0.040 C 
ATOM     15  C   LIG    1       -3.900  -2.984  -4.628  0.00  0.00    +0.260 C 
ATOM     16  O   LIG    1       -2.018  -0.975  -4.027  0.00  0.00    -0.520 OA
ENDBRANCH   3  10
BRANCH   1  18
ATOM     17  C   LIG    1       -3.132   5.129  -5.170  0.00  0.00    +0.220 C 
ATOM     18  O   LIG    1       -3.157   3.718  -5.395  0.00  0.00    -0.370 OA
ENDBRANCH   1  18
BRANCH   6  19
ATOM     19  C   LIG    1       -0.013   1.086   0.008  0.00  0.00    +0.400 C 
ATOM     20  C   LIG    1       -0.729   1.579   1.267  0.00  0.00    +0.080 C 
BRANCH  19  21
ATOM     21  C   LIG    1        1.401   1.607  -0.003  0.00  0.00    +0.170 A 
ATOM     22  N   LIG    1        2.488   0.923   0.261  0.00  0.00    -0.460 NA
ATOM     23  C   LIG    1        3.505   1.793   0.128  0.00  0.00    +0.170 A 
ATOM     24  N   LIG    1        2.994   2.942  -0.197  0.00  0.00    -0.380 NA
ATOM     25  C   LIG    1        4.968   1.491   0.324  0.00  0.00    +0.200 C 
ATOM     26  O   LIG    1        1.786   2.857  -0.277  0.00  0.00    +0.080 OA
ENDBRANCH  19  21
ENDBRANCH   6  19
TORSDOF 4
