REMARK  Name = ZINCvU0000000Dxk.0
REMARK                            x       y       z     vdW  Elec       q    Type
REMARK                         _______ _______ _______ _____ _____    ______ ____
ROOT
ATOM      1  C   LIG    1        5.380  -0.574  -9.515  0.00  0.00    +0.160 A 
ATOM      2  N   LIG    1        4.917   0.336  -8.708  0.00  0.00    -0.240 NA
ATOM      3  N   LIG    1        4.353  -0.230  -7.699  0.00  0.00    -0.290 NA
ATOM      4  C   LIG    1        4.438  -1.532  -7.828  0.00  0.00    +0.130 A 
ATOM      5  O   LIG    1        5.095  -1.777  -8.978  0.00  0.00    -0.200 OA
ENDROOT
BRANCH   1   6
ATOM      6  C   LIG    1        6.108  -0.328 -10.811  0.00  0.00    +0.380 C 
BRANCH   6   7
ATOM      7  O   LIG    1        7.512  -0.239 -10.559  0.00  0.00    -0.310 OA
BRANCH   7  11
ATOM      8  C   LIG    1        9.958   0.434 -13.812  0.00  0.00    -0.100 A 
ATOM      9  C   LIG    1       10.508   0.305 -12.550  0.00  0.00    +0.060 A 
ATOM     10  C   LIG    1        9.691   0.080 -11.459  0.00  0.00    -0.010 A 
ATOM     11  C   LIG    1        8.318  -0.017 -11.631  0.00  0.00    +0.120 A 
ATOM     12  C   LIG    1        7.769   0.107 -12.899  0.00  0.00    -0.070 A 
ATOM     13  C   LIG    1        8.590   0.337 -13.986  0.00  0.00    +0.050 A 
BRANCH   8  15
ATOM     14  C   LIG    1       11.841  -0.479 -15.143  0.00  0.00    +0.040 C 
ATOM     15  C   LIG    1       10.852   0.680 -15.000  0.00  0.00    -0.030 C 
ATOM     16  C   LIG    1       11.623   1.986 -14.796  0.00  0.00    +0.040 C 
ATOM     17  C   LIG    1       10.000   0.783 -16.266  0.00  0.00    +0.030 C 
ENDBRANCH   8  15
ENDBRANCH   7  11
ENDBRANCH   6   7
ENDBRANCH   1   6
BRANCH   4  18
ATOM     18  S   LIG    1        3.815  -2.736  -6.703  0.00  0.00    +0.140 S 
BRANCH  18  19
ATOM     19  C   LIG    1        3.095  -1.650  -5.447  0.00  0.00    +0.090 C 
BRANCH  19  20
ATOM     20  C   LIG    1        2.485  -2.485  -4.351  0.00  0.00    +0.420 C 
ATOM     21  O   LIG    1        2.532  -3.696  -4.413  0.00  0.00    -0.430 OA
BRANCH  20  22
ATOM     22  C   LIG    1        1.833  -1.834  -3.207  0.00  0.00    -0.190 A 
ATOM     23  C   LIG    1        1.266  -2.607  -2.188  0.00  0.00    +0.130 A 
ATOM     24  C   LIG    1        0.658  -1.994  -1.122  0.00  0.00    +0.000 A 
ATOM     25  C   LIG    1        0.605  -0.606  -1.054  0.00  0.00    +0.150 A 
ATOM     26  C   LIG    1        1.162   0.167  -2.067  0.00  0.00    -0.060 A 
ATOM     27  C   LIG    1        1.778  -0.436  -3.133  0.00  0.00    +0.110 A 
BRANCH  25  28
ATOM     28  O   LIG    1        0.002  -0.004   0.002  0.00  0.00    -0.320 OA
BRANCH  28  29
ATOM     29  C   LIG    1       -0.017   1.425   0.010  0.00  0.00    +0.600 C 
ATOM     30  F   LIG    1       -0.694   1.888  -1.123  0.00  0.00    -0.190 F 
ATOM     31  F   LIG    1        1.295   1.909  -0.000  0.00  0.00    -0.190 F 
ENDBRANCH  28  29
ENDBRANCH  25  28
ENDBRANCH  20  22
ENDBRANCH  19  20
ENDBRANCH  18  19
ENDBRANCH   4  18
TORSDOF 10
