REMARK  Name = ZINCvU0000000H1m.0
REMARK                            x       y       z     vdW  Elec       q    Type
REMARK                         _______ _______ _______ _____ _____    ______ ____
ROOT
ATOM      1  N   LIG    1       -0.525   0.979  -4.474  0.00  0.00    -0.650 N 
ATOM      2  H   LIG    1       -0.796   0.237  -5.035  0.00  0.00    +0.420 HD
ATOM      3  C   LIG    1       -0.187   0.762  -3.187  0.00  0.00    +0.560 C 
ATOM      4  O   LIG    1        0.066   1.702  -2.458  0.00  0.00    -0.490 OA
ENDROOT
BRANCH   3   5
ATOM      5  C   LIG    1       -0.125  -0.618  -2.662  0.00  0.00    -0.000 A 
ATOM      6  C   LIG    1       -0.565  -0.921  -1.354  0.00  0.00    -0.180 A 
ATOM      7  C   LIG    1       -1.112  -0.155  -0.303  0.00  0.00    +0.120 A 
ATOM      8  N   LIG    1       -1.351  -0.944   0.705  0.00  0.00    -0.230 NA
ATOM      9  N   LIG    1       -0.976  -2.253   0.381  0.00  0.00    -0.390 N 
ATOM     10  C   LIG    1       -1.091  -3.422   1.257  0.00  0.00    +0.360 C 
ATOM     11  C   LIG    1       -1.380   1.327  -0.343  0.00  0.00    +0.170 C 
ATOM     12  C   LIG    1       -0.482  -2.253  -0.898  0.00  0.00    +0.320 A 
ATOM     13  N   LIG    1        0.004  -3.199  -1.688  0.00  0.00    -0.480 NA
ATOM     14  C   LIG    1        0.413  -2.943  -2.911  0.00  0.00    +0.230 A 
ATOM     15  C   LIG    1        0.370  -1.662  -3.440  0.00  0.00    -0.030 A 
BRANCH  14  16
ATOM     16  C   LIG    1        0.949  -4.070  -3.757  0.00  0.00    +0.010 C 
ATOM     17  C   LIG    1        1.063  -3.829  -5.263  0.00  0.00    +0.040 C 
ATOM     18  C   LIG    1       -0.024  -4.757  -4.717  0.00  0.00    +0.050 C 
ENDBRANCH  14  16
ENDBRANCH   3   5
BRANCH   1  24
ATOM     19  C   LIG    1       -1.203   2.587  -6.151  0.00  0.00    +0.140 A 
ATOM     20  C   LIG    1       -1.159   3.872  -6.666  0.00  0.00    -0.040 A 
ATOM     21  C   LIG    1       -0.401   4.843  -6.038  0.00  0.00    +0.090 A 
ATOM     22  C   LIG    1        0.314   4.536  -4.895  0.00  0.00    -0.200 A 
ATOM     23  C   LIG    1        0.271   3.257  -4.372  0.00  0.00    +0.120 A 
ATOM     24  C   LIG    1       -0.483   2.276  -4.999  0.00  0.00    +0.120 A 
BRANCH  22  25
ATOM     25  C   LIG    1        1.137   5.599  -4.215  0.00  0.00    +0.510 C 
ATOM     26  F   LIG    1        2.479   5.203  -4.188  0.00  0.00    -0.180 F 
ATOM     27  F   LIG    1        0.678   5.779  -2.906  0.00  0.00    -0.170 F 
ATOM     28  F   LIG    1        1.020   6.802  -4.920  0.00  0.00    -0.180 F 
ENDBRANCH  22  25
BRANCH  19  29
ATOM     29  O   LIG    1       -1.948   1.631  -6.768  0.00  0.00    -0.310 OA
BRANCH  29  30
ATOM     30  C   LIG    1       -2.660   2.021  -7.944  0.00  0.00    +0.200 C 
BRANCH  30  32
ATOM     31  C   LIG    1       -4.198   1.240  -9.751  0.00  0.00    +0.040 C 
ATOM     32  C   LIG    1       -3.436   0.822  -8.492  0.00  0.00    +0.030 C 
ENDBRANCH  30  32
ENDBRANCH  29  30
ENDBRANCH  19  29
ENDBRANCH   1  24
TORSDOF 7
