REMARK  Name = ZINCrg00001JduZt.0
REMARK                            x       y       z     vdW  Elec       q    Type
REMARK                         _______ _______ _______ _____ _____    ______ ____
ROOT
ATOM      1  C   LIG    1        0.240   0.582   3.195  0.00  0.00    +0.510 C 
ATOM      2  N   LIG    1       -0.781   0.618   2.316  0.00  0.00    -0.720 N 
ATOM      3  H   LIG    1       -1.513  -0.013   2.397  0.00  0.00    +0.410 HD
ATOM      4  O   LIG    1        1.155   1.372   3.094  0.00  0.00    -0.510 OA
ENDROOT
BRANCH   2   5
ATOM      5  C   LIG    1       -0.786   1.611   1.239  0.00  0.00    +0.260 C 
ATOM      6  C   LIG    1       -0.007   1.095   0.007  0.00  0.00    +0.060 C 
ATOM      7  C   LIG    1       -0.791   1.618  -1.177  0.00  0.00    +0.520 C 
ATOM      8  N   LIG    1       -2.017   2.005  -0.784  0.00  0.00    -0.530 N 
ATOM      9  O   LIG    1       -0.374   1.678  -2.314  0.00  0.00    -0.520 OA
ATOM     10  C   LIG    1       -2.209   1.792   0.655  0.00  0.00    +0.290 C 
BRANCH   8  11
ATOM     11  C   LIG    1       -2.992   2.546  -1.644  0.00  0.00    +0.000 A 
ATOM     12  C   LIG    1       -2.851   2.763  -2.977  0.00  0.00    +0.230 A 
ATOM     13  N   LIG    1       -4.016   3.291  -3.432  0.00  0.00    -0.370 N 
ATOM     14  N   LIG    1       -4.890   3.407  -2.343  0.00  0.00    -0.280 NA
ATOM     15  C   LIG    1       -4.307   3.677  -4.815  0.00  0.00    +0.360 C 
ATOM     16  C   LIG    1       -4.279   2.962  -1.275  0.00  0.00    +0.230 A 
ENDBRANCH   8  11
ENDBRANCH   2   5
BRANCH   1  17
ATOM     17  C   LIG    1        0.245  -0.439   4.303  0.00  0.00    +0.110 C 
BRANCH  17  23
ATOM     18  C   LIG    1        1.506   0.659   6.174  0.00  0.00    +0.160 A 
ATOM     19  C   LIG    1        2.652   0.814   6.942  0.00  0.00    +0.020 A 
ATOM     20  C   LIG    1        3.769   0.046   6.676  0.00  0.00    +0.030 A 
ATOM     21  C   LIG    1        3.747  -0.875   5.645  0.00  0.00    -0.010 A 
ATOM     22  C   LIG    1        2.605  -1.035   4.881  0.00  0.00    +0.030 A 
ATOM     23  C   LIG    1        1.487  -0.268   5.139  0.00  0.00    -0.100 A 
BRANCH  18  25
ATOM     24  C   LIG    1        0.073   1.774   7.711  0.00  0.00    +0.540 C 
ATOM     25  N   LIG    1        0.373   1.434   6.441  0.00  0.00    -0.670 N 
ATOM     26  H   LIG    1       -0.197   1.727   5.713  0.00  0.00    +0.410 HD
ATOM     27  O   LIG    1        0.830   1.476   8.615  0.00  0.00    -0.520 OA
BRANCH  24  29
ATOM     28  C   LIG    1       -1.466   2.839   9.255  0.00  0.00    +0.160 C 
ATOM     29  C   LIG    1       -1.170   2.504   8.002  0.00  0.00    -0.090 C 
ENDBRANCH  24  29
ENDBRANCH  18  25
ENDBRANCH  17  23
ENDBRANCH   1  17
TORSDOF 6
