REMARK  Name = ZINCpk000000oN4d.0
REMARK                            x       y       z     vdW  Elec       q    Type
REMARK                         _______ _______ _______ _____ _____    ______ ____
ROOT
ATOM      1  C   LIG    1        3.025  -0.679   2.082  0.00  0.00    +0.250 C 
ENDROOT
BRANCH   1   2
ATOM      2  C   LIG    1        2.213  -0.075   0.934  0.00  0.00    +0.160 C 
ATOM      3  C   LIG    1        2.305   1.454   0.991  0.00  0.00    +0.300 C 
ATOM      4  N   LIG    1        1.371   2.012  -0.000  0.00  0.00    -0.600 N 
ATOM      5  C   LIG    1       -0.019   1.529   0.010  0.00  0.00    +0.260 C 
ATOM      6  C   LIG    1        0.002  -0.004   0.002  0.00  0.00    +0.220 C 
ATOM      7  C   LIG    1        1.777   2.938  -0.891  0.00  0.00    +0.660 C 
ATOM      8  O   LIG    1        2.929   3.324  -0.884  0.00  0.00    -0.560 OA
ATOM      9  O   LIG    1        0.844  -0.469   1.060  0.00  0.00    -0.370 OA
BRANCH   7  10
ATOM     10  O   LIG    1        0.906   3.435  -1.790  0.00  0.00    -0.360 OA
BRANCH  10  11
ATOM     11  C   LIG    1        1.413   4.429  -2.719  0.00  0.00    +0.140 C 
ATOM     12  C   LIG    1        1.933   5.638  -1.939  0.00  0.00    +0.040 C 
ATOM     13  C   LIG    1        0.287   4.872  -3.655  0.00  0.00    +0.080 C 
ATOM     14  C   LIG    1        2.552   3.824  -3.542  0.00  0.00    +0.040 C 
ENDBRANCH  10  11
ENDBRANCH   7  10
ENDBRANCH   1   2
BRANCH   1  15
ATOM     15  O   LIG    1        3.030  -2.126   1.963  0.00  0.00    -0.350 OA
BRANCH  15  16
ATOM     16  C   LIG    1        3.704  -2.812   2.899  0.00  0.00    +0.460 C 
ATOM     17  O   LIG    1        4.271  -2.224   3.788  0.00  0.00    -0.500 OA
BRANCH  16  18
ATOM     18  C   LIG    1        3.753  -4.317   2.840  0.00  0.00    +0.110 C 
BRANCH  18  19
ATOM     19  C   LIG    1        4.579  -4.847   4.014  0.00  0.00    +0.060 C 
BRANCH  19  20
ATOM     20  C   LIG    1        4.629  -6.375   3.955  0.00  0.00    +0.060 C 
BRANCH  20  23
ATOM     21  N   LIG    1        5.624  -8.223   5.264  0.00  0.00    -0.730 N 
ATOM     22  H   LIG    1        5.231  -8.842   4.629  0.00  0.00    +0.400 HD
ATOM     23  C   LIG    1        5.443  -6.896   5.111  0.00  0.00    +0.510 C 
ATOM     24  O   LIG    1        5.934  -6.122   5.905  0.00  0.00    -0.530 OA
BRANCH  21  26
ATOM     25  C   LIG    1        6.465 -10.258   6.329  0.00  0.00    +0.020 C 
ATOM     26  C   LIG    1        6.415  -8.730   6.388  0.00  0.00    +0.250 C 
ENDBRANCH  21  26
ENDBRANCH  20  23
ENDBRANCH  19  20
ENDBRANCH  18  19
ENDBRANCH  16  18
ENDBRANCH  15  16
ENDBRANCH   1  15
TORSDOF 10
