REMARK  Name = ZINCpe000027pGUJ.0
REMARK                            x       y       z     vdW  Elec       q    Type
REMARK                         _______ _______ _______ _____ _____    ______ ____
ROOT
ATOM      1  N   LIG    1       -1.788   5.191  -1.083  0.00  0.00    -0.600 N 
ATOM      2  C   LIG    1       -0.341   5.174  -0.839  0.00  0.00    +0.350 C 
ATOM      3  C   LIG    1       -0.009   3.782  -0.364  0.00  0.00    -0.090 A 
ATOM      4  C   LIG    1        1.168   3.167   0.016  0.00  0.00    +0.150 A 
ATOM      5  C   LIG    1        1.154   1.834   0.416  0.00  0.00    +0.110 A 
ATOM      6  C   LIG    1       -0.033   1.127   0.432  0.00  0.00    +0.030 A 
ATOM      7  C   LIG    1       -1.212   1.734   0.049  0.00  0.00    +0.110 A 
ATOM      8  C   LIG    1       -1.211   3.072  -0.349  0.00  0.00    -0.150 A 
ATOM      9  C   LIG    1       -2.288   3.976  -0.799  0.00  0.00    +0.570 C 
ATOM     10  O   LIG    1       -3.459   3.666  -0.900  0.00  0.00    -0.510 OA
ENDROOT
BRANCH   1  15
ATOM     11  O   LIG    1       -6.126   7.853  -2.784  0.00  0.00    -0.500 OA
ATOM     12  C   LIG    1       -5.060   7.405  -2.419  0.00  0.00    +0.520 C 
ATOM     13  C   LIG    1       -4.496   7.833  -1.090  0.00  0.00    +0.100 C 
ATOM     14  C   LIG    1       -3.631   6.702  -0.523  0.00  0.00    +0.060 C 
ATOM     15  C   LIG    1       -2.560   6.342  -1.558  0.00  0.00    +0.290 C 
ATOM     16  C   LIG    1       -3.228   5.996  -2.863  0.00  0.00    +0.510 C 
ATOM     17  O   LIG    1       -2.692   5.211  -3.615  0.00  0.00    -0.480 OA
ATOM     18  N   LIG    1       -4.407   6.538  -3.207  0.00  0.00    -0.670 N 
ATOM     19  H   LIG    1       -4.800   6.295  -4.059  0.00  0.00    +0.420 HD
ENDBRANCH   1  15
BRANCH   4  20
ATOM     20  N   LIG    1        2.371   3.882  -0.001  0.00  0.00    -0.640 N 
ATOM     21  H   LIG    1        2.403   4.785   0.352  0.00  0.00    +0.410 HD
BRANCH  20  22
ATOM     22  C   LIG    1        3.485   3.316  -0.507  0.00  0.00    +0.590 C 
ATOM     23  S   LIG    1        3.399   1.779  -1.256  0.00  0.00    -0.620 S 
BRANCH  22  24
ATOM     24  N   LIG    1        4.665   3.960  -0.423  0.00  0.00    -0.610 N 
ATOM     25  C   LIG    1        5.135   5.245   0.116  0.00  0.00    +0.260 C 
ATOM     26  C   LIG    1        6.265   5.207  -0.918  0.00  0.00    +0.050 C 
ATOM     27  C   LIG    1        6.051   3.690  -0.837  0.00  0.00    +0.320 C 
ENDBRANCH  22  24
ENDBRANCH  20  22
ENDBRANCH   4  20
TORSDOF 4
