REMARK  Name = ZINCrD0000074dj5.0
REMARK                            x       y       z     vdW  Elec       q    Type
REMARK                         _______ _______ _______ _____ _____    ______ ____
ROOT
ATOM      1  C   LIG    1        1.630   3.037   2.263  0.00  0.00    +0.520 C 
ATOM      2  N   LIG    1        2.263   4.057   1.651  0.00  0.00    -0.610 N 
ATOM      3  C   LIG    1        3.455   3.812   0.828  0.00  0.00    +0.270 C 
ATOM      4  C   LIG    1        3.233   4.429  -0.557  0.00  0.00    +0.020 C 
ATOM      5  C   LIG    1        2.870   5.907  -0.401  0.00  0.00    +0.030 C 
ATOM      6  C   LIG    1        1.570   6.033   0.398  0.00  0.00    +0.050 C 
ATOM      7  C   LIG    1        1.770   5.434   1.789  0.00  0.00    +0.360 C 
ATOM      8  O   LIG    1        0.600   3.239   2.869  0.00  0.00    -0.490 OA
ENDROOT
BRANCH   7   9
ATOM      9  C   LIG    1        0.457   5.429   2.528  0.00  0.00    +0.180 A 
ATOM     10  N   LIG    1       -0.708   5.128   2.029  0.00  0.00    -0.270 NA
ATOM     11  N   LIG    1       -1.605   5.230   2.945  0.00  0.00    -0.270 NA
ATOM     12  C   LIG    1       -1.043   5.599   4.061  0.00  0.00    +0.170 A 
ATOM     13  O   LIG    1        0.274   5.729   3.825  0.00  0.00    -0.220 OA
BRANCH  12  14
ATOM     14  C   LIG    1       -1.740   5.833   5.376  0.00  0.00    +0.330 C 
BRANCH  14  15
ATOM     15  N   LIG    1       -1.769   4.581   6.144  0.00  0.00    -0.540 NA
ATOM     16  C   LIG    1       -2.606   3.574   5.479  0.00  0.00    +0.200 C 
ATOM     17  C   LIG    1       -2.224   4.818   7.521  0.00  0.00    +0.210 C 
ENDBRANCH  14  15
ENDBRANCH  12  14
ENDBRANCH   7   9
BRANCH   1  19
ATOM     18  C   LIG    1        1.944   1.054   0.806  0.00  0.00    +0.060 C 
ATOM     19  C   LIG    1        2.203   1.645   2.194  0.00  0.00    +0.170 C 
BRANCH  19  20
ATOM     20  O   LIG    1        1.581   0.824   3.184  0.00  0.00    -0.280 OA
BRANCH  20  21
ATOM     21  C   LIG    1        2.285  -0.252   3.625  0.00  0.00    +0.140 A 
ATOM     22  C   LIG    1        1.785  -1.035   4.655  0.00  0.00    +0.000 A 
ATOM     23  C   LIG    1        2.500  -2.131   5.099  0.00  0.00    +0.080 A 
ATOM     24  C   LIG    1        3.718  -2.442   4.525  0.00  0.00    -0.010 A 
ATOM     25  C   LIG    1        4.223  -1.659   3.501  0.00  0.00    +0.010 A 
ATOM     26 CL   LIG    1        5.753  -2.052   2.782  0.00  0.00    -0.060 Cl
ATOM     27  C   LIG    1        3.508  -0.565   3.050  0.00  0.00    -0.070 A 
ENDBRANCH  20  21
ENDBRANCH  19  20
ENDBRANCH   1  19
TORSDOF 6
