REMARK  Name = ZINCkj000018RAP1.0
REMARK                            x       y       z     vdW  Elec       q    Type
REMARK                         _______ _______ _______ _____ _____    ______ ____
ROOT
ATOM      1  C   LIG    1       -1.522   9.267   1.488  0.00  0.00    +0.030 C 
ATOM      2  C   LIG    1       -1.486   8.710   0.064  0.00  0.00    +0.300 C 
ENDROOT
BRANCH   2   3
ATOM      3  C   LIG    1       -0.708   7.419   0.048  0.00  0.00    -0.030 A 
ATOM      4  C   LIG    1       -1.219   6.168   0.045  0.00  0.00    -0.040 A 
ATOM      5  C   LIG    1       -0.070   5.328   0.030  0.00  0.00    +0.070 A 
ATOM      6  N   LIG    1        0.966   6.129   0.031  0.00  0.00    -0.350 NA
ATOM      7  O   LIG    1        0.627   7.290   0.036  0.00  0.00    +0.120 OA
BRANCH   5   8
ATOM      8  C   LIG    1       -0.050   3.844   0.022  0.00  0.00    -0.030 A 
ATOM      9  C   LIG    1        1.164   3.161   0.007  0.00  0.00    +0.040 A 
ATOM     10  C   LIG    1        1.177   1.781   0.000  0.00  0.00    +0.010 A 
ATOM     11  C   LIG    1       -0.013   1.076   0.008  0.00  0.00    +0.030 A 
ATOM     12  C   LIG    1       -1.221   1.748   0.017  0.00  0.00    +0.010 A 
ATOM     13  C   LIG    1       -1.246   3.128   0.030  0.00  0.00    +0.040 A 
ENDBRANCH   5   8
ENDBRANCH   2   3
BRANCH   2  14
ATOM     14  N   LIG    1       -0.839   9.682  -0.827  0.00  0.00    -0.690 NA
ATOM     15  H   LIG    1       -0.058  10.128  -0.369  0.00  0.00    +0.350 HD
BRANCH  14  16
ATOM     16  C   LIG    1       -1.805  10.679  -1.308  0.00  0.00    +0.200 C 
BRANCH  16  17
ATOM     17  C   LIG    1       -1.096  11.673  -2.231  0.00  0.00    +0.100 C 
ATOM     18  C   LIG    1       -0.236  12.707  -1.483  0.00  0.00    +0.280 C 
ATOM     19  N   LIG    1       -0.784  13.701  -2.435  0.00  0.00    -0.530 N 
ATOM     20  H   LIG    1       -1.001  14.585  -1.998  0.00  0.00    +0.430 HD
ATOM     21  H   LIG    1       -0.215  13.807  -3.262  0.00  0.00    +0.450 HD
ATOM     22  C   LIG    1       -1.979  12.859  -2.659  0.00  0.00    +0.340 C 
BRANCH  17  23
ATOM     23  O   LIG    1       -0.418  11.038  -3.317  0.00  0.00    -0.530 OA
ATOM     24  H   LIG    1        0.160  10.311  -3.049  0.00  0.00    +0.420 HD
ENDBRANCH  17  23
ENDBRANCH  16  17
ENDBRANCH  14  16
ENDBRANCH   2  14
TORSDOF 6
