REMARK  Name = ZINCpk00000y6uaR.0
REMARK                            x       y       z     vdW  Elec       q    Type
REMARK                         _______ _______ _______ _____ _____    ______ ____
ROOT
ATOM      1  O   LIG    1       -2.218   5.607  -2.143  0.00  0.00    -0.510 OA
ATOM      2  C   LIG    1       -1.142   6.109  -1.896  0.00  0.00    +0.500 C 
ATOM      3  N   LIG    1       -0.816   7.301  -2.435  0.00  0.00    -0.660 N 
ATOM      4  H   LIG    1        0.011   7.739  -2.178  0.00  0.00    +0.420 HD
ENDROOT
BRANCH   3   5
ATOM      5  C   LIG    1       -1.669   7.907  -3.363  0.00  0.00    +0.040 A 
ATOM      6  C   LIG    1       -1.778   9.294  -3.433  0.00  0.00    +0.300 A 
ATOM      7  N   LIG    1       -2.590   9.831  -4.327  0.00  0.00    -0.490 NA
ATOM      8  C   LIG    1       -3.304   9.066  -5.141  0.00  0.00    +0.340 A 
ATOM      9  N   LIG    1       -3.230   7.743  -5.099  0.00  0.00    -0.490 NA
ATOM     10  C   LIG    1       -2.435   7.136  -4.236  0.00  0.00    +0.340 A 
BRANCH   8  11
ATOM     11  C   LIG    1       -4.209   9.708  -6.125  0.00  0.00    -0.050 A 
ATOM     12  C   LIG    1       -4.964   8.925  -6.996  0.00  0.00    +0.070 A 
ATOM     13  C   LIG    1       -5.809   9.527  -7.906  0.00  0.00    +0.000 A 
ATOM     14  C   LIG    1       -5.897  10.907  -7.963  0.00  0.00    +0.030 A 
ATOM     15  C   LIG    1       -5.146  11.690  -7.105  0.00  0.00    +0.000 A 
ATOM     16  C   LIG    1       -4.302  11.098  -6.187  0.00  0.00    +0.070 A 
ENDBRANCH   8  11
ENDBRANCH   3   5
BRANCH   2  17
ATOM     17  C   LIG    1       -0.170   5.401  -0.988  0.00  0.00    +0.330 C 
BRANCH  17  18
ATOM     18  N   LIG    1       -0.756   4.136  -0.538  0.00  0.00    -0.580 N 
ATOM     19  C   LIG    1       -1.557   4.100   0.697  0.00  0.00    +0.290 C 
ATOM     20  C   LIG    1       -0.752   3.381   1.782  0.00  0.00    +0.010 C 
ATOM     21  C   LIG    1       -0.966   1.881   1.708  0.00  0.00    +0.020 C 
ATOM     22  C   LIG    1       -0.394   1.242   0.455  0.00  0.00    +0.050 C 
ATOM     23  C   LIG    1       -1.155   1.710  -0.788  0.00  0.00    +0.190 C 
ATOM     24  C   LIG    1       -0.560   3.025  -1.248  0.00  0.00    +0.490 C 
ATOM     25  O   LIG    1        0.097   3.067  -2.267  0.00  0.00    -0.540 OA
BRANCH  23  26
ATOM     26  O   LIG    1       -2.535   1.891  -0.466  0.00  0.00    -0.540 OA
ATOM     27  H   LIG    1       -3.077   2.188  -1.210  0.00  0.00    +0.390 HD
ENDBRANCH  23  26
ENDBRANCH  17  18
ENDBRANCH   2  17
TORSDOF 5
