REMARK  Name = ZINCqH00000395HP.0
REMARK                            x       y       z     vdW  Elec       q    Type
REMARK                         _______ _______ _______ _____ _____    ______ ____
ROOT
ATOM      1  C   LIG    1       -0.010   1.222   0.016  0.00  0.00    +0.550 C 
ATOM      2  N   LIG    1        1.137   1.930   0.019  0.00  0.00    -0.720 N 
ATOM      3  H   LIG    1        1.111   2.897  -0.046  0.00  0.00    +0.410 HD
ATOM      4  O   LIG    1        0.025   0.010   0.003  0.00  0.00    -0.510 OA
ENDROOT
BRANCH   2   5
ATOM      5  C   LIG    1        2.424   1.237   0.121  0.00  0.00    +0.300 C 
ATOM      6  C   LIG    1        3.469   2.182   0.714  0.00  0.00    +0.020 C 
ATOM      7  C   LIG    1        4.604   1.400   1.358  0.00  0.00    +0.020 C 
ATOM      8  C   LIG    1        5.453   0.639   0.361  0.00  0.00    +0.230 C 
ATOM      9  O   LIG    1        4.689  -0.389  -0.279  0.00  0.00    -0.320 OA
ATOM     10  C   LIG    1        3.991  -0.003  -1.381  0.00  0.00    +0.070 A 
ATOM     11  C   LIG    1        4.400  -0.427  -2.641  0.00  0.00    +0.090 A 
ATOM     12  C   LIG    1        3.704  -0.013  -3.763  0.00  0.00    +0.000 A 
ATOM     13  C   LIG    1        2.606   0.817  -3.634  0.00  0.00    +0.050 A 
ATOM     14  C   LIG    1        2.193   1.230  -2.379  0.00  0.00    +0.030 A 
ATOM     15  F   LIG    1        5.473  -1.239  -2.769  0.00  0.00    -0.130 F 
ATOM     16  C   LIG    1        2.883   0.810  -1.261  0.00  0.00    -0.090 A 
ENDBRANCH   2   5
BRANCH   1  17
ATOM     17  C   LIG    1       -1.336   1.938   0.023  0.00  0.00    -0.120 C 
ATOM     18  C   LIG    1       -2.401   1.460  -0.966  0.00  0.00    +0.090 C 
ATOM     19  C   LIG    1       -1.684   2.792  -1.198  0.00  0.00    +0.060 C 
BRANCH  17  24
ATOM     20  C   LIG    1       -1.878   2.198   3.759  0.00  0.00    -0.020 A 
ATOM     21  C   LIG    1       -2.677   3.339   3.840  0.00  0.00    +0.070 A 
ATOM     22  C   LIG    1       -3.032   4.011   2.688  0.00  0.00    +0.030 A 
ATOM     23  C   LIG    1       -2.593   3.560   1.457  0.00  0.00    +0.050 A 
ATOM     24  C   LIG    1       -1.805   2.426   1.369  0.00  0.00    -0.040 A 
ATOM     25  C   LIG    1       -1.443   1.744   2.512  0.00  0.00    +0.070 A 
BRANCH  20  27
ATOM     26  N   LIG    1       -1.209   0.938   5.895  0.00  0.00    -0.410 NA
ATOM     27  C   LIG    1       -1.505   1.495   4.950  0.00  0.00    +0.250 C 
ENDBRANCH  20  27
ENDBRANCH  17  24
ENDBRANCH   1  17
TORSDOF 4
