REMARK  Name = ZINCqH0000002Qut.0
REMARK                            x       y       z     vdW  Elec       q    Type
REMARK                         _______ _______ _______ _____ _____    ______ ____
ROOT
ATOM      1  C   LIG    1        0.595   0.183   0.384  0.00  0.00    +0.180 C 
ATOM      2  C   LIG    1        2.060  -0.181   0.703  0.00  0.00    +0.050 C 
ATOM      3  C   LIG    1        2.695   1.195   1.039  0.00  0.00    +0.030 C 
ATOM      4  C   LIG    1        1.946   2.130   0.057  0.00  0.00    +0.240 C 
ATOM      5  N   LIG    1        0.570   1.605   0.010  0.00  0.00    -0.600 N 
ATOM      6  C   LIG    1       -0.529   2.309  -0.325  0.00  0.00    +0.610 C 
ATOM      7  O   LIG    1       -1.613   1.760  -0.371  0.00  0.00    -0.500 OA
ENDROOT
BRANCH   6   8
ATOM      8  C   LIG    1       -0.417   3.745  -0.637  0.00  0.00    -0.280 A 
ATOM      9  C   LIG    1       -1.463   4.625  -0.839  0.00  0.00    +0.160 A 
ATOM     10  N   LIG    1       -0.928   5.833  -1.093  0.00  0.00    -0.320 N 
ATOM     11  N   LIG    1        0.466   5.716  -1.063  0.00  0.00    -0.280 NA
ATOM     12  C   LIG    1       -2.932   4.293  -0.780  0.00  0.00    +0.160 C 
ATOM     13  C   LIG    1        0.781   4.479  -0.793  0.00  0.00    +0.270 A 
BRANCH  10  14
ATOM     14  C   LIG    1       -1.647   7.009  -1.351  0.00  0.00    +0.110 A 
ATOM     15  C   LIG    1       -2.720   7.360  -0.543  0.00  0.00    +0.050 A 
ATOM     16  C   LIG    1       -3.422   8.522  -0.796  0.00  0.00    +0.030 A 
ATOM     17  C   LIG    1       -3.067   9.330  -1.860  0.00  0.00    +0.060 A 
ATOM     18  C   LIG    1       -2.002   8.982  -2.671  0.00  0.00    +0.010 A 
ATOM     19  C   LIG    1       -1.291   7.823  -2.420  0.00  0.00    +0.120 A 
ATOM     20  F   LIG    1       -0.250   7.483  -3.212  0.00  0.00    -0.120 F 
ENDBRANCH  10  14
ENDBRANCH   6   8
BRANCH   1  21
ATOM     21  C   LIG    1       -0.282  -0.046   1.617  0.00  0.00    +0.040 C 
BRANCH  21  23
ATOM     22  C   LIG    1       -0.794   0.759   3.926  0.00  0.00    +0.000 C 
ATOM     23  C   LIG    1        0.168   0.886   2.744  0.00  0.00    +0.000 C 
ENDBRANCH  21  23
ENDBRANCH   1  21
BRANCH   1  24
ATOM     24  C   LIG    1        0.088  -0.670  -0.780  0.00  0.00    +0.150 C 
BRANCH  24  25
ATOM     25  O   LIG    1       -1.277  -0.345  -1.051  0.00  0.00    -0.340 OA
ATOM     26  C   LIG    1       -1.849  -1.091  -2.127  0.00  0.00    +0.170 C 
ENDBRANCH  24  25
ENDBRANCH   1  24
TORSDOF 6
