REMARK  Name = ZINCqH0000050fKW.0
REMARK                            x       y       z     vdW  Elec       q    Type
REMARK                         _______ _______ _______ _____ _____    ______ ____
ROOT
ATOM      1  N   LIG    1       -3.115   3.843  -0.877  0.00  0.00    -0.660 N 
ATOM      2  H   LIG    1       -2.322   3.749  -0.328  0.00  0.00    +0.420 HD
ATOM      3  C   LIG    1       -3.417   2.901  -1.793  0.00  0.00    +0.610 C 
ATOM      4  O   LIG    1       -4.460   2.968  -2.413  0.00  0.00    -0.510 OA
ENDROOT
BRANCH   1   8
ATOM      5  C   LIG    1       -5.596   7.161  -0.405  0.00  0.00    +0.080 A 
ATOM      6  C   LIG    1       -6.147   5.912  -0.653  0.00  0.00    +0.010 A 
ATOM      7  C   LIG    1       -5.327   4.813  -0.810  0.00  0.00    +0.050 A 
ATOM      8  C   LIG    1       -3.948   4.957  -0.719  0.00  0.00    +0.120 A 
ATOM      9  C   LIG    1       -3.397   6.207  -0.465  0.00  0.00    +0.030 A 
ATOM     10  C   LIG    1       -4.218   7.306  -0.314  0.00  0.00    +0.030 A 
BRANCH   5  11
ATOM     11  O   LIG    1       -6.404   8.243  -0.251  0.00  0.00    -0.210 OA
BRANCH  11  15
ATOM     12  C   LIG    1      -11.273   9.079   0.140  0.00  0.00    +0.160 C 
ATOM     13  C   LIG    1       -9.930   8.401   0.050  0.00  0.00    +0.120 A 
ATOM     14  C   LIG    1       -8.734   9.019  -0.079  0.00  0.00    -0.110 A 
ATOM     15  C   LIG    1       -7.741   8.028  -0.127  0.00  0.00    +0.270 A 
ATOM     16  N   LIG    1       -8.328   6.859  -0.035  0.00  0.00    -0.330 NA
ATOM     17  N   LIG    1       -9.707   7.071   0.082  0.00  0.00    -0.470 N 
ATOM     18  H   LIG    1      -10.384   6.381   0.169  0.00  0.00    +0.440 HD
ENDBRANCH  11  15
ENDBRANCH   5  11
ENDBRANCH   1   8
BRANCH   3  19
ATOM     19  C   LIG    1       -2.479   1.788  -2.044  0.00  0.00    -0.010 A 
ATOM     20  N   LIG    1       -1.322   1.591  -1.443  0.00  0.00    -0.250 NA
ATOM     21  N   LIG    1       -0.756   0.531  -1.898  0.00  0.00    -0.370 N 
ATOM     22  H   LIG    1        0.104   0.191  -1.605  0.00  0.00    +0.450 HD
ATOM     23  C   LIG    1       -1.543  -0.047  -2.848  0.00  0.00    +0.100 A 
ATOM     24  C   LIG    1       -2.658   0.735  -2.967  0.00  0.00    +0.010 A 
BRANCH  23  25
ATOM     25  C   LIG    1       -1.248  -1.284  -3.606  0.00  0.00    -0.140 A 
ATOM     26  C   LIG    1       -2.027  -1.873  -4.552  0.00  0.00    +0.220 A 
ATOM     27  O   LIG    1       -1.397  -2.970  -4.997  0.00  0.00    -0.170 OA
ATOM     28  C   LIG    1       -0.224  -3.135  -4.366  0.00  0.00    +0.190 A 
ATOM     29  C   LIG    1       -0.055  -2.132  -3.488  0.00  0.00    -0.060 A 
ENDBRANCH  23  25
ENDBRANCH   3  19
TORSDOF 5
