REMARK  Name = ZINCqH0000050fKW.1
REMARK                            x       y       z     vdW  Elec       q    Type
REMARK                         _______ _______ _______ _____ _____    ______ ____
ROOT
ATOM      1  N   LIG    1       -5.468   3.803   7.608  0.00  0.00    -0.670 N 
ATOM      2  H   LIG    1       -5.435   4.500   8.281  0.00  0.00    +0.410 HD
ATOM      3  C   LIG    1       -6.611   3.119   7.402  0.00  0.00    +0.590 C 
ATOM      4  O   LIG    1       -6.680   2.306   6.500  0.00  0.00    -0.500 OA
ENDROOT
BRANCH   1   8
ATOM      5  C   LIG    1       -2.077   2.924   5.348  0.00  0.00    +0.090 A 
ATOM      6  C   LIG    1       -3.332   2.895   4.756  0.00  0.00    +0.030 A 
ATOM      7  C   LIG    1       -4.456   3.181   5.505  0.00  0.00    +0.060 A 
ATOM      8  C   LIG    1       -4.330   3.507   6.849  0.00  0.00    +0.110 A 
ATOM      9  C   LIG    1       -3.073   3.540   7.440  0.00  0.00    +0.020 A 
ATOM     10  C   LIG    1       -1.950   3.249   6.691  0.00  0.00    +0.020 A 
BRANCH   5  11
ATOM     11  O   LIG    1       -0.971   2.637   4.611  0.00  0.00    -0.210 OA
BRANCH  11  15
ATOM     12  C   LIG    1        3.862   1.962   5.475  0.00  0.00    +0.160 C 
ATOM     13  C   LIG    1        2.381   2.171   5.658  0.00  0.00    +0.120 A 
ATOM     14  C   LIG    1        1.466   2.297   4.670  0.00  0.00    -0.110 A 
ATOM     15  C   LIG    1        0.208   2.474   5.267  0.00  0.00    +0.270 A 
ATOM     16  N   LIG    1        0.369   2.454   6.568  0.00  0.00    -0.330 NA
ATOM     17  N   LIG    1        1.730   2.259   6.837  0.00  0.00    -0.470 N 
ATOM     18  H   LIG    1        2.135   2.199   7.717  0.00  0.00    +0.440 HD
ENDBRANCH  11  15
ENDBRANCH   5  11
ENDBRANCH   1   8
BRANCH   3  19
ATOM     19  C   LIG    1       -7.776   3.354   8.270  0.00  0.00    -0.040 A 
ATOM     20  C   LIG    1       -9.011   2.740   8.183  0.00  0.00    +0.040 A 
ATOM     21  C   LIG    1       -9.777   3.296   9.224  0.00  0.00    +0.100 A 
ATOM     22  N   LIG    1       -9.020   4.172   9.849  0.00  0.00    -0.250 NA
ATOM     23  N   LIG    1       -7.852   4.229   9.318  0.00  0.00    -0.370 N 
ATOM     24  H   LIG    1       -7.132   4.806   9.616  0.00  0.00    +0.450 HD
BRANCH  21  25
ATOM     25  C   LIG    1      -11.185   2.958   9.554  0.00  0.00    -0.120 A 
ATOM     26  C   LIG    1      -11.950   1.993   8.985  0.00  0.00    +0.210 A 
ATOM     27  O   LIG    1      -13.159   2.012   9.565  0.00  0.00    -0.180 OA
ATOM     28  C   LIG    1      -13.219   2.966  10.507  0.00  0.00    +0.180 A 
ATOM     29  C   LIG    1      -12.033   3.595  10.568  0.00  0.00    -0.040 A 
ENDBRANCH  21  25
ENDBRANCH   3  19
TORSDOF 5
