REMARK  Name = ZINCvU000000083o.0
REMARK                            x       y       z     vdW  Elec       q    Type
REMARK                         _______ _______ _______ _____ _____    ______ ____
ROOT
ATOM      1  C   LIG    1        1.408  -0.441  -0.015  0.00  0.00    +0.370 C 
ATOM      2  C   LIG    1        2.223   0.811  -0.018  0.00  0.00    -0.230 A 
ATOM      3  C   LIG    1        1.359   1.870  -0.001  0.00  0.00    +0.090 A 
ATOM      4  C   LIG    1       -0.016   1.344   0.009  0.00  0.00    +0.570 C 
ATOM      5  O   LIG    1       -1.022   2.027   0.018  0.00  0.00    -0.450 OA
ATOM      6  O   LIG    1        1.779   3.150   0.009  0.00  0.00    -0.180 OA
ATOM      7  C   LIG    1        3.080   3.430  -0.238  0.00  0.00    +0.140 A 
ATOM      8  C   LIG    1        3.456   4.753  -0.463  0.00  0.00    +0.020 A 
ATOM      9  C   LIG    1        4.775   5.067  -0.705  0.00  0.00    +0.100 A 
ATOM     10  C   LIG    1        5.748   4.077  -0.731  0.00  0.00    +0.000 A 
ATOM     11  C   LIG    1        5.401   2.762  -0.515  0.00  0.00    +0.120 A 
ATOM     12  C   LIG    1        4.068   2.432  -0.270  0.00  0.00    -0.210 A 
ATOM     13  C   LIG    1        3.674   1.019  -0.041  0.00  0.00    +0.460 A 
ATOM     14  O   LIG    1        4.479   0.118   0.113  0.00  0.00    -0.420 OA
ATOM     15  N   LIG    1        0.002  -0.004   0.002  0.00  0.00    -0.500 N 
ENDROOT
BRANCH  15  16
ATOM     16  C   LIG    1       -1.110  -0.835   0.010  0.00  0.00    +0.270 A 
ATOM     17  N   LIG    1       -1.069  -2.131  -0.003  0.00  0.00    -0.480 NA
ATOM     18  C   LIG    1       -2.226  -2.765   0.010  0.00  0.00    +0.090 A 
ATOM     19  C   LIG    1       -3.296  -1.968   0.026  0.00  0.00    -0.250 A 
ATOM     20  C   LIG    1       -4.734  -2.417   0.038  0.00  0.00    +0.160 C 
ATOM     21  C   LIG    1       -2.330  -4.269   0.003  0.00  0.00    +0.160 C 
ATOM     22  S   LIG    1       -2.733  -0.298   0.029  0.00  0.00    +0.210 S 
ENDBRANCH  15  16
BRANCH   1  27
ATOM     23  C   LIG    1        2.819  -3.112   2.256  0.00  0.00    +0.140 A 
ATOM     24  C   LIG    1        2.270  -2.751   3.478  0.00  0.00    -0.070 A 
ATOM     25  C   LIG    1        1.446  -1.645   3.564  0.00  0.00    +0.050 A 
ATOM     26  C   LIG    1        1.168  -0.899   2.434  0.00  0.00    -0.030 A 
ATOM     27  C   LIG    1        1.714  -1.256   1.215  0.00  0.00    -0.050 A 
ATOM     28  C   LIG    1        2.534  -2.364   1.123  0.00  0.00    +0.020 A 
BRANCH  23  29
ATOM     29  O   LIG    1        3.629  -4.199   2.168  0.00  0.00    -0.310 OA
BRANCH  29  31
ATOM     30  C   LIG    1        4.801  -6.106   3.080  0.00  0.00    +0.070 C 
ATOM     31  C   LIG    1        3.874  -4.925   3.374  0.00  0.00    +0.170 C 
ENDBRANCH  29  31
ENDBRANCH  23  29
ENDBRANCH   1  27
TORSDOF 4
