REMARK  Name = ZINCtV000002C2gp.0
REMARK                            x       y       z     vdW  Elec       q    Type
REMARK                         _______ _______ _______ _____ _____    ______ ____
ROOT
ATOM      1  C   LIG    1       -0.704   7.687  -0.134  0.00  0.00    +0.160 A 
ATOM      2  N   LIG    1        0.538   7.624   0.289  0.00  0.00    -0.290 NA
ATOM      3  N   LIG    1        0.915   6.398   0.371  0.00  0.00    -0.260 NA
ATOM      4  C   LIG    1       -0.061   5.603  -0.002  0.00  0.00    +0.230 A 
ATOM      5  N   LIG    1       -1.129   6.404  -0.334  0.00  0.00    -0.450 N 
ENDROOT
BRANCH   4   6
ATOM      6  C   LIG    1       -0.022   4.126  -0.050  0.00  0.00    -0.020 A 
ATOM      7  C   LIG    1        1.154   3.469  -0.414  0.00  0.00    +0.100 A 
ATOM      8  C   LIG    1        1.185   2.091  -0.458  0.00  0.00    +0.000 A 
ATOM      9  C   LIG    1        0.052   1.359  -0.142  0.00  0.00    +0.120 A 
ATOM     10  C   LIG    1       -1.120   2.007   0.214  0.00  0.00    -0.010 A 
ATOM     11  F   LIG    1        0.087   0.009  -0.188  0.00  0.00    -0.130 F 
ATOM     12  C   LIG    1       -1.161   3.385   0.267  0.00  0.00    +0.060 A 
ENDBRANCH   4   6
BRANCH   1  13
ATOM     13  S   LIG    1       -1.647   9.153  -0.395  0.00  0.00    +0.010 S 
BRANCH  13  14
ATOM     14  C   LIG    1       -0.424  10.401   0.077  0.00  0.00    +0.160 C 
BRANCH  14  18
ATOM     15  C   LIG    1       -2.128  14.298  -0.342  0.00  0.00    -0.070 A 
ATOM     16  C   LIG    1       -2.240  13.614   0.863  0.00  0.00    +0.030 A 
ATOM     17  C   LIG    1       -1.688  12.356   0.995  0.00  0.00    +0.050 A 
ATOM     18  C   LIG    1       -1.025  11.775  -0.070  0.00  0.00    -0.090 A 
ATOM     19  C   LIG    1       -0.907  12.454  -1.269  0.00  0.00    +0.050 A 
ATOM     20  C   LIG    1       -1.461  13.711  -1.410  0.00  0.00    +0.000 A 
BRANCH  15  22
ATOM     21  C   LIG    1       -2.421  16.348  -2.225  0.00  0.00    +0.140 C 
ATOM     22  S   LIG    1       -2.831  15.905  -0.514  0.00  0.00    -0.110 S 
ENDBRANCH  15  22
ENDBRANCH  14  18
ENDBRANCH  13  14
ENDBRANCH   1  13
BRANCH   5  23
ATOM     23  C   LIG    1       -2.448   5.972  -0.804  0.00  0.00    +0.360 C 
BRANCH  23  24
ATOM     24  C   LIG    1       -2.394   5.721  -2.289  0.00  0.00    -0.120 A 
ATOM     25  C   LIG    1       -2.570   6.768  -3.174  0.00  0.00    +0.040 A 
ATOM     26  C   LIG    1       -2.516   6.538  -4.536  0.00  0.00    +0.010 A 
ATOM     27  C   LIG    1       -2.296   5.260  -5.013  0.00  0.00    +0.030 A 
ATOM     28  C   LIG    1       -2.124   4.212  -4.128  0.00  0.00    +0.010 A 
ATOM     29  C   LIG    1       -2.173   4.442  -2.766  0.00  0.00    +0.030 A 
ENDBRANCH  23  24
ENDBRANCH   5  23
TORSDOF 7
