REMARK  Name = ZINCqH0000033K1k.0
REMARK                            x       y       z     vdW  Elec       q    Type
REMARK                         _______ _______ _______ _____ _____    ______ ____
ROOT
ATOM      1  C   LIG    1        5.207  -0.244   2.623  0.00  0.00    +0.520 C 
ATOM      2  N   LIG    1        4.375   0.537   1.905  0.00  0.00    -0.730 N 
ATOM      3  H   LIG    1        3.514   0.794   2.270  0.00  0.00    +0.400 HD
ATOM      4  O   LIG    1        6.283  -0.565   2.166  0.00  0.00    -0.510 OA
ENDROOT
BRANCH   1   5
ATOM      5  C   LIG    1        4.798  -0.717   3.994  0.00  0.00    +0.220 C 
BRANCH   5   6
ATOM      6  O   LIG    1        5.839  -1.524   4.550  0.00  0.00    -0.290 OA
BRANCH   6  10
ATOM      7  C   LIG    1        5.200  -3.072   8.323  0.00  0.00    +0.100 A 
ATOM      8  C   LIG    1        6.384  -3.343   7.653  0.00  0.00    +0.030 A 
ATOM      9  C   LIG    1        6.598  -2.825   6.391  0.00  0.00    +0.040 A 
ATOM     10  C   LIG    1        5.629  -2.034   5.792  0.00  0.00    +0.090 A 
ATOM     11  C   LIG    1        4.447  -1.758   6.464  0.00  0.00    -0.040 A 
ATOM     12  C   LIG    1        4.231  -2.281   7.724  0.00  0.00    -0.040 A 
BRANCH   7  13
ATOM     13  O   LIG    1        4.990  -3.582   9.566  0.00  0.00    -0.320 OA
BRANCH  13  15
ATOM     14  C   LIG    1        3.694  -3.919  11.577  0.00  0.00    +0.070 C 
ATOM     15  C   LIG    1        3.748  -3.262  10.196  0.00  0.00    +0.170 C 
ENDBRANCH  13  15
ENDBRANCH   7  13
ENDBRANCH   6  10
ENDBRANCH   5   6
ENDBRANCH   1   5
BRANCH   2  16
ATOM     16  C   LIG    1        4.772   0.997   0.572  0.00  0.00    +0.280 C 
BRANCH  16  17
ATOM     17  C   LIG    1        3.658   1.860  -0.023  0.00  0.00    +0.240 C 
BRANCH  17  18
ATOM     18  C   LIG    1        4.017   2.238  -1.461  0.00  0.00    -0.030 C 
ATOM     19  C   LIG    1        2.965   3.202  -2.014  0.00  0.00    +0.030 C 
ATOM     20  C   LIG    1        4.056   0.975  -2.325  0.00  0.00    +0.030 C 
ENDBRANCH  17  18
BRANCH  17  21
ATOM     21  N   LIG    1        2.401   1.108  -0.015  0.00  0.00    -0.740 N 
ATOM     22  H   LIG    1        2.416   0.138  -0.020  0.00  0.00    +0.400 HD
BRANCH  21  23
ATOM     23  C   LIG    1        1.180   1.788   0.000  0.00  0.00    +0.210 A 
ATOM     24  C   LIG    1       -0.013   1.076   0.008  0.00  0.00    -0.080 A 
ATOM     25  C   LIG    1       -1.217   1.751   0.017  0.00  0.00    +0.050 A 
ATOM     26  C   LIG    1       -1.237   3.134   0.029  0.00  0.00    -0.060 A 
ATOM     27  C   LIG    1       -0.051   3.845   0.022  0.00  0.00    +0.040 A 
ATOM     28  C   LIG    1        1.157   3.176   0.008  0.00  0.00    -0.070 A 
ENDBRANCH  21  23
ENDBRANCH  17  21
ENDBRANCH  16  17
ENDBRANCH   2  16
TORSDOF 10
