REMARK  Name = ZINCvU0000000CLh.0
REMARK                            x       y       z     vdW  Elec       q    Type
REMARK                         _______ _______ _______ _____ _____    ______ ____
ROOT
ATOM      1  O   LIG    1        0.679  -4.755  -0.028  0.00  0.00    -0.480 OA
ATOM      2  C   LIG    1       -0.295  -4.027  -0.016  0.00  0.00    +0.530 C 
ENDROOT
BRANCH   2   3
ATOM      3  C   LIG    1       -1.643  -4.606  -0.007  0.00  0.00    -0.110 A 
ATOM      4  C   LIG    1       -2.312  -4.875  -1.219  0.00  0.00    +0.000 A 
ATOM      5  C   LIG    1       -1.703  -4.610  -2.457  0.00  0.00    +0.000 A 
ATOM      6  C   LIG    1       -2.373  -4.888  -3.608  0.00  0.00    +0.040 A 
ATOM      7  C   LIG    1       -3.653  -5.437  -3.595  0.00  0.00    +0.010 A 
ATOM      8  C   LIG    1       -4.294  -5.722  -2.432  0.00  0.00    +0.050 A 
ATOM      9  C   LIG    1       -3.655  -5.458  -1.202  0.00  0.00    -0.060 A 
ATOM     10  C   LIG    1       -4.286  -5.739   0.011  0.00  0.00    +0.090 A 
ATOM     11  C   LIG    1       -3.633  -5.470   1.215  0.00  0.00    -0.060 A 
ATOM     12  C   LIG    1       -4.251  -5.747   2.454  0.00  0.00    +0.050 A 
ATOM     13  C   LIG    1       -3.588  -5.474   3.608  0.00  0.00    +0.010 A 
ATOM     14  C   LIG    1       -2.308  -4.924   3.605  0.00  0.00    +0.040 A 
ATOM     15  C   LIG    1       -1.659  -4.635   2.444  0.00  0.00    +0.000 A 
ATOM     16  C   LIG    1       -2.288  -4.893   1.214  0.00  0.00    +0.000 A 
ENDBRANCH   2   3
BRANCH   2  17
ATOM     17  O   LIG    1       -0.136  -2.688  -0.010  0.00  0.00    -0.350 OA
BRANCH  17  18
ATOM     18  C   LIG    1        1.227  -2.186  -0.020  0.00  0.00    +0.320 C 
BRANCH  18  19
ATOM     19  C   LIG    1        1.207  -0.679  -0.012  0.00  0.00    -0.120 A 
ATOM     20  C   LIG    1        0.002  -0.004   0.002  0.00  0.00    +0.170 A 
ATOM     21  C   LIG    1       -0.017   1.379   0.010  0.00  0.00    -0.070 A 
ATOM     22  C   LIG    1        1.170   2.088   0.002  0.00  0.00    +0.150 A 
ATOM     23  C   LIG    1        2.378   1.417  -0.013  0.00  0.00    -0.200 A 
ATOM     24  C   LIG    1        3.667   2.201  -0.026  0.00  0.00    +0.320 C 
ATOM     25  O   LIG    1        4.750   1.336   0.331  0.00  0.00    -0.380 OA
ATOM     26  C   LIG    1        4.746   0.103  -0.398  0.00  0.00    +0.450 C 
ATOM     27  O   LIG    1        3.582  -0.641  -0.030  0.00  0.00    -0.320 OA
ATOM     28  C   LIG    1        2.400   0.031  -0.020  0.00  0.00    +0.200 A 
BRANCH  21  29
ATOM     29  N   LIG    1       -1.309   2.100   0.020  0.00  0.00    +0.030 N 
ATOM     30  O   LIG    1       -1.326   3.318   0.026  0.00  0.00    -0.160 OA
ATOM     31  O   LIG    1       -2.355   1.476   0.021  0.00  0.00    -0.150 OA
ENDBRANCH  21  29
ENDBRANCH  18  19
ENDBRANCH  17  18
ENDBRANCH   2  17
TORSDOF 5
