REMARK  Name = ZINCzw0000000ipe.0
REMARK                            x       y       z     vdW  Elec       q    Type
REMARK                         _______ _______ _______ _____ _____    ______ ____
ROOT
ATOM      1  C   LIG    1       -2.212   1.958   0.689  0.00  0.00    +0.240 C 
ATOM      2  C   LIG    1       -2.261   1.731  -0.836  0.00  0.00    +0.090 C 
ATOM      3  C   LIG    1       -0.785   1.938  -1.266  0.00  0.00    +0.190 C 
ATOM      4  C   LIG    1       -0.022   1.345  -0.055  0.00  0.00    +0.240 C 
ATOM      5  N   LIG    1       -0.823   1.728   1.122  0.00  0.00    -0.570 N 
ATOM      6  C   LIG    1       -0.360   1.846   2.382  0.00  0.00    +0.520 C 
ATOM      7  O   LIG    1       -1.101   2.217   3.268  0.00  0.00    -0.510 OA
ENDROOT
BRANCH   6   8
ATOM      8  C   LIG    1        1.078   1.517   2.691  0.00  0.00    +0.020 C 
ATOM      9  C   LIG    1        1.552   2.275   3.967  0.00  0.00    +0.250 C 
ATOM     10  C   LIG    1        3.120   2.041   4.005  0.00  0.00    +0.090 C 
ATOM     11  C   LIG    1        3.248   0.550   4.402  0.00  0.00    +0.090 C 
ATOM     12  C   LIG    1        1.768   0.082   4.540  0.00  0.00    +0.230 C 
ATOM     13  N   LIG    1        1.097   1.331   5.049  0.00  0.00    -0.540 N 
ATOM     14  H   LIG    1        1.453   1.602   5.953  0.00  0.00    +0.440 HD
ATOM     15  H   LIG    1        0.092   1.235   5.061  0.00  0.00    +0.440 HD
ATOM     16  C   LIG    1        1.224   0.025   3.080  0.00  0.00    +0.010 C 
BRANCH  16  17
ATOM     17  C   LIG    1       -0.134  -0.678   3.038  0.00  0.00    +0.450 C 
ATOM     18  F   LIG    1       -1.029  -0.015   3.884  0.00  0.00    -0.160 F 
ATOM     19  F   LIG    1        0.014  -2.003   3.462  0.00  0.00    -0.170 F 
ATOM     20  F   LIG    1       -0.628  -0.660   1.729  0.00  0.00    -0.150 F 
ENDBRANCH  16  17
ENDBRANCH   6   8
BRANCH   1  23
ATOM     21  N   LIG    1       -4.455   1.008   1.123  0.00  0.00    -0.720 N 
ATOM     22  H   LIG    1       -4.814   1.650   0.490  0.00  0.00    +0.400 HD
ATOM     23  C   LIG    1       -3.132   0.986   1.382  0.00  0.00    +0.510 C 
ATOM     24  O   LIG    1       -2.683   0.184   2.173  0.00  0.00    -0.520 OA
BRANCH  21  25
ATOM     25  C   LIG    1       -5.349   0.064   1.796  0.00  0.00    +0.330 C 
BRANCH  25  29
ATOM     26  C   LIG    1       -9.366   0.723   0.486  0.00  0.00    +0.000 A 
ATOM     27  C   LIG    1       -8.546  -0.177  -0.195  0.00  0.00    +0.030 A 
ATOM     28  C   LIG    1       -7.251  -0.386   0.233  0.00  0.00    +0.040 A 
ATOM     29  C   LIG    1       -6.765   0.296   1.335  0.00  0.00    -0.110 A 
ATOM     30  C   LIG    1       -7.575   1.186   2.017  0.00  0.00    +0.040 A 
ATOM     31  C   LIG    1       -8.870   1.407   1.596  0.00  0.00    +0.030 A 
BRANCH  26  34
ATOM     32  C   LIG    1      -11.805   0.730   2.302  0.00  0.00    +0.160 C 
ATOM     33  C   LIG    1      -11.856   0.960   0.814  0.00  0.00    +0.090 A 
ATOM     34  C   LIG    1      -10.755   0.951   0.032  0.00  0.00    -0.210 A 
ATOM     35  S   LIG    1      -11.270   1.252  -1.626  0.00  0.00    +0.140 S 
ATOM     36  C   LIG    1      -12.896   1.367  -1.111  0.00  0.00    +0.230 A 
ATOM     37  N   LIG    1      -12.976   1.190   0.166  0.00  0.00    -0.470 NA
ENDBRANCH  26  34
ENDBRANCH  25  29
ENDBRANCH  21  25
ENDBRANCH   1  23
BRANCH   3  38
ATOM     38  O   LIG    1       -0.489   3.326  -1.429  0.00  0.00    -0.550 OA
ATOM     39  H   LIG    1        0.444   3.512  -1.602  0.00  0.00    +0.390 HD
ENDBRANCH   3  38
TORSDOF 7
