REMARK  Name = ZINCqH0000001oRo.0
REMARK                            x       y       z     vdW  Elec       q    Type
REMARK                         _______ _______ _______ _____ _____    ______ ____
ROOT
ATOM      1  C   LIG    1        3.371  -2.606  -0.810  0.00  0.00    -0.010 C 
ATOM      2  C   LIG    1        4.415  -1.494  -0.922  0.00  0.00    +0.060 C 
ATOM      3  C   LIG    1        4.167  -0.453   0.174  0.00  0.00    +0.280 C 
ATOM      4  N   LIG    1        2.777   0.013   0.078  0.00  0.00    -0.610 N 
ATOM      5  C   LIG    1        1.696  -0.982   0.091  0.00  0.00    +0.260 C 
ATOM      6  C   LIG    1        2.498   1.328  -0.014  0.00  0.00    +0.590 C 
ATOM      7  O   LIG    1        3.401   2.134  -0.143  0.00  0.00    -0.510 OA
ATOM      8  C   LIG    1        1.972  -2.018  -1.010  0.00  0.00    +0.030 C 
ENDROOT
BRANCH   6   9
ATOM      9  C   LIG    1        1.104   1.789   0.041  0.00  0.00    +0.030 A 
ATOM     10  C   LIG    1        0.636   2.951  -0.487  0.00  0.00    +0.070 A 
ATOM     11  C   LIG    1       -0.751   3.019  -0.220  0.00  0.00    -0.140 A 
ATOM     12  C   LIG    1       -1.744   3.965  -0.517  0.00  0.00    +0.170 A 
ATOM     13  C   LIG    1       -3.041   3.743  -0.112  0.00  0.00    -0.010 A 
ATOM     14  C   LIG    1       -3.372   2.588   0.587  0.00  0.00    -0.040 A 
ATOM     15  C   LIG    1       -2.410   1.648   0.887  0.00  0.00    +0.030 A 
ATOM     16 BR   LIG    1       -5.160   2.305   1.133  0.00  0.00    -0.020 Br
ATOM     17  F   LIG    1       -1.428   5.090  -1.195  0.00  0.00    -0.120 F 
ATOM     18  C   LIG    1       -1.093   1.847   0.484  0.00  0.00    +0.140 A 
ATOM     19  N   LIG    1        0.058   1.111   0.638  0.00  0.00    -0.570 N 
ATOM     20  H   LIG    1        0.124   0.254   1.088  0.00  0.00    +0.430 HD
ENDBRANCH   6   9
BRANCH   1  22
ATOM     21  N   LIG    1        2.832  -4.730  -1.958  0.00  0.00    -0.610 N 
ATOM     22  C   LIG    1        3.632  -3.649  -1.866  0.00  0.00    +0.520 C 
ATOM     23  O   LIG    1        4.562  -3.516  -2.632  0.00  0.00    -0.530 OA
ATOM     24  C   LIG    1        1.709  -4.891  -1.031  0.00  0.00    +0.280 C 
BRANCH  21  26
ATOM     25  C   LIG    1        3.351  -7.094  -2.313  0.00  0.00    +0.030 C 
ATOM     26  C   LIG    1        3.087  -5.744  -2.984  0.00  0.00    +0.230 C 
ATOM     27  C   LIG    1        1.866  -5.860  -3.900  0.00  0.00    +0.030 C 
ENDBRANCH  21  26
ENDBRANCH   1  22
TORSDOF 3
