REMARK  Name = ZINCpk00000y6uEW.0
REMARK                            x       y       z     vdW  Elec       q    Type
REMARK                         _______ _______ _______ _____ _____    ______ ____
ROOT
ATOM      1  C   LIG    1        3.807   1.726   0.054  0.00  0.00    +0.370 C 
ATOM      2  C   LIG    1        4.652   1.459   1.317  0.00  0.00    +0.090 C 
ATOM      3  C   LIG    1        3.781   0.450   2.111  0.00  0.00    +0.190 C 
ATOM      4  C   LIG    1        2.351   0.956   1.790  0.00  0.00    +0.240 C 
ATOM      5  N   LIG    1        2.414   1.388   0.381  0.00  0.00    -0.610 N 
ATOM      6  C   LIG    1        1.367   1.466  -0.464  0.00  0.00    +0.540 C 
ATOM      7  O   LIG    1        1.536   1.841  -1.605  0.00  0.00    -0.500 OA
ENDROOT
BRANCH   1  12
ATOM      8  C   LIG    1        4.923   6.027  -2.253  0.00  0.00    +0.210 C 
ATOM      9  C   LIG    1        4.369   5.005  -1.296  0.00  0.00    +0.170 A 
ATOM     10  N   LIG    1        3.614   5.245  -0.266  0.00  0.00    -0.380 NA
ATOM     11  O   LIG    1        3.336   4.210   0.302  0.00  0.00    +0.080 OA
ATOM     12  C   LIG    1        3.905   3.180  -0.331  0.00  0.00    +0.170 A 
ATOM     13  N   LIG    1        4.569   3.676  -1.347  0.00  0.00    -0.460 NA
ENDBRANCH   1  12
BRANCH   3  14
ATOM     14  O   LIG    1        4.050   0.533   3.512  0.00  0.00    -0.550 OA
ATOM     15  H   LIG    1        3.529  -0.079   4.050  0.00  0.00    +0.390 HD
ENDBRANCH   3  14
BRANCH   6  16
ATOM     16  C   LIG    1       -0.013   1.086   0.008  0.00  0.00    +0.190 C 
ATOM     17  C   LIG    1       -0.566   2.192   0.909  0.00  0.00    +0.040 C 
BRANCH  16  18
ATOM     18  N   LIG    1       -0.897   0.911  -1.152  0.00  0.00    -0.470 N 
ATOM     19  C   LIG    1       -1.185   2.210  -1.799  0.00  0.00    +0.240 C 
ATOM     20  C   LIG    1       -2.519   2.628  -1.139  0.00  0.00    +0.060 C 
ATOM     21  C   LIG    1       -3.123   1.299  -0.730  0.00  0.00    -0.130 A 
ATOM     22  C   LIG    1       -4.407   0.951  -0.367  0.00  0.00    +0.030 A 
ATOM     23  C   LIG    1       -4.705  -0.361  -0.047  0.00  0.00    +0.000 A 
ATOM     24  C   LIG    1       -3.713  -1.324  -0.091  0.00  0.00    +0.030 A 
ATOM     25  C   LIG    1       -2.426  -0.980  -0.451  0.00  0.00    +0.010 A 
ATOM     26  C   LIG    1       -2.117   0.341  -0.772  0.00  0.00    +0.090 A 
ENDBRANCH  16  18
ENDBRANCH   6  16
TORSDOF 4
