REMARK  Name = ZINCpk000000nK8v.0
REMARK                            x       y       z     vdW  Elec       q    Type
REMARK                         _______ _______ _______ _____ _____    ______ ____
ROOT
ATOM      1  C   LIG    1        0.439   2.233  -0.542  0.00  0.00    +0.180 C 
ENDROOT
BRANCH   1   2
ATOM      2  C   LIG    1       -0.740   1.413  -0.085  0.00  0.00    +0.520 C 
ATOM      3  N   LIG    1       -0.569   0.122   0.263  0.00  0.00    -0.610 N 
ATOM      4  C   LIG    1        0.758  -0.508   0.196  0.00  0.00    +0.280 C 
ATOM      5  C   LIG    1        1.039  -1.184   1.547  0.00  0.00    +0.170 C 
ATOM      6  N   LIG    1       -0.066  -2.097   1.871  0.00  0.00    -0.530 NA
ATOM      7  C   LIG    1       -1.329  -1.366   2.037  0.00  0.00    +0.180 C 
ATOM      8  C   LIG    1       -1.706  -0.695   0.712  0.00  0.00    +0.300 C 
ATOM      9  O   LIG    1       -1.844   1.914  -0.033  0.00  0.00    -0.510 OA
BRANCH   6  10
ATOM     10  C   LIG    1        0.242  -2.894   3.066  0.00  0.00    +0.190 C 
BRANCH  10  11
ATOM     11  C   LIG    1        0.767  -1.975   4.170  0.00  0.00    +0.160 C 
ATOM     12  C   LIG    1        1.158  -2.813   5.389  0.00  0.00    +0.010 C 
BRANCH  11  13
ATOM     13  O   LIG    1       -0.253  -1.044   4.540  0.00  0.00    -0.560 OA
ATOM     14  H   LIG    1       -1.061  -1.458   4.873  0.00  0.00    +0.380 HD
ENDBRANCH  11  13
ENDBRANCH  10  11
ENDBRANCH   6  10
ENDBRANCH   1   2
BRANCH   1  16
ATOM     15  C   LIG    1       -0.082   1.830  -2.952  0.00  0.00    +0.040 C 
ATOM     16  C   LIG    1        0.974   1.665  -1.858  0.00  0.00    -0.020 C 
ATOM     17  C   LIG    1        2.245   2.418  -2.259  0.00  0.00    +0.040 C 
ENDBRANCH   1  16
BRANCH   1  18
ATOM     18  O   LIG    1        0.029   3.588  -0.740  0.00  0.00    -0.270 OA
BRANCH  18  19
ATOM     19  C   LIG    1        0.916   4.556  -0.396  0.00  0.00    +0.180 A 
ATOM     20  C   LIG    1        2.160   4.213   0.110  0.00  0.00    -0.080 A 
ATOM     21  C   LIG    1        3.064   5.199   0.454  0.00  0.00    +0.090 A 
ATOM     22  C   LIG    1        2.731   6.535   0.309  0.00  0.00    -0.020 A 
ATOM     23  C   LIG    1        1.496   6.895  -0.187  0.00  0.00    +0.110 A 
ATOM     24  C   LIG    1        0.575   5.908  -0.545  0.00  0.00    -0.060 A 
BRANCH  24  25
ATOM     25  C   LIG    1       -0.709   6.274  -1.061  0.00  0.00    +0.260 C 
ATOM     26  N   LIG    1       -1.728   6.565  -1.470  0.00  0.00    -0.410 NA
ENDBRANCH  24  25
ENDBRANCH  18  19
ENDBRANCH   1  18
TORSDOF 8
