REMARK  Name = ZINCrg000000rQDm.0
REMARK                            x       y       z     vdW  Elec       q    Type
REMARK                         _______ _______ _______ _____ _____    ______ ____
ROOT
ATOM      1  N   LIG    1        0.095  -4.176  -0.042  0.00  0.00    -0.670 N 
ATOM      2  H   LIG    1        0.761  -4.643  -0.571  0.00  0.00    +0.420 HD
ATOM      3  C   LIG    1       -0.806  -4.874   0.677  0.00  0.00    +0.500 C 
ATOM      4  O   LIG    1       -1.696  -4.294   1.261  0.00  0.00    -0.500 OA
ENDROOT
BRANCH   1  11
ATOM      5  C   LIG    1       -0.691   3.449   1.018  0.00  0.00    +0.100 C 
ATOM      6  C   LIG    1       -1.009   1.964   0.838  0.00  0.00    +0.190 C 
ATOM      7  O   LIG    1       -0.003   1.357   0.023  0.00  0.00    -0.300 OA
ATOM      8  C   LIG    1        0.025  -0.004  -0.003  0.00  0.00    +0.070 A 
ATOM      9  C   LIG    1        0.410  -0.679  -1.147  0.00  0.00    +0.070 A 
ATOM     10  C   LIG    1        0.434  -2.061  -1.159  0.00  0.00    +0.010 A 
ATOM     11  C   LIG    1        0.071  -2.775  -0.025  0.00  0.00    +0.160 A 
ATOM     12  C   LIG    1       -0.317  -2.102   1.127  0.00  0.00    +0.020 A 
ATOM     13  C   LIG    1       -0.339  -0.718   1.138  0.00  0.00    +0.110 A 
ATOM     14  N   LIG    1       -0.726  -0.019   2.291  0.00  0.00    -0.660 N 
ATOM     15  H   LIG    1       -0.767  -0.469   3.149  0.00  0.00    +0.420 HD
ATOM     16  C   LIG    1       -1.042   1.291   2.187  0.00  0.00    +0.490 C 
ATOM     17  O   LIG    1       -1.350   1.923   3.175  0.00  0.00    -0.500 OA
ENDBRANCH   1  11
BRANCH   3  18
ATOM     18  C   LIG    1       -0.707  -6.376   0.754  0.00  0.00    +0.360 C 
BRANCH  18  19
ATOM     19  N   LIG    1       -1.793  -6.895   1.589  0.00  0.00    -0.560 N 
ATOM     20  C   LIG    1       -2.996  -7.250   1.122  0.00  0.00    +0.710 C 
ATOM     21  N   LIG    1       -3.813  -7.695   2.093  0.00  0.00    -0.710 N 
ATOM     22  H   LIG    1       -4.726  -8.004   1.986  0.00  0.00    +0.440 HD
ATOM     23  C   LIG    1       -3.051  -7.622   3.352  0.00  0.00    +0.160 C 
ATOM     24  C   LIG    1       -2.894  -9.014   3.967  0.00  0.00    +0.090 C 
ATOM     25  O   LIG    1       -3.314  -7.178  -0.049  0.00  0.00    -0.540 OA
ATOM     26  C   LIG    1       -1.703  -7.078   2.921  0.00  0.00    +0.540 C 
ATOM     27  O   LIG    1       -0.744  -6.854   3.628  0.00  0.00    -0.450 OA
BRANCH  23  28
ATOM     28  C   LIG    1       -3.732  -6.672   4.339  0.00  0.00    -0.040 C 
ATOM     29  C   LIG    1       -3.862  -7.137   5.791  0.00  0.00    +0.050 C 
ATOM     30  C   LIG    1       -5.098  -7.086   4.890  0.00  0.00    +0.040 C 
ENDBRANCH  23  28
ENDBRANCH  18  19
ENDBRANCH   3  18
TORSDOF 4
