REMARK  Name = ZINCrg000000tdF6.0
REMARK                            x       y       z     vdW  Elec       q    Type
REMARK                         _______ _______ _______ _____ _____    ______ ____
ROOT
ATOM      1  C   LIG    1       -1.330   1.944   0.019  0.00  0.00    -0.010 C 
ATOM      2  C   LIG    1       -2.480   0.935   0.017  0.00  0.00    +0.060 C 
ATOM      3  C   LIG    1       -3.815   1.680   0.061  0.00  0.00    +0.020 C 
ATOM      4  C   LIG    1       -3.944   2.562  -1.185  0.00  0.00    +0.270 C 
ATOM      5  N   LIG    1       -2.767   3.437  -1.269  0.00  0.00    -0.610 N 
ATOM      6  C   LIG    1       -2.911   4.772  -1.382  0.00  0.00    +0.520 C 
ATOM      7  O   LIG    1       -1.931   5.484  -1.450  0.00  0.00    -0.530 OA
ATOM      8  C   LIG    1       -1.430   2.830  -1.227  0.00  0.00    +0.300 C 
ENDROOT
BRANCH   1  11
ATOM      9  N   LIG    1        1.143   1.898   0.001  0.00  0.00    -0.720 N 
ATOM     10  H   LIG    1        1.130   2.868   0.007  0.00  0.00    +0.410 HD
ATOM     11  C   LIG    1       -0.014   1.209   0.009  0.00  0.00    +0.530 C 
ATOM     12  O   LIG    1        0.002  -0.004   0.002  0.00  0.00    -0.530 OA
BRANCH   9  13
ATOM     13  C   LIG    1        2.422   1.183  -0.015  0.00  0.00    +0.300 C 
BRANCH  13  15
ATOM     14  O   LIG    1        3.316   3.367  -0.011  0.00  0.00    -0.530 OA
ATOM     15  C   LIG    1        3.554   2.178  -0.020  0.00  0.00    +0.510 C 
ATOM     16  N   LIG    1        4.831   1.746  -0.035  0.00  0.00    -0.700 N 
ATOM     17  H   LIG    1        5.021   0.795  -0.042  0.00  0.00    +0.410 HD
BRANCH  16  18
ATOM     18  C   LIG    1        5.931   2.713  -0.040  0.00  0.00    +0.210 C 
ATOM     19  C   LIG    1        7.100   2.448  -0.991  0.00  0.00    +0.010 C 
ATOM     20  C   LIG    1        7.280   2.252   0.516  0.00  0.00    +0.020 C 
ENDBRANCH  16  18
ENDBRANCH  13  15
ENDBRANCH   9  13
ENDBRANCH   1  11
BRANCH   6  21
ATOM     21  C   LIG    1       -4.289   5.381  -1.423  0.00  0.00    +0.080 C 
BRANCH  21  22
ATOM     22  C   LIG    1       -4.171   6.901  -1.554  0.00  0.00    +0.210 C 
BRANCH  22  23
ATOM     23  O   LIG    1       -5.478   7.478  -1.593  0.00  0.00    -0.320 OA
BRANCH  23  24
ATOM     24  C   LIG    1       -5.552   8.830  -1.708  0.00  0.00    +0.130 A 
ATOM     25  C   LIG    1       -4.391   9.587  -1.776  0.00  0.00    -0.080 A 
ATOM     26  C   LIG    1       -4.469  10.960  -1.899  0.00  0.00    +0.050 A 
ATOM     27  C   LIG    1       -5.702  11.583  -1.942  0.00  0.00    -0.040 A 
ATOM     28  C   LIG    1       -6.861  10.832  -1.869  0.00  0.00    +0.050 A 
ATOM     29  C   LIG    1       -6.789   9.457  -1.752  0.00  0.00    -0.020 A 
ENDBRANCH  23  24
ENDBRANCH  22  23
ENDBRANCH  21  22
ENDBRANCH   6  21
TORSDOF 8
