REMARK  Name = ZINCb70000001NVj.0
REMARK                            x       y       z     vdW  Elec       q    Type
REMARK                         _______ _______ _______ _____ _____    ______ ____
ROOT
ATOM      1  C   LIG    1       -1.331   2.079   0.020  0.00  0.00    +0.180 C 
ATOM      2  C   LIG    1       -1.911   2.167  -1.409  0.00  0.00    +0.100 C 
ATOM      3  C   LIG    1       -2.562   3.562  -1.492  0.00  0.00    -0.080 C 
ATOM      4  C   LIG    1       -2.322   4.201  -0.108  0.00  0.00    +0.280 C 
ATOM      5  C   LIG    1       -4.062   3.433  -1.765  0.00  0.00    +0.080 C 
ATOM      6  C   LIG    1       -1.892   4.397  -2.586  0.00  0.00    +0.060 C 
ATOM      7  N   LIG    1       -1.131   3.492   0.432  0.00  0.00    -0.500 N 
ATOM      8  H   LIG    1       -0.286   3.863   0.025  0.00  0.00    +0.440 HD
ATOM      9  H   LIG    1       -1.101   3.565   1.438  0.00  0.00    +0.440 HD
ENDROOT
BRANCH   1  13
ATOM     10  C   LIG    1        1.281  -0.719  -0.014  0.00  0.00    +0.310 C 
ATOM     11  N   LIG    1        0.002  -0.004   0.002  0.00  0.00    -0.700 N 
ATOM     12  H   LIG    1       -0.831  -0.500   0.007  0.00  0.00    +0.410 HD
ATOM     13  C   LIG    1       -0.016   1.344   0.009  0.00  0.00    +0.500 C 
ATOM     14  O   LIG    1        1.026   1.964   0.003  0.00  0.00    -0.520 OA
ENDBRANCH   1  13
TORSDOF 1
