REMARK  Name = ZINCrD000000B0Dq.0
REMARK                            x       y       z     vdW  Elec       q    Type
REMARK                         _______ _______ _______ _____ _____    ______ ____
ROOT
ATOM      1  C   LIG    1        2.372  -4.181  -0.042  0.00  0.00    +0.290 C 
ENDROOT
BRANCH   1   4
ATOM      2  O   LIG    1        1.782  -6.731  -0.689  0.00  0.00    -0.530 OA
ATOM      3  C   LIG    1        1.474  -5.900  -1.517  0.00  0.00    +0.520 C 
ATOM      4  N   LIG    1        1.726  -4.596  -1.290  0.00  0.00    -0.730 N 
ATOM      5  H   LIG    1        1.479  -3.932  -1.952  0.00  0.00    +0.400 HD
BRANCH   3   6
ATOM      6  C   LIG    1        0.809  -6.327  -2.800  0.00  0.00    +0.000 C 
ATOM      7  C   LIG    1        0.641  -7.848  -2.805  0.00  0.00    +0.050 C 
ATOM      8  C   LIG    1       -0.287  -8.262  -3.954  0.00  0.00    +0.110 C 
ATOM      9  C   LIG    1        0.211  -7.610  -5.221  0.00  0.00    -0.240 A 
ATOM     10  C   LIG    1       -0.095  -7.920  -6.494  0.00  0.00    +0.240 A 
ATOM     11  N   LIG    1        0.587  -7.071  -7.296  0.00  0.00    -0.480 N 
ATOM     12  H   LIG    1        0.562  -7.059  -8.266  0.00  0.00    +0.440 HD
ATOM     13  N   LIG    1        1.337  -6.211  -6.479  0.00  0.00    -0.280 NA
ATOM     14  C   LIG    1        1.111  -6.531  -5.239  0.00  0.00    +0.080 A 
ATOM     15  C   LIG    1        1.676  -5.897  -3.991  0.00  0.00    +0.150 C 
ENDBRANCH   3   6
ENDBRANCH   1   4
BRANCH   1  16
ATOM     16  C   LIG    1        2.541  -2.660  -0.036  0.00  0.00    +0.190 C 
BRANCH  16  17
ATOM     17  O   LIG    1        1.254  -2.038  -0.020  0.00  0.00    -0.300 OA
BRANCH  17  18
ATOM     18  C   LIG    1        1.226  -0.680  -0.013  0.00  0.00    +0.140 A 
ATOM     19  C   LIG    1        2.409   0.040  -0.021  0.00  0.00    -0.080 A 
ATOM     20  C   LIG    1        2.379   1.422  -0.013  0.00  0.00    +0.050 A 
ATOM     21  C   LIG    1        1.170   2.093   0.002  0.00  0.00    -0.020 A 
ATOM     22  C   LIG    1       -0.017   1.388   0.010  0.00  0.00    +0.060 A 
ATOM     23  C   LIG    1        0.002  -0.004   0.002  0.00  0.00    -0.080 A 
BRANCH  23  24
ATOM     24  C   LIG    1       -1.270  -0.766   0.011  0.00  0.00    -0.040 A 
ATOM     25  C   LIG    1       -1.484  -1.782  -0.920  0.00  0.00    +0.030 A 
ATOM     26  C   LIG    1       -2.667  -2.491  -0.904  0.00  0.00    +0.000 A 
ATOM     27  C   LIG    1       -3.645  -2.189   0.026  0.00  0.00    +0.000 A 
ATOM     28  C   LIG    1       -3.441  -1.179   0.949  0.00  0.00    +0.000 A 
ATOM     29  C   LIG    1       -2.259  -0.466   0.946  0.00  0.00    +0.010 A 
ENDBRANCH  23  24
ENDBRANCH  17  18
ENDBRANCH  16  17
ENDBRANCH   1  16
TORSDOF 6
