REMARK  Name = ZINCvU0000000Azp.0
REMARK                            x       y       z     vdW  Elec       q    Type
REMARK                         _______ _______ _______ _____ _____    ______ ____
ROOT
ATOM      1  C   LIG    1        1.173   2.088   0.002  0.00  0.00    +0.110 A 
ATOM      2  C   LIG    1       -0.017   1.375   0.010  0.00  0.00    -0.040 A 
ATOM      3  C   LIG    1        0.002  -0.004   0.002  0.00  0.00    +0.030 A 
ATOM      4  C   LIG    1        1.222  -0.686  -0.013  0.00  0.00    -0.070 A 
ATOM      5  C   LIG    1        2.421   0.034  -0.021  0.00  0.00    -0.010 A 
ATOM      6  C   LIG    1        2.394   1.415  -0.013  0.00  0.00    +0.100 A 
ENDROOT
BRANCH   1   8
ATOM      7  C   LIG    1       -0.136   4.072   0.025  0.00  0.00    +0.240 C 
ATOM      8  O   LIG    1        1.149   3.447   0.010  0.00  0.00    -0.300 OA
ENDBRANCH   1   8
BRANCH   4   9
ATOM      9  C   LIG    1        1.245  -2.158  -0.021  0.00  0.00    +0.130 C 
ATOM     10  C   LIG    1        0.091  -2.849  -0.013  0.00  0.00    -0.020 C 
BRANCH  10  11
ATOM     11  C   LIG    1        0.114  -4.320  -0.021  0.00  0.00    +0.220 A 
ATOM     12  N   LIG    1        1.277  -4.949  -0.041  0.00  0.00    -0.460 NA
ATOM     13  C   LIG    1        1.342  -6.283  -0.044  0.00  0.00    +0.180 A 
ATOM     14  C   LIG    1        2.583  -6.946  -0.060  0.00  0.00    -0.040 A 
ATOM     15  C   LIG    1        2.622  -8.306  -0.067  0.00  0.00    +0.150 A 
ATOM     16  C   LIG    1        1.449  -9.058  -0.060  0.00  0.00    +0.010 A 
ATOM     17  C   LIG    1        0.229  -8.451  -0.045  0.00  0.00    +0.120 A 
ATOM     18  C   LIG    1        0.151  -7.051  -0.036  0.00  0.00    -0.120 A 
ATOM     19  C   LIG    1       -1.095  -6.389  -0.020  0.00  0.00    +0.110 A 
ATOM     20  C   LIG    1       -1.103  -5.028  -0.013  0.00  0.00    -0.010 A 
BRANCH  14  21
ATOM     21  N   LIG    1        3.841  -6.166  -0.068  0.00  0.00    +0.030 N 
ATOM     22  O   LIG    1        3.804  -4.949  -0.062  0.00  0.00    -0.110 OA
ATOM     23  O   LIG    1        4.914  -6.743  -0.082  0.00  0.00    -0.190 OA
ENDBRANCH  14  21
ENDBRANCH  10  11
ENDBRANCH   4   9
BRANCH   6  24
ATOM     24  O   LIG    1        3.558   2.118  -0.020  0.00  0.00    -0.300 OA
BRANCH  24  25
ATOM     25  C   LIG    1        4.771   1.364  -0.035  0.00  0.00    +0.240 C 
BRANCH  25  26
ATOM     26  C   LIG    1        5.948   2.305  -0.041  0.00  0.00    -0.100 A 
ATOM     27  C   LIG    1        6.480   2.739  -1.241  0.00  0.00    +0.030 A 
ATOM     28  C   LIG    1        7.557   3.606  -1.246  0.00  0.00    +0.010 A 
ATOM     29  C   LIG    1        8.107   4.032  -0.052  0.00  0.00    +0.010 A 
ATOM     30  C   LIG    1        7.579   3.594   1.148  0.00  0.00    +0.010 A 
ATOM     31  C   LIG    1        6.499   2.731   1.153  0.00  0.00    +0.030 A 
ENDBRANCH  25  26
ENDBRANCH  24  25
ENDBRANCH   6  24
TORSDOF 7
