REMARK  Name = ZINCrg00000bgVlc.1
REMARK                            x       y       z     vdW  Elec       q    Type
REMARK                         _______ _______ _______ _____ _____    ______ ____
ROOT
ATOM      1  C   LIG    1        1.065   2.117   2.791  0.00  0.00    +0.030 C 
ATOM      2  C   LIG    1        0.152   2.204   1.566  0.00  0.00    +0.000 C 
ATOM      3  C   LIG    1        0.916   1.735   0.326  0.00  0.00    +0.020 C 
ATOM      4  C   LIG    1       -0.011   1.791  -0.892  0.00  0.00    +0.300 C 
ATOM      5  N   LIG    1       -0.566   3.147  -1.002  0.00  0.00    -0.590 N 
ATOM      6  C   LIG    1       -1.243   3.730   0.164  0.00  0.00    +0.290 C 
ATOM      7  C   LIG    1       -0.456   3.843  -2.151  0.00  0.00    +0.580 C 
ATOM      8  O   LIG    1       -0.928   4.960  -2.233  0.00  0.00    -0.520 OA
ATOM      9  C   LIG    1       -0.302   3.652   1.370  0.00  0.00    -0.020 C 
ENDROOT
BRANCH   7  10
ATOM     10  C   LIG    1        0.242   3.247  -3.314  0.00  0.00    +0.030 A 
ATOM     11  C   LIG    1        0.774   4.069  -4.310  0.00  0.00    +0.090 A 
ATOM     12  C   LIG    1        1.419   3.460  -5.379  0.00  0.00    +0.040 A 
ATOM     13  C   LIG    1        1.494   2.077  -5.393  0.00  0.00    +0.240 A 
ATOM     14  N   LIG    1        0.961   1.375  -4.408  0.00  0.00    -0.240 NA
ATOM     15  N   LIG    1        0.369   1.929  -3.413  0.00  0.00    -0.210 NA
ENDBRANCH   7  10
BRANCH   9  16
ATOM     16  C   LIG    1       -1.038   4.131   2.623  0.00  0.00    +0.290 C 
BRANCH  16  17
ATOM     17  N   LIG    1       -1.370   5.551   2.482  0.00  0.00    -0.700 N 
ATOM     18  H   LIG    1       -1.119   6.030   1.677  0.00  0.00    +0.420 HD
ATOM     19  C   LIG    1       -2.024   6.192   3.471  0.00  0.00    +0.610 C 
ATOM     20  O   LIG    1       -2.339   5.592   4.480  0.00  0.00    -0.530 OA
BRANCH  19  21
ATOM     21  C   LIG    1       -2.358   7.621   3.329  0.00  0.00    +0.120 A 
ATOM     22  N   LIG    1       -2.081   8.391   2.298  0.00  0.00    -0.230 NA
ATOM     23  N   LIG    1       -2.522   9.579   2.520  0.00  0.00    -0.280 NA
ATOM     24  C   LIG    1       -3.099   9.629   3.696  0.00  0.00    +0.240 A 
ATOM     25  N   LIG    1       -3.021   8.399   4.242  0.00  0.00    -0.540 N 
ATOM     26  H   LIG    1       -3.363   8.122   5.106  0.00  0.00    +0.440 HD
BRANCH  24  27
ATOM     27  C   LIG    1       -3.740  10.841   4.321  0.00  0.00    +0.060 C 
ATOM     28  C   LIG    1       -4.678  10.611   5.508  0.00  0.00    +0.040 C 
ATOM     29  C   LIG    1       -5.250  11.012   4.145  0.00  0.00    +0.060 C 
ENDBRANCH  24  27
ENDBRANCH  19  21
ENDBRANCH  16  17
ENDBRANCH   9  16
TORSDOF 5
