REMARK  Name = ZINCrg00000bgVlc.0
REMARK                            x       y       z     vdW  Elec       q    Type
REMARK                         _______ _______ _______ _____ _____    ______ ____
ROOT
ATOM      1  C   LIG    1        1.321   2.938   0.698  0.00  0.00    +0.030 C 
ATOM      2  C   LIG    1        0.078   2.092   0.411  0.00  0.00    +0.000 C 
ATOM      3  C   LIG    1       -0.650   2.655  -0.812  0.00  0.00    +0.020 C 
ATOM      4  C   LIG    1       -1.874   1.786  -1.117  0.00  0.00    +0.290 C 
ATOM      5  N   LIG    1       -2.704   1.698   0.092  0.00  0.00    -0.590 N 
ATOM      6  C   LIG    1       -2.081   1.254   1.346  0.00  0.00    +0.290 C 
ATOM      7  C   LIG    1       -4.013   2.018   0.051  0.00  0.00    +0.580 C 
ATOM      8  O   LIG    1       -4.691   1.933   1.056  0.00  0.00    -0.520 OA
ATOM      9  C   LIG    1       -0.855   2.129   1.624  0.00  0.00    -0.020 C 
ENDROOT
BRANCH   7  10
ATOM     10  C   LIG    1       -4.625   2.474  -1.219  0.00  0.00    +0.020 A 
ATOM     11  C   LIG    1       -5.805   3.220  -1.202  0.00  0.00    +0.090 A 
ATOM     12  C   LIG    1       -6.334   3.627  -2.420  0.00  0.00    +0.040 A 
ATOM     13  C   LIG    1       -5.667   3.259  -3.576  0.00  0.00    +0.240 A 
ATOM     14  N   LIG    1       -4.557   2.545  -3.502  0.00  0.00    -0.240 NA
ATOM     15  N   LIG    1       -4.057   2.169  -2.381  0.00  0.00    -0.210 NA
ENDBRANCH   7  10
BRANCH   9  16
ATOM     16  C   LIG    1       -0.116   1.597   2.853  0.00  0.00    +0.290 C 
BRANCH  16  17
ATOM     17  N   LIG    1       -0.967   1.742   4.036  0.00  0.00    -0.700 N 
ATOM     18  H   LIG    1       -1.852   2.130   3.952  0.00  0.00    +0.420 HD
ATOM     19  C   LIG    1       -0.521   1.337   5.242  0.00  0.00    +0.610 C 
ATOM     20  O   LIG    1        0.589   0.852   5.347  0.00  0.00    -0.530 OA
BRANCH  19  21
ATOM     21  C   LIG    1       -1.380   1.484   6.435  0.00  0.00    +0.170 A 
ATOM     22  N   LIG    1       -2.597   1.997   6.468  0.00  0.00    -0.460 NA
ATOM     23  C   LIG    1       -3.017   1.942   7.728  0.00  0.00    +0.230 A 
ATOM     24  N   LIG    1       -2.068   1.411   8.458  0.00  0.00    -0.290 NA
ATOM     25  N   LIG    1       -1.065   1.125   7.700  0.00  0.00    -0.360 N 
ATOM     26  H   LIG    1       -0.231   0.723   7.987  0.00  0.00    +0.460 HD
BRANCH  23  27
ATOM     27  C   LIG    1       -4.355   2.416   8.233  0.00  0.00    +0.060 C 
ATOM     28  C   LIG    1       -4.564   2.459   9.748  0.00  0.00    +0.050 C 
ATOM     29  C   LIG    1       -5.260   1.384   8.909  0.00  0.00    +0.050 C 
ENDBRANCH  23  27
ENDBRANCH  19  21
ENDBRANCH  16  17
ENDBRANCH   9  16
TORSDOF 5
