REMARK  Name = ZINCrH000004tR5A.0
REMARK                            x       y       z     vdW  Elec       q    Type
REMARK                         _______ _______ _______ _____ _____    ______ ____
ROOT
ATOM      1  C   LIG    1       -2.969  -2.285  -0.072  0.00  0.00    +0.200 A 
ATOM      2  C   LIG    1       -3.998  -1.356  -0.147  0.00  0.00    -0.020 A 
ATOM      3  C   LIG    1       -5.309  -1.785  -0.230  0.00  0.00    +0.140 A 
ATOM      4  C   LIG    1       -5.596  -3.137  -0.229  0.00  0.00    -0.690 A 
ATOM      5  C   LIG    1       -4.574  -4.065  -0.149  0.00  0.00    +0.140 A 
ATOM      6  C   LIG    1       -3.261  -3.643  -0.071  0.00  0.00    +0.010 A 
ENDROOT
BRANCH   1   9
ATOM      7  O   LIG    1       -0.924  -3.622  -1.126  0.00  0.00    -0.490 OA
ATOM      8  C   LIG    1       -0.664  -2.565  -0.591  0.00  0.00    +0.540 C 
ATOM      9  N   LIG    1       -1.640  -1.854   0.008  0.00  0.00    -0.670 N 
ATOM     10  H   LIG    1       -1.421  -1.043   0.494  0.00  0.00    +0.420 HD
BRANCH   8  11
ATOM     11  C   LIG    1        0.751  -2.047  -0.594  0.00  0.00    +0.100 C 
BRANCH  11  12
ATOM     12  S   LIG    1        1.823  -3.221  -1.470  0.00  0.00    -0.010 S 
BRANCH  12  13
ATOM     13  C   LIG    1        3.408  -2.459  -1.372  0.00  0.00    -0.120 A 
ATOM     14  C   LIG    1        3.555  -1.237  -0.727  0.00  0.00    +0.020 A 
ATOM     15  C   LIG    1        4.800  -0.645  -0.646  0.00  0.00    +0.010 A 
ATOM     16  C   LIG    1        5.900  -1.262  -1.218  0.00  0.00    +0.100 A 
ATOM     17  C   LIG    1        5.755  -2.477  -1.866  0.00  0.00    +0.010 A 
ATOM     18  F   LIG    1        7.115  -0.678  -1.143  0.00  0.00    -0.140 F 
ATOM     19  C   LIG    1        4.513  -3.076  -1.944  0.00  0.00    +0.070 A 
ENDBRANCH  12  13
ENDBRANCH  11  12
ENDBRANCH   8  11
ENDBRANCH   1   9
BRANCH   4  20
ATOM     20  S   LIG    1       -7.270  -3.680  -0.329  0.00  0.00    +2.690 S 
ATOM     21  O   LIG    1       -7.233  -5.000  -0.853  0.00  0.00    -0.950 OA
ATOM     22  O   LIG    1       -7.999  -2.623  -0.937  0.00  0.00    -0.950 OA
BRANCH  20  23
ATOM     23  N   LIG    1       -7.837  -3.808   1.222  0.00  0.00    -1.000 NA
ATOM     24  C   LIG    1       -7.712  -5.071   1.963  0.00  0.00    +0.290 C 
ATOM     25  C   LIG    1       -7.014  -4.784   3.301  0.00  0.00    +0.010 C 
ATOM     26  C   LIG    1       -7.784  -3.691   4.047  0.00  0.00    +0.010 C 
ATOM     27  C   LIG    1       -7.780  -2.405   3.217  0.00  0.00    +0.010 C 
ATOM     28  C   LIG    1       -8.481  -2.663   1.880  0.00  0.00    +0.290 C 
ENDBRANCH  20  23
ENDBRANCH   4  20
TORSDOF 6
