REMARK  Name = ZINCrD0000075Ben.0
REMARK                            x       y       z     vdW  Elec       q    Type
REMARK                         _______ _______ _______ _____ _____    ______ ____
ROOT
ATOM      1  O   LIG    1        0.649   4.138   0.018  0.00  0.00    -0.520 OA
ATOM      2  C   LIG    1        1.584   3.361   0.005  0.00  0.00    +0.570 C 
ATOM      3  N   LIG    1        1.356   2.033   0.000  0.00  0.00    -0.720 N 
ATOM      4  H   LIG    1        2.102   1.413  -0.010  0.00  0.00    +0.400 HD
ENDROOT
BRANCH   2   5
ATOM      5  C   LIG    1        2.970   3.873  -0.005  0.00  0.00    -0.120 A 
ATOM      6  C   LIG    1        3.200   5.239  -0.000  0.00  0.00    +0.120 A 
ATOM      7  C   LIG    1        4.518   5.716  -0.010  0.00  0.00    -0.090 A 
ATOM      8  C   LIG    1        4.794   7.098  -0.006  0.00  0.00    +0.100 A 
ATOM      9  C   LIG    1        6.101   7.494  -0.017  0.00  0.00    -0.020 A 
ATOM     10  C   LIG    1        7.116   6.540  -0.032  0.00  0.00    +0.320 A 
ATOM     11  N   LIG    1        6.855   5.255  -0.036  0.00  0.00    -0.470 NA
ATOM     12  C   LIG    1        5.599   4.799  -0.026  0.00  0.00    +0.110 A 
ATOM     13  C   LIG    1        5.332   3.415  -0.030  0.00  0.00    +0.130 A 
ATOM     14  F   LIG    1        6.353   2.531  -0.045  0.00  0.00    -0.120 F 
ATOM     15  C   LIG    1        4.048   2.970  -0.015  0.00  0.00    +0.030 A 
ENDBRANCH   2   5
BRANCH   3  16
ATOM     16  C   LIG    1       -0.019   1.526   0.010  0.00  0.00    +0.290 C 
BRANCH  16  17
ATOM     17  C   LIG    1        0.002  -0.004   0.002  0.00  0.00    +0.190 C 
BRANCH  17  18
ATOM     18  C   LIG    1       -1.412  -0.526   0.013  0.00  0.00    +0.160 A 
ATOM     19  N   LIG    1       -2.144  -0.787  -1.034  0.00  0.00    -0.270 NA
ATOM     20  N   LIG    1       -3.297  -1.216  -0.656  0.00  0.00    -0.270 NA
ATOM     21  C   LIG    1       -3.340  -1.243   0.655  0.00  0.00    +0.220 A 
ATOM     22  O   LIG    1       -2.144  -0.811   1.103  0.00  0.00    -0.220 OA
BRANCH  21  23
ATOM     23  C   LIG    1       -4.485  -1.673   1.486  0.00  0.00    -0.030 A 
ATOM     24  C   LIG    1       -4.386  -1.655   2.878  0.00  0.00    +0.050 A 
ATOM     25  C   LIG    1       -5.460  -2.053   3.647  0.00  0.00    +0.010 A 
ATOM     26  C   LIG    1       -6.629  -2.479   3.042  0.00  0.00    +0.040 A 
ATOM     27  C   LIG    1       -6.731  -2.504   1.663  0.00  0.00    +0.020 A 
ATOM     28  C   LIG    1       -5.667  -2.104   0.881  0.00  0.00    +0.080 A 
ENDBRANCH  21  23
ENDBRANCH  17  18
ENDBRANCH  16  17
ENDBRANCH   3  16
TORSDOF 5
