REMARK  Name = ZINCpk00000xPz8q.0
REMARK                            x       y       z     vdW  Elec       q    Type
REMARK                         _______ _______ _______ _____ _____    ______ ____
ROOT
ATOM      1  C   LIG    1       -0.222  -3.089  -1.600  0.00  0.00    +0.150 C 
ATOM      2  C   LIG    1       -1.502  -3.922  -1.709  0.00  0.00    +0.180 C 
ATOM      3  N   LIG    1       -1.841  -4.106  -3.127  0.00  0.00    -0.530 NA
ATOM      4  C   LIG    1       -2.027  -2.808  -3.791  0.00  0.00    +0.150 C 
ATOM      5  C   LIG    1       -0.742  -1.986  -3.661  0.00  0.00    +0.230 C 
ATOM      6  O   LIG    1       -0.411  -1.844  -2.277  0.00  0.00    -0.370 OA
ENDROOT
BRANCH   1   7
ATOM      7  C   LIG    1        0.092  -2.826  -0.126  0.00  0.00    +0.320 C 
BRANCH   7   9
ATOM      8  C   LIG    1        2.618  -2.694   0.073  0.00  0.00    +0.290 C 
ATOM      9  N   LIG    1        1.316  -2.028  -0.022  0.00  0.00    -0.600 N 
BRANCH   9  10
ATOM     10  C   LIG    1        1.243  -0.640  -0.013  0.00  0.00    +0.350 A 
ATOM     11  C   LIG    1        0.002  -0.004   0.002  0.00  0.00    -0.020 A 
ATOM     12  C   LIG    1       -0.017   1.382   0.010  0.00  0.00    +0.070 A 
ATOM     13  C   LIG    1        1.199   2.051   0.002  0.00  0.00    +0.150 A 
ATOM     14  N   LIG    1        2.327   1.369  -0.013  0.00  0.00    -0.210 NA
ATOM     15  N   LIG    1        2.352   0.086  -0.020  0.00  0.00    -0.310 NA
ENDBRANCH   9  10
ENDBRANCH   7   9
ENDBRANCH   1   7
BRANCH   3  16
ATOM     16  C   LIG    1       -3.034  -4.950  -3.279  0.00  0.00    +0.350 C 
BRANCH  16  17
ATOM     17  C   LIG    1       -3.494  -4.917  -4.713  0.00  0.00    +0.160 A 
ATOM     18  N   LIG    1       -3.119  -5.726  -5.662  0.00  0.00    -0.260 NA
ATOM     19  N   LIG    1       -3.713  -5.405  -6.757  0.00  0.00    -0.280 NA
ATOM     20  C   LIG    1       -4.488  -4.380  -6.544  0.00  0.00    +0.180 A 
ATOM     21  O   LIG    1       -4.372  -4.051  -5.246  0.00  0.00    -0.230 OA
BRANCH  20  22
ATOM     22  C   LIG    1       -5.360  -3.693  -7.564  0.00  0.00    +0.090 C 
ATOM     23  C   LIG    1       -6.042  -4.662  -8.543  0.00  0.00    +0.060 C 
ATOM     24  C   LIG    1       -5.747  -3.629  -9.646  0.00  0.00    +0.030 C 
ATOM     25  C   LIG    1       -4.580  -3.144  -8.770  0.00  0.00    +0.050 C 
ENDBRANCH  20  22
ENDBRANCH  16  17
ENDBRANCH   3  16
TORSDOF 6
