REMARK  Name = ZINCqH0000005ZSO.0
REMARK                            x       y       z     vdW  Elec       q    Type
REMARK                         _______ _______ _______ _____ _____    ______ ____
ROOT
ATOM      1  C   LIG    1        1.160   6.141   0.212  0.00  0.00    +0.030 A 
ATOM      2  C   LIG    1       -0.050   6.821   0.044  0.00  0.00    +0.030 A 
ATOM      3  C   LIG    1       -0.053   8.191  -0.122  0.00  0.00    +0.040 A 
ATOM      4  C   LIG    1        1.137   8.893  -0.134  0.00  0.00    +0.000 A 
ATOM      5  C   LIG    1        2.346   8.226   0.027  0.00  0.00    +0.140 A 
ATOM      6  C   LIG    1        2.361   6.852   0.200  0.00  0.00    +0.050 A 
ENDROOT
BRANCH   5   7
ATOM      7  N   LIG    1        3.548   8.943   0.014  0.00  0.00    -0.670 N 
ATOM      8  H   LIG    1        3.578   9.845   0.370  0.00  0.00    +0.420 HD
ATOM      9  C   LIG    1        4.663   8.381  -0.491  0.00  0.00    +0.520 C 
ATOM     10  O   LIG    1        4.606   7.292  -1.022  0.00  0.00    -0.490 OA
BRANCH   9  11
ATOM     11  C   LIG    1        5.981   9.105  -0.397  0.00  0.00    +0.090 C 
BRANCH  11  12
ATOM     12  C   LIG    1        7.077   8.254  -1.043  0.00  0.00    +0.470 C 
ATOM     13  F   LIG    1        7.170   7.028  -0.375  0.00  0.00    -0.170 F 
ATOM     14  F   LIG    1        8.301   8.926  -0.955  0.00  0.00    -0.180 F 
ATOM     15  F   LIG    1        6.763   8.030  -2.387  0.00  0.00    -0.170 F 
ENDBRANCH  11  12
ENDBRANCH   9  11
ENDBRANCH   5   7
BRANCH   1  17
ATOM     16  C   LIG    1        1.173   3.555   0.537  0.00  0.00    -0.110 C 
ATOM     17  C   LIG    1        1.167   4.720   0.391  0.00  0.00    -0.100 C 
BRANCH  16  22
ATOM     18  C   LIG    1       -0.004   0.043   0.901  0.00  0.00    -0.120 A 
ATOM     19  C   LIG    1        1.213  -0.624   1.062  0.00  0.00    +0.090 A 
ATOM     20  C   LIG    1        2.399   0.085   1.049  0.00  0.00    +0.010 A 
ATOM     21  C   LIG    1        2.391   1.454   0.877  0.00  0.00    +0.080 A 
ATOM     22  C   LIG    1        1.179   2.134   0.715  0.00  0.00    +0.010 A 
ATOM     23  C   LIG    1       -0.021   1.425   0.727  0.00  0.00    +0.110 A 
BRANCH  18  24
ATOM     24  C   LIG    1       -1.272  -0.717   0.915  0.00  0.00    +0.510 C 
ATOM     25  O   LIG    1       -2.329  -0.137   0.776  0.00  0.00    -0.500 OA
BRANCH  24  27
ATOM     26  C   LIG    1       -2.536  -2.735   1.087  0.00  0.00    +0.290 C 
ATOM     27  O   LIG    1       -1.254  -2.054   1.083  0.00  0.00    -0.350 OA
ENDBRANCH  24  27
ENDBRANCH  18  24
ENDBRANCH  16  22
ENDBRANCH   1  17
TORSDOF 7
