REMARK  Name = ZINCrD00000F5Lmp.0
REMARK                            x       y       z     vdW  Elec       q    Type
REMARK                         _______ _______ _______ _____ _____    ______ ____
ROOT
ATOM      1  C   LIG    1        7.125   5.239   2.495  0.00  0.00    +0.030 C 
ATOM      2  C   LIG    1        7.787   3.975   1.942  0.00  0.00    +0.260 C 
ENDROOT
BRANCH   2   3
ATOM      3  N   LIG    1        9.079   4.322   1.345  0.00  0.00    -0.710 N 
ATOM      4  H   LIG    1        9.143   4.493   0.392  0.00  0.00    +0.400 HD
ATOM      5  C   LIG    1       10.179   4.403   2.120  0.00  0.00    +0.570 C 
ATOM      6  O   LIG    1       10.098   4.189   3.314  0.00  0.00    -0.510 OA
BRANCH   5   7
ATOM      7  C   LIG    1       11.480   4.752   1.519  0.00  0.00    -0.200 A 
ATOM      8  C   LIG    1       11.874   6.091   1.423  0.00  0.00    +0.160 A 
ATOM      9  C   LIG    1       13.098   6.409   0.864  0.00  0.00    -0.010 A 
ATOM     10  C   LIG    1       13.927   5.408   0.390  0.00  0.00    +0.110 A 
ATOM     11  C   LIG    1       13.543   4.082   0.476  0.00  0.00    -0.010 A 
ATOM     12  F   LIG    1       11.064   7.070   1.880  0.00  0.00    -0.120 F 
ATOM     13  C   LIG    1       12.325   3.746   1.037  0.00  0.00    +0.160 A 
ATOM     14  F   LIG    1       11.951   2.451   1.120  0.00  0.00    -0.120 F 
ENDBRANCH   5   7
ENDBRANCH   2   3
BRANCH   2  15
ATOM     15  C   LIG    1        6.884   3.352   0.875  0.00  0.00    -0.010 C 
ATOM     16  C   LIG    1        7.545   2.088   0.323  0.00  0.00    +0.060 C 
BRANCH  15  17
ATOM     17  C   LIG    1        5.554   2.995   1.489  0.00  0.00    +0.540 C 
ATOM     18  N   LIG    1        4.593   2.429   0.733  0.00  0.00    -0.620 N 
ATOM     19  C   LIG    1        4.708   2.103  -0.700  0.00  0.00    +0.260 C 
ATOM     20  C   LIG    1        3.247   2.075  -1.222  0.00  0.00    +0.040 C 
ATOM     21  C   LIG    1        2.499   1.455  -0.013  0.00  0.00    +0.100 C 
ATOM     22  C   LIG    1        3.257   2.032   1.201  0.00  0.00    +0.270 C 
ATOM     23  O   LIG    1        5.349   3.218   2.663  0.00  0.00    -0.520 OA
BRANCH  21  24
ATOM     24  C   LIG    1        1.057   1.892   0.002  0.00  0.00    -0.010 A 
ATOM     25  C   LIG    1       -0.013   1.076   0.008  0.00  0.00    -0.050 A 
ATOM     26  C   LIG    1       -1.159   1.903   0.017  0.00  0.00    -0.060 A 
ATOM     27  C   LIG    1       -0.722   3.175   0.026  0.00  0.00    +0.160 A 
ATOM     28  O   LIG    1        0.621   3.162   0.013  0.00  0.00    -0.170 OA
ENDBRANCH  21  24
ENDBRANCH  15  17
ENDBRANCH   2  15
TORSDOF 5
