REMARK  Name = ZINCqH0000037B79.0
REMARK                            x       y       z     vdW  Elec       q    Type
REMARK                         _______ _______ _______ _____ _____    ______ ____
ROOT
ATOM      1  N   LIG    1       -6.816   1.307   1.542  0.00  0.00    -0.660 N 
ATOM      2  H   LIG    1       -6.767   1.189   0.581  0.00  0.00    +0.420 HD
ATOM      3  C   LIG    1       -5.689   1.513   2.253  0.00  0.00    +0.610 C 
ATOM      4  O   LIG    1       -5.756   1.744   3.446  0.00  0.00    -0.480 OA
ENDROOT
BRANCH   1  12
ATOM      5  C   LIG    1      -12.896   0.207   3.681  0.00  0.00    +0.120 C 
ATOM      6  C   LIG    1      -11.799   1.129   4.145  0.00  0.00    +0.030 A 
ATOM      7  C   LIG    1      -11.982   1.950   5.212  0.00  0.00    -0.100 A 
ATOM      8  C   LIG    1      -10.940   2.804   5.627  0.00  0.00    +0.510 A 
ATOM      9  O   LIG    1       -9.757   2.832   4.994  0.00  0.00    -0.270 OA
ATOM     10  C   LIG    1       -9.509   2.043   3.926  0.00  0.00    +0.170 A 
ATOM     11  C   LIG    1       -8.282   2.085   3.284  0.00  0.00    +0.020 A 
ATOM     12  C   LIG    1       -8.050   1.264   2.189  0.00  0.00    +0.200 A 
ATOM     13  C   LIG    1       -9.043   0.401   1.727  0.00  0.00    -0.020 A 
ATOM     14  C   LIG    1      -10.255   0.345   2.353  0.00  0.00    +0.120 A 
ATOM     15  O   LIG    1      -11.117   3.535   6.585  0.00  0.00    -0.460 OA
ATOM     16  C   LIG    1      -10.506   1.166   3.458  0.00  0.00    -0.170 A 
ENDBRANCH   1  12
BRANCH   3  17
ATOM     17  C   LIG    1       -4.382   1.459   1.589  0.00  0.00    -0.120 A 
ATOM     18  C   LIG    1       -3.174   1.649   2.196  0.00  0.00    -0.010 A 
ATOM     19  C   LIG    1       -2.204   1.508   1.192  0.00  0.00    -0.290 A 
ATOM     20  C   LIG    1       -2.878   1.238   0.006  0.00  0.00    +0.100 A 
ATOM     21  C   LIG    1       -2.169   1.026  -1.307  0.00  0.00    +0.160 C 
ATOM     22  C   LIG    1       -0.768   1.641  -1.230  0.00  0.00    +0.070 C 
ATOM     23  C   LIG    1       -0.014   1.118  -0.003  0.00  0.00    +0.040 C 
ATOM     24  C   LIG    1       -0.737   1.600   1.247  0.00  0.00    +0.430 C 
ATOM     25  O   LIG    1       -0.146   2.028   2.216  0.00  0.00    -0.440 OA
ATOM     26  C   LIG    1       -2.931   1.950   3.653  0.00  0.00    +0.150 C 
ATOM     27  O   LIG    1       -4.177   1.213   0.275  0.00  0.00    -0.140 OA
ENDBRANCH   3  17
TORSDOF 2
