REMARK  Name = ZINCpk00000e8Wlg.2
REMARK                            x       y       z     vdW  Elec       q    Type
REMARK                         _______ _______ _______ _____ _____    ______ ____
ROOT
ATOM      1  C   LIG    1        1.221   2.059  -0.653  0.00  0.00    +0.130 C 
ATOM      2  C   LIG    1       -0.126   2.211  -1.403  0.00  0.00    +0.280 C 
ATOM      3  N   LIG    1       -0.656   3.497  -0.888  0.00  0.00    -0.620 N 
ATOM      4  C   LIG    1       -0.327   3.527   0.549  0.00  0.00    +0.270 C 
ATOM      5  C   LIG    1       -1.304   4.446  -1.593  0.00  0.00    +0.580 C 
ATOM      6  O   LIG    1       -1.606   4.242  -2.752  0.00  0.00    -0.530 OA
ATOM      7  C   LIG    1        0.902   2.623   0.751  0.00  0.00    -0.020 C 
ATOM      8  C   LIG    1        0.572   1.484   1.719  0.00  0.00    +0.050 C 
ENDROOT
BRANCH   1  15
ATOM      9  C   LIG    1        1.224  -3.455   1.479  0.00  0.00    +0.080 C 
ATOM     10  C   LIG    1        0.756  -2.852   0.180  0.00  0.00    +0.510 C 
ATOM     11  N   LIG    1        1.595  -2.090  -0.550  0.00  0.00    -0.600 N 
ATOM     12  C   LIG    1        2.969  -1.966  -0.118  0.00  0.00    +0.270 C 
ATOM     13  C   LIG    1        3.107  -0.742   0.823  0.00  0.00    +0.020 C 
ATOM     14  C   LIG    1        2.930   0.502   0.051  0.00  0.00    +0.170 C 
ATOM     15  N   LIG    1        1.613   0.645  -0.569  0.00  0.00    -0.520 NA
ATOM     16  C   LIG    1        1.594   0.024  -1.877  0.00  0.00    +0.180 C 
ATOM     17  C   LIG    1        1.069  -1.419  -1.757  0.00  0.00    +0.270 C 
ATOM     18  O   LIG    1       -0.375  -3.052  -0.208  0.00  0.00    -0.550 OA
ENDBRANCH   1  15
BRANCH   5  19
ATOM     19  C   LIG    1       -1.645   5.733  -0.957  0.00  0.00    -0.160 A 
ATOM     20  C   LIG    1       -1.819   5.808   0.427  0.00  0.00    +0.050 A 
ATOM     21  C   LIG    1       -2.133   7.014   1.016  0.00  0.00    -0.010 A 
ATOM     22  C   LIG    1       -2.288   8.151   0.240  0.00  0.00    +0.050 A 
ATOM     23  C   LIG    1       -2.125   8.089  -1.130  0.00  0.00    -0.010 A 
ATOM     24  C   LIG    1       -1.803   6.886  -1.738  0.00  0.00    +0.170 A 
BRANCH  24  25
ATOM     25  O   LIG    1       -1.642   6.824  -3.084  0.00  0.00    -0.490 OA
ATOM     26  H   LIG    1       -2.455   6.624  -3.568  0.00  0.00    +0.400 HD
ENDBRANCH  24  25
ENDBRANCH   5  19
TORSDOF 3
