REMARK  Name = ZINCnE000001TBw9.2
REMARK                            x       y       z     vdW  Elec       q    Type
REMARK                         _______ _______ _______ _____ _____    ______ ____
ROOT
ATOM      1  N   LIG    1        2.944  -2.244   0.786  0.00  0.00    -0.470 NA
ATOM      2  C   LIG    1        4.070  -1.678  -0.001  0.00  0.00    +0.180 C 
ATOM      3  C   LIG    1        5.273  -2.586   0.333  0.00  0.00    +0.010 C 
ATOM      4  C   LIG    1        4.652  -3.926   0.780  0.00  0.00    +0.010 C 
ATOM      5  C   LIG    1        3.127  -3.715   0.679  0.00  0.00    +0.110 C 
ENDROOT
BRANCH   1   6
ATOM      6  C   LIG    1        1.650  -1.832   0.226  0.00  0.00    +0.100 C 
BRANCH   6   7
ATOM      7  C   LIG    1        0.544  -2.235   1.167  0.00  0.00    -0.060 A 
ATOM      8  C   LIG    1        0.591  -1.988   2.477  0.00  0.00    +0.000 A 
ATOM      9  S   LIG    1       -0.868  -2.601   3.245  0.00  0.00    +0.050 S 
ATOM     10  C   LIG    1       -1.477  -3.175   1.698  0.00  0.00    -0.070 A 
ATOM     11  C   LIG    1       -0.597  -2.890   0.737  0.00  0.00    +0.010 A 
ENDBRANCH   6   7
BRANCH   6  13
ATOM     12  O   LIG    1        2.414   0.362   0.672  0.00  0.00    -0.670 OA
ATOM     13  C   LIG    1        1.635  -0.336   0.045  0.00  0.00    +0.510 C 
ATOM     14  O   LIG    1        0.844   0.176  -0.729  0.00  0.00    -0.700 OA
ENDBRANCH   6  13
ENDBRANCH   1   6
BRANCH   5  15
ATOM     15  C   LIG    1        2.412  -4.426   1.830  0.00  0.00    +0.030 C 
BRANCH  15  16
ATOM     16  C   LIG    1        2.560  -5.940   1.663  0.00  0.00    +0.250 C 
BRANCH  16  17
ATOM     17  C   LIG    1        1.966  -6.637   2.860  0.00  0.00    -0.110 A 
ATOM     18  C   LIG    1        0.610  -6.903   2.904  0.00  0.00    +0.010 A 
ATOM     19  C   LIG    1        0.067  -7.546   4.000  0.00  0.00    +0.000 A 
ATOM     20  C   LIG    1        0.877  -7.916   5.057  0.00  0.00    -0.010 A 
ATOM     21  C   LIG    1        2.233  -7.646   5.015  0.00  0.00    +0.000 A 
ATOM     22  C   LIG    1        2.777  -7.006   3.917  0.00  0.00    +0.010 A 
ENDBRANCH  16  17
BRANCH  16  23
ATOM     23  O   LIG    1        1.876  -6.358   0.481  0.00  0.00    -0.550 OA
ATOM     24  H   LIG    1        0.928  -6.163   0.484  0.00  0.00    +0.370 HD
ENDBRANCH  16  23
ENDBRANCH  15  16
ENDBRANCH   5  15
TORSDOF 7
