REMARK  Name = ZINCqH0000008T44.0
REMARK                            x       y       z     vdW  Elec       q    Type
REMARK                         _______ _______ _______ _____ _____    ______ ____
ROOT
ATOM      1  C   LIG    1       -0.569  -1.624  -1.994  0.00  0.00    +0.060 C 
ATOM      2  C   LIG    1       -1.785  -0.982  -1.323  0.00  0.00    +0.170 C 
ATOM      3  C   LIG    1       -2.146   0.335  -2.042  0.00  0.00    +0.060 C 
ATOM      4  C   LIG    1       -3.697   0.325  -2.027  0.00  0.00    +0.040 C 
ATOM      5  C   LIG    1       -4.000  -1.183  -2.204  0.00  0.00    +0.280 C 
ATOM      6  N   LIG    1       -2.947  -1.876  -1.433  0.00  0.00    -0.580 N 
ENDROOT
BRANCH   6   7
ATOM      7  C   LIG    1       -3.036  -3.144  -0.906  0.00  0.00    +0.530 A 
ATOM      8  C   LIG    1       -1.975  -3.696  -0.214  0.00  0.00    -0.130 A 
ATOM      9  C   LIG    1       -2.104  -4.981   0.308  0.00  0.00    +0.190 A 
ATOM     10  N   LIG    1       -3.218  -5.661   0.138  0.00  0.00    -0.460 NA
ATOM     11  C   LIG    1       -4.252  -5.142  -0.533  0.00  0.00    +0.490 A 
ATOM     12  N   LIG    1       -5.456  -5.618  -0.833  0.00  0.00    -0.520 NA
ATOM     13  C   LIG    1       -6.136  -4.713  -1.526  0.00  0.00    +0.500 A 
ATOM     14  N   LIG    1       -5.401  -3.641  -1.690  0.00  0.00    -0.340 NA
ATOM     15  N   LIG    1       -4.174  -3.884  -1.060  0.00  0.00    -0.350 N 
BRANCH   9  16
ATOM     16  C   LIG    1       -0.959  -5.597   1.069  0.00  0.00    +0.530 C 
ATOM     17  F   LIG    1       -0.661  -4.808   2.185  0.00  0.00    -0.160 F 
ATOM     18  F   LIG    1        0.165  -5.674   0.239  0.00  0.00    -0.160 F 
ATOM     19  F   LIG    1       -1.316  -6.883   1.489  0.00  0.00    -0.150 F 
ENDBRANCH   9  16
ENDBRANCH   6   7
BRANCH   2  20
ATOM     20  C   LIG    1       -1.480  -0.704   0.150  0.00  0.00    +0.070 C 
BRANCH  20  21
ATOM     21  C   LIG    1       -0.224   0.123   0.256  0.00  0.00    -0.080 A 
ATOM     22  C   LIG    1       -0.303   1.503   0.251  0.00  0.00    +0.000 A 
ATOM     23  C   LIG    1        0.848   2.262   0.349  0.00  0.00    +0.000 A 
ATOM     24  C   LIG    1        2.079   1.641   0.449  0.00  0.00    +0.000 A 
ATOM     25  C   LIG    1        2.158   0.260   0.454  0.00  0.00    +0.010 A 
ATOM     26  C   LIG    1        1.006  -0.498   0.358  0.00  0.00    +0.010 A 
ENDBRANCH  20  21
ENDBRANCH   2  20
TORSDOF 4
