REMARK  Name = ZINCpe00000MJKQ2.0
REMARK                            x       y       z     vdW  Elec       q    Type
REMARK                         _______ _______ _______ _____ _____    ______ ____
ROOT
ATOM      1  C   LIG    1       -3.745   2.365   3.452  0.00  0.00    +0.570 C 
ATOM      2  N   LIG    1       -3.532   2.286   2.123  0.00  0.00    -0.710 N 
ATOM      3  H   LIG    1       -4.103   2.775   1.511  0.00  0.00    +0.400 HD
ATOM      4  O   LIG    1       -3.029   1.751   4.220  0.00  0.00    -0.530 OA
ENDROOT
BRANCH   1   8
ATOM      5  C   LIG    1       -6.339   4.147   7.321  0.00  0.00    +0.110 C 
ATOM      6  C   LIG    1       -6.098   4.057   5.836  0.00  0.00    -0.070 A 
ATOM      7  C   LIG    1       -5.073   3.276   5.351  0.00  0.00    +0.110 A 
ATOM      8  C   LIG    1       -4.847   3.197   3.975  0.00  0.00    -0.120 A 
ATOM      9  C   LIG    1       -5.670   3.903   3.094  0.00  0.00    +0.070 A 
ATOM     10  C   LIG    1       -6.697   4.678   3.585  0.00  0.00    +0.020 A 
ATOM     11  C   LIG    1       -6.916   4.758   4.956  0.00  0.00    +0.160 A 
BRANCH  11  12
ATOM     12  N   LIG    1       -7.960   5.546   5.451  0.00  0.00    -0.340 N 
ATOM     13  C   LIG    1       -8.257   6.812   5.094  0.00  0.00    +0.490 A 
ATOM     14  N   LIG    1       -9.301   7.192   5.784  0.00  0.00    -0.540 NA
ATOM     15  C   LIG    1       -9.697   6.205   6.588  0.00  0.00    +0.430 A 
ATOM     16  N   LIG    1       -8.911   5.175   6.415  0.00  0.00    -0.310 NA
ENDBRANCH  11  12
ENDBRANCH   1   8
BRANCH   2  17
ATOM     17  C   LIG    1       -2.438   1.460   1.605  0.00  0.00    +0.250 C 
ATOM     18  C   LIG    1       -2.913   0.168   0.921  0.00  0.00    +0.020 C 
ATOM     19  C   LIG    1       -1.823   0.418  -0.134  0.00  0.00    +0.180 C 
ATOM     20  C   LIG    1       -1.929   1.910   0.225  0.00  0.00    +0.270 C 
BRANCH  20  21
ATOM     21  N   LIG    1       -0.634   2.595   0.273  0.00  0.00    -0.370 N 
ATOM     22  C   LIG    1        0.576   2.002   0.328  0.00  0.00    +0.220 A 
ATOM     23  C   LIG    1        1.513   2.978   0.352  0.00  0.00    -0.120 A 
ATOM     24  C   LIG    1        0.852   4.210   0.317  0.00  0.00    +0.240 A 
ATOM     25  N   LIG    1       -0.436   3.982   0.272  0.00  0.00    -0.290 NA
ENDBRANCH  20  21
BRANCH  19  26
ATOM     26  O   LIG    1       -2.238   0.120  -1.469  0.00  0.00    -0.550 OA
ATOM     27  H   LIG    1       -2.174  -0.816  -1.701  0.00  0.00    +0.390 HD
ENDBRANCH  19  26
ENDBRANCH   2  17
TORSDOF 5
