REMARK  Name = ZINCpe000000YU1b.0
REMARK                            x       y       z     vdW  Elec       q    Type
REMARK                         _______ _______ _______ _____ _____    ______ ____
ROOT
ATOM      1  O   LIG    1       -2.747   1.679  -1.475  0.00  0.00    -0.510 OA
ATOM      2  C   LIG    1       -1.560   1.463  -1.602  0.00  0.00    +0.520 C 
ATOM      3  N   LIG    1       -1.067   1.085  -2.798  0.00  0.00    -0.620 N 
ATOM      4  C   LIG    1        0.369   0.826  -2.968  0.00  0.00    +0.270 C 
ATOM      5  C   LIG    1        0.543  -0.593  -3.533  0.00  0.00    +0.260 C 
ATOM      6  N   LIG    1       -0.346  -0.747  -4.693  0.00  0.00    -0.620 N 
ATOM      7  C   LIG    1       -1.782  -0.483  -4.525  0.00  0.00    +0.310 C 
ATOM      8  C   LIG    1        0.146  -1.124  -5.890  0.00  0.00    +0.710 C 
ATOM      9  N   LIG    1        1.476  -1.266  -6.057  0.00  0.00    -0.690 N 
ATOM     10  H   LIG    1        2.070  -1.208  -5.292  0.00  0.00    +0.410 HD
ATOM     11  O   LIG    1       -0.609  -1.335  -6.819  0.00  0.00    -0.560 OA
ATOM     12  C   LIG    1       -1.957   0.931  -3.958  0.00  0.00    +0.280 C 
ENDROOT
BRANCH   9  13
ATOM     13  C   LIG    1        2.001  -1.499  -7.335  0.00  0.00    +0.150 A 
ATOM     14  C   LIG    1        1.380  -0.954  -8.451  0.00  0.00    +0.050 A 
ATOM     15  C   LIG    1        1.902  -1.181  -9.709  0.00  0.00    +0.010 A 
ATOM     16  C   LIG    1        3.037  -1.960  -9.859  0.00  0.00    +0.080 A 
ATOM     17  C   LIG    1        3.654  -2.509  -8.748  0.00  0.00    +0.010 A 
ATOM     18  F   LIG    1        3.542  -2.185 -11.092  0.00  0.00    -0.140 F 
ATOM     19  C   LIG    1        3.139  -2.280  -7.487  0.00  0.00    +0.020 A 
ENDBRANCH   9  13
BRANCH   2  20
ATOM     20  C   LIG    1       -0.636   1.617  -0.421  0.00  0.00    +0.220 C 
BRANCH  20  21
ATOM     21  N   LIG    1       -1.410   2.033   0.756  0.00  0.00    -0.520 NA
ATOM     22  C   LIG    1       -1.961   3.383   0.573  0.00  0.00    +0.150 C 
ATOM     23  C   LIG    1       -2.808   3.752   1.794  0.00  0.00    +0.230 C 
ATOM     24  O   LIG    1       -2.005   3.650   2.973  0.00  0.00    -0.390 OA
ATOM     25  C   LIG    1       -1.453   2.348   3.183  0.00  0.00    +0.220 C 
ATOM     26  C   LIG    1       -0.593   1.964   1.976  0.00  0.00    +0.160 C 
ENDBRANCH  20  21
ENDBRANCH   2  20
TORSDOF 3
