REMARK  Name = ZINCpk00000KfKvh.1
REMARK                            x       y       z     vdW  Elec       q    Type
REMARK                         _______ _______ _______ _____ _____    ______ ____
ROOT
ATOM      1  N   LIG    1        1.665   1.464  -2.489  0.00  0.00    -0.440 N 
ATOM      2  C   LIG    1        0.251   1.287  -2.849  0.00  0.00    +0.230 C 
ATOM      3  C   LIG    1       -0.631   1.792  -1.705  0.00  0.00    +0.300 C 
ATOM      4  N   LIG    1       -0.322   1.040  -0.481  0.00  0.00    -0.370 N 
ATOM      5  C   LIG    1        1.087   1.246  -0.120  0.00  0.00    +0.280 C 
ATOM      6  H   LIG    1       -0.489   0.058  -0.639  0.00  0.00    +0.420 HD
ATOM      7  C   LIG    1        1.983   0.737  -1.252  0.00  0.00    +0.220 C 
ATOM      8  C   LIG    1        1.740  -0.759  -1.461  0.00  0.00    +0.040 C 
ENDROOT
BRANCH   4   9
ATOM      9  C   LIG    1       -1.182   1.513   0.612  0.00  0.00    +0.160 C 
ATOM     10  C   LIG    1       -0.868   0.728   1.889  0.00  0.00    +0.060 C 
ATOM     11  C   LIG    1       -1.246   1.531   3.120  0.00  0.00    +0.050 C 
ATOM     12  C   LIG    1       -2.740   1.754   3.272  0.00  0.00    +0.020 C 
ATOM     13  C   LIG    1       -3.271   2.660   2.159  0.00  0.00    +0.280 C 
ATOM     14  N   LIG    1       -3.603   1.828   0.992  0.00  0.00    -0.540 N 
ATOM     15  C   LIG    1       -2.635   1.289   0.251  0.00  0.00    +0.500 C 
ATOM     16  O   LIG    1       -2.920   0.611  -0.714  0.00  0.00    -0.550 OA
BRANCH  14  17
ATOM     17  C   LIG    1       -5.005   1.595   0.639  0.00  0.00    +0.220 C 
BRANCH  17  18
ATOM     18  C   LIG    1       -5.470   2.670  -0.310  0.00  0.00    +0.490 C 
ATOM     19  O   LIG    1       -6.615   2.661  -0.729  0.00  0.00    -0.680 OA
ATOM     20  O   LIG    1       -4.700   3.549  -0.659  0.00  0.00    -0.690 OA
ENDBRANCH  17  18
ENDBRANCH  14  17
ENDBRANCH   4   9
BRANCH   1  25
ATOM     21  C   LIG    1        5.830  -0.049  -4.487  0.00  0.00    +0.160 C 
ATOM     22  C   LIG    1        4.383   0.372  -4.490  0.00  0.00    +0.090 A 
ATOM     23  C   LIG    1        3.648   0.418  -5.602  0.00  0.00    -0.090 A 
ATOM     24  S   LIG    1        2.026   0.948  -5.165  0.00  0.00    +0.140 S 
ATOM     25  C   LIG    1        2.495   1.067  -3.526  0.00  0.00    +0.210 A 
ATOM     26  N   LIG    1        3.739   0.725  -3.392  0.00  0.00    -0.500 NA
ENDBRANCH   1  25
TORSDOF 4
