REMARK  Name = ZINCpk00000KfKvh.2
REMARK                            x       y       z     vdW  Elec       q    Type
REMARK                         _______ _______ _______ _____ _____    ______ ____
ROOT
ATOM      1  N   LIG    1       -3.292  -0.505   5.199  0.00  0.00    -0.460 N 
ATOM      2  C   LIG    1       -1.906  -0.035   5.072  0.00  0.00    +0.250 C 
ATOM      3  C   LIG    1       -1.521   0.015   3.591  0.00  0.00    +0.270 C 
ATOM      4  N   LIG    1       -2.431   0.921   2.879  0.00  0.00    -0.370 N 
ATOM      5  C   LIG    1       -3.809   0.425   2.994  0.00  0.00    +0.290 C 
ATOM      6  H   LIG    1       -2.371   1.844   3.283  0.00  0.00    +0.430 HD
ATOM      7  C   LIG    1       -4.213   0.379   4.469  0.00  0.00    +0.150 C 
ATOM      8  C   LIG    1       -5.640  -0.158   4.591  0.00  0.00    +0.090 C 
ENDROOT
BRANCH   4   9
ATOM      9  C   LIG    1       -2.050   0.983   1.461  0.00  0.00    +0.170 C 
ATOM     10  C   LIG    1       -0.622   1.510   1.335  0.00  0.00    +0.040 C 
ATOM     11  C   LIG    1        0.015   1.041   0.040  0.00  0.00    +0.040 C 
ATOM     12  C   LIG    1       -0.625   1.629  -1.204  0.00  0.00    +0.020 C 
ATOM     13  C   LIG    1       -2.055   1.114  -1.377  0.00  0.00    +0.280 C 
ATOM     14  N   LIG    1       -2.964   1.979  -0.607  0.00  0.00    -0.540 N 
ATOM     15  C   LIG    1       -2.977   1.928   0.726  0.00  0.00    +0.500 C 
ATOM     16  O   LIG    1       -3.733   2.641   1.351  0.00  0.00    -0.550 OA
BRANCH  14  17
ATOM     17  C   LIG    1       -3.860   2.901  -1.309  0.00  0.00    +0.220 C 
BRANCH  17  18
ATOM     18  C   LIG    1       -5.167   2.209  -1.597  0.00  0.00    +0.490 C 
ATOM     19  O   LIG    1       -6.057   2.805  -2.179  0.00  0.00    -0.680 OA
ATOM     20  O   LIG    1       -5.335   1.053  -1.249  0.00  0.00    -0.690 OA
ENDBRANCH  17  18
ENDBRANCH  14  17
ENDBRANCH   4   9
BRANCH   1  25
ATOM     21  C   LIG    1       -4.382   1.155   9.635  0.00  0.00    +0.160 C 
ATOM     22  C   LIG    1       -4.168   0.097   8.583  0.00  0.00    +0.080 A 
ATOM     23  C   LIG    1       -4.321  -1.204   8.828  0.00  0.00    -0.080 A 
ATOM     24  S   LIG    1       -3.984  -2.085   7.340  0.00  0.00    +0.200 S 
ATOM     25  C   LIG    1       -3.660  -0.614   6.531  0.00  0.00    +0.190 A 
ATOM     26  N   LIG    1       -3.813   0.385   7.343  0.00  0.00    -0.490 NA
ENDBRANCH   1  25
TORSDOF 4
