REMARK  Name = ZINCpk00000KfKvH.0
REMARK                            x       y       z     vdW  Elec       q    Type
REMARK                         _______ _______ _______ _____ _____    ______ ____
ROOT
ATOM      1  C   LIG    1       -0.955   3.562  -4.537  0.00  0.00    +0.280 C 
ATOM      2  C   LIG    1       -1.537   2.600  -5.577  0.00  0.00    +0.200 C 
ATOM      3  N   LIG    1       -1.554   3.260  -6.891  0.00  0.00    -0.520 NA
ATOM      4  C   LIG    1       -2.349   4.496  -6.844  0.00  0.00    +0.160 C 
ATOM      5  C   LIG    1       -1.758   5.437  -5.791  0.00  0.00    +0.240 C 
ATOM      6  O   LIG    1       -1.722   4.769  -4.527  0.00  0.00    -0.370 OA
ENDROOT
BRANCH   1  10
ATOM      7  C   LIG    1       -0.471   2.131  -1.231  0.00  0.00    +0.190 A 
ATOM      8  N   LIG    1       -1.749   1.960  -1.437  0.00  0.00    -0.290 NA
ATOM      9  N   LIG    1       -2.069   2.434  -2.589  0.00  0.00    -0.260 NA
ATOM     10  C   LIG    1       -1.008   2.920  -3.174  0.00  0.00    +0.180 A 
ATOM     11  N   LIG    1        0.036   2.743  -2.329  0.00  0.00    -0.570 N 
ATOM     12  H   LIG    1        0.959   3.000  -2.479  0.00  0.00    +0.430 HD
BRANCH   7  13
ATOM     13  C   LIG    1        0.298   1.720  -0.002  0.00  0.00    +0.150 C 
BRANCH  13  15
ATOM     14  C   LIG    1        0.429   1.921   2.485  0.00  0.00    +0.020 C 
ATOM     15  C   LIG    1       -0.352   2.339   1.237  0.00  0.00    +0.020 C 
ENDBRANCH  13  15
ENDBRANCH   7  13
ENDBRANCH   1  10
BRANCH   3  16
ATOM     16  C   LIG    1       -2.055   2.351  -7.930  0.00  0.00    +0.190 C 
ATOM     17  C   LIG    1       -3.375   1.730  -7.471  0.00  0.00    +0.030 C 
BRANCH  16  18
ATOM     18  C   LIG    1       -1.044   1.260  -8.172  0.00  0.00    +0.520 C 
ATOM     19  N   LIG    1       -1.181   0.437  -9.231  0.00  0.00    -0.630 N 
ATOM     20  H   LIG    1       -1.931   0.547  -9.836  0.00  0.00    +0.430 HD
ATOM     21  O   LIG    1       -0.106   1.123  -7.415  0.00  0.00    -0.470 OA
BRANCH  19  22
ATOM     22  C   LIG    1       -0.251  -0.568  -9.454  0.00  0.00    +0.210 A 
ATOM     23  C   LIG    1       -0.256  -1.478 -10.471  0.00  0.00    -0.090 A 
ATOM     24  C   LIG    1        0.896  -2.256 -10.236  0.00  0.00    +0.040 A 
ATOM     25  N   LIG    1        1.452  -1.779  -9.158  0.00  0.00    -0.370 NA
ATOM     26  C   LIG    1        1.384  -3.416 -11.064  0.00  0.00    +0.160 C 
ATOM     27  O   LIG    1        0.832  -0.843  -8.709  0.00  0.00    +0.110 OA
ENDBRANCH  19  22
ENDBRANCH  16  18
ENDBRANCH   3  16
TORSDOF 6
