REMARK  Name = ZINCrD000000DeqC.0
REMARK                            x       y       z     vdW  Elec       q    Type
REMARK                         _______ _______ _______ _____ _____    ______ ____
ROOT
ATOM      1  C   LIG    1       -2.513   0.977   0.019  0.00  0.00    +0.380 C 
ENDROOT
BRANCH   1   2
ATOM      2  C   LIG    1       -1.220   1.750   0.017  0.00  0.00    -0.160 A 
ATOM      3  C   LIG    1       -0.013   1.076   0.008  0.00  0.00    +0.100 A 
ATOM      4  C   LIG    1        1.175   1.782   0.000  0.00  0.00    -0.010 A 
ATOM      5  C   LIG    1        1.155   3.169   0.008  0.00  0.00    +0.150 A 
ATOM      6  C   LIG    1       -0.057   3.844   0.022  0.00  0.00    -0.080 A 
ATOM      7  C   LIG    1       -1.242   3.133   0.030  0.00  0.00    +0.080 A 
BRANCH   5   8
ATOM      8  O   LIG    1        2.322   3.866   0.001  0.00  0.00    -0.310 OA
BRANCH   8   9
ATOM      9  C   LIG    1        2.225   5.292   0.009  0.00  0.00    +0.260 C 
BRANCH   9  10
ATOM     10  C   LIG    1        3.609   5.889  -0.001  0.00  0.00    -0.050 A 
ATOM     11  C   LIG    1        4.269   6.170   1.186  0.00  0.00    -0.010 A 
ATOM     12  C   LIG    1        5.539   6.713   1.138  0.00  0.00    +0.260 A 
ATOM     13  N   LIG    1        6.118   6.973  -0.018  0.00  0.00    -0.480 NA
ATOM     14  C   LIG    1        5.519   6.724  -1.165  0.00  0.00    +0.260 A 
ATOM     15  C   LIG    1        4.250   6.176  -1.196  0.00  0.00    -0.010 A 
ENDBRANCH   9  10
ENDBRANCH   8   9
ENDBRANCH   5   8
ENDBRANCH   1   2
BRANCH   1  18
ATOM     16  C   LIG    1       -4.075   0.629   3.233  0.00  0.00    -0.000 A 
ATOM     17  C   LIG    1       -4.118   1.052   1.948  0.00  0.00    +0.120 A 
ATOM     18  N   LIG    1       -2.926   0.719   1.401  0.00  0.00    -0.290 N 
ATOM     19  N   LIG    1       -2.215   0.142   2.305  0.00  0.00    -0.080 NA
ATOM     20  N   LIG    1       -2.871   0.072   3.409  0.00  0.00    -0.250 NA
BRANCH  16  26
ATOM     21  C   LIG    1       -5.076   2.141   4.924  0.00  0.00    +0.170 C 
ATOM     22  C   LIG    1       -6.183   2.278   5.971  0.00  0.00    -0.010 C 
ATOM     23  C   LIG    1       -7.547   2.126   5.293  0.00  0.00    +0.010 C 
ATOM     24  C   LIG    1       -7.637   0.748   4.633  0.00  0.00    +0.020 C 
ATOM     25  C   LIG    1       -6.529   0.611   3.586  0.00  0.00    +0.030 C 
ATOM     26  C   LIG    1       -5.166   0.764   4.264  0.00  0.00    +0.100 C 
BRANCH  21  27
ATOM     27  O   LIG    1       -3.802   2.284   5.557  0.00  0.00    -0.560 OA
ATOM     28  H   LIG    1       -3.675   3.136   5.997  0.00  0.00    +0.370 HD
ENDBRANCH  21  27
ENDBRANCH  16  26
ENDBRANCH   1  18
TORSDOF 7
