REMARK  Name = ZINCpe000000YTMA.0
REMARK                            x       y       z     vdW  Elec       q    Type
REMARK                         _______ _______ _______ _____ _____    ______ ____
ROOT
ATOM      1  N   LIG    1       -1.649   2.817  -1.411  0.00  0.00    -0.520 NA
ATOM      2  C   LIG    1       -1.817   1.359  -1.336  0.00  0.00    +0.170 C 
ATOM      3  C   LIG    1       -0.809   0.784  -0.334  0.00  0.00    +0.290 C 
ATOM      4  N   LIG    1       -0.958   1.494   0.945  0.00  0.00    -0.640 N 
ATOM      5  C   LIG    1       -0.943   2.965   0.929  0.00  0.00    +0.320 C 
ATOM      6  C   LIG    1       -1.110   0.815   2.099  0.00  0.00    +0.720 C 
ATOM      7  N   LIG    1       -0.736  -0.477   2.175  0.00  0.00    -0.630 N 
ATOM      8  C   LIG    1        0.019  -1.113   1.083  0.00  0.00    +0.250 C 
ATOM      9  C   LIG    1        1.247  -1.808   1.692  0.00  0.00    +0.220 C 
ATOM     10  O   LIG    1        0.823  -2.667   2.753  0.00  0.00    -0.380 OA
ATOM     11  C   LIG    1        0.202  -1.985   3.845  0.00  0.00    +0.220 C 
ATOM     12  C   LIG    1       -1.076  -1.297   3.349  0.00  0.00    +0.260 C 
ATOM     13  O   LIG    1       -1.583   1.369   3.073  0.00  0.00    -0.580 OA
ATOM     14  C   LIG    1       -1.945   3.455  -0.122  0.00  0.00    +0.180 C 
ENDROOT
BRANCH   1  15
ATOM     15  C   LIG    1       -2.475   3.387  -2.484  0.00  0.00    +0.220 C 
BRANCH  15  17
ATOM     16  O   LIG    1       -1.227   5.335  -2.019  0.00  0.00    -0.490 OA
ATOM     17  C   LIG    1       -2.098   4.830  -2.695  0.00  0.00    +0.510 C 
ATOM     18  N   LIG    1       -2.730   5.561  -3.635  0.00  0.00    -0.680 N 
ATOM     19  H   LIG    1       -3.378   5.141  -4.222  0.00  0.00    +0.410 HD
BRANCH  18  20
ATOM     20  C   LIG    1       -2.450   6.926  -3.765  0.00  0.00    +0.170 A 
ATOM     21  C   LIG    1       -3.458   7.811  -4.124  0.00  0.00    -0.030 A 
ATOM     22  C   LIG    1       -3.182   9.159  -4.245  0.00  0.00    +0.070 A 
ATOM     23  C   LIG    1       -1.901   9.627  -4.022  0.00  0.00    -0.030 A 
ATOM     24  C   LIG    1       -0.891   8.747  -3.669  0.00  0.00    +0.120 A 
ATOM     25  F   LIG    1        0.361   9.207  -3.451  0.00  0.00    -0.130 F 
ATOM     26  C   LIG    1       -1.163   7.397  -3.540  0.00  0.00    -0.010 A 
ENDBRANCH  18  20
ENDBRANCH  15  17
ENDBRANCH   1  15
TORSDOF 3
