REMARK  Name = ZINCqH0000050QNa.0
REMARK                            x       y       z     vdW  Elec       q    Type
REMARK                         _______ _______ _______ _____ _____    ______ ____
ROOT
ATOM      1  N   LIG    1       -2.423   1.042   0.019  0.00  0.00    -0.490 N 
ATOM      2  C   LIG    1       -2.563   0.248   1.248  0.00  0.00    +0.220 C 
ENDROOT
BRANCH   1   3
ATOM      3  C   LIG    1       -1.224   1.753   0.017  0.00  0.00    +0.090 A 
ATOM      4  C   LIG    1       -0.013   1.076   0.008  0.00  0.00    -0.030 A 
ATOM      5  C   LIG    1        1.175   1.782   0.000  0.00  0.00    +0.010 A 
ATOM      6  C   LIG    1        1.164   3.166   0.008  0.00  0.00    +0.010 A 
ATOM      7  C   LIG    1       -0.033   3.853   0.023  0.00  0.00    +0.030 A 
ATOM      8  C   LIG    1       -1.236   3.153   0.031  0.00  0.00    -0.020 A 
BRANCH   8   9
ATOM      9  C   LIG    1       -2.525   3.886   0.047  0.00  0.00    -0.040 A 
ATOM     10  C   LIG    1       -3.523   3.567  -0.872  0.00  0.00    +0.050 A 
ATOM     11  C   LIG    1       -4.723   4.249  -0.849  0.00  0.00    +0.000 A 
ATOM     12  C   LIG    1       -4.931   5.255   0.077  0.00  0.00    +0.000 A 
ATOM     13  C   LIG    1       -3.943   5.580   0.989  0.00  0.00    +0.000 A 
ATOM     14  C   LIG    1       -2.741   4.901   0.978  0.00  0.00    +0.010 A 
ENDBRANCH   8   9
ENDBRANCH   1   3
BRANCH   1  15
ATOM     15  C   LIG    1       -2.532   0.190  -1.173  0.00  0.00    +0.280 C 
BRANCH  15  22
ATOM     16  C   LIG    1       -9.222  -3.570  -0.039  0.00  0.00    +0.260 C 
ATOM     17  C   LIG    1       -7.947  -2.815  -0.312  0.00  0.00    +0.120 A 
ATOM     18  N   LIG    1       -7.709  -2.028  -1.302  0.00  0.00    -0.240 NA
ATOM     19  N   LIG    1       -6.468  -1.408  -1.401  0.00  0.00    -0.370 N 
ATOM     20  C   LIG    1       -6.043  -0.550  -2.372  0.00  0.00    +0.540 A 
ATOM     21  C   LIG    1       -4.756  -0.014  -2.308  0.00  0.00    -0.100 A 
ATOM     22  C   LIG    1       -3.928  -0.370  -1.264  0.00  0.00    +0.210 A 
ATOM     23  N   LIG    1       -4.379  -1.208  -0.339  0.00  0.00    -0.480 NA
ATOM     24  O   LIG    1       -6.788  -0.248  -3.292  0.00  0.00    -0.500 OA
ATOM     25  C   LIG    1       -5.598  -1.709  -0.400  0.00  0.00    +0.300 A 
ATOM     26  S   LIG    1       -6.468  -2.828   0.664  0.00  0.00    +0.130 S 
ENDBRANCH  15  22
ENDBRANCH   1  15
TORSDOF 4
