REMARK  Name = ZINCqH0000007Hq3.0
REMARK                            x       y       z     vdW  Elec       q    Type
REMARK                         _______ _______ _______ _____ _____    ______ ____
ROOT
ATOM      1  C   LIG    1        3.408   6.888   1.455  0.00  0.00    +0.520 C 
ATOM      2  N   LIG    1        2.764   5.845   0.895  0.00  0.00    -0.730 N 
ATOM      3  H   LIG    1        1.825   5.694   1.089  0.00  0.00    +0.410 HD
ATOM      4  O   LIG    1        4.582   7.076   1.213  0.00  0.00    -0.510 OA
ENDROOT
BRANCH   2   5
ATOM      5  C   LIG    1        3.481   4.938  -0.004  0.00  0.00    +0.350 C 
ATOM      6  C   LIG    1        3.473   5.514  -1.422  0.00  0.00    +0.040 C 
BRANCH   5   7
ATOM      7  C   LIG    1        2.804   3.592  -0.005  0.00  0.00    +0.020 A 
ATOM      8  C   LIG    1        3.441   2.413  -0.018  0.00  0.00    -0.030 A 
ATOM      9  C   LIG    1        2.395   1.383  -0.013  0.00  0.00    -0.130 A 
ATOM     10  C   LIG    1        2.400  -0.011  -0.021  0.00  0.00    +0.060 A 
ATOM     11  C   LIG    1        1.204  -0.696  -0.014  0.00  0.00    -0.010 A 
ATOM     12  C   LIG    1        0.002  -0.004   0.002  0.00  0.00    +0.050 A 
ATOM     13  C   LIG    1       -0.017   1.374   0.010  0.00  0.00    +0.020 A 
ATOM     14  C   LIG    1        1.177   2.084   0.002  0.00  0.00    +0.060 A 
ATOM     15  O   LIG    1        1.473   3.400   0.007  0.00  0.00    -0.190 OA
ENDBRANCH   5   7
ENDBRANCH   2   5
BRANCH   1  16
ATOM     16  C   LIG    1        2.671   7.821   2.380  0.00  0.00    +0.210 C 
BRANCH  16  17
ATOM     17  O   LIG    1        3.562   8.838   2.841  0.00  0.00    -0.280 OA
BRANCH  17  23
ATOM     18  C   LIG    1        2.490  10.938   3.191  0.00  0.00    +0.150 A 
ATOM     19  C   LIG    1        1.965  11.881   4.061  0.00  0.00    -0.100 A 
ATOM     20  C   LIG    1        2.008  11.665   5.425  0.00  0.00    +0.090 A 
ATOM     21  C   LIG    1        2.570  10.507   5.928  0.00  0.00    -0.100 A 
ATOM     22  C   LIG    1        3.092   9.556   5.064  0.00  0.00    +0.150 A 
ATOM     23  C   LIG    1        3.050   9.769   3.692  0.00  0.00    +0.020 A 
BRANCH  18  25
ATOM     24  C   LIG    1        1.861  12.377   1.405  0.00  0.00    +0.240 C 
ATOM     25  O   LIG    1        2.452  11.154   1.848  0.00  0.00    -0.300 OA
ENDBRANCH  18  25
BRANCH  22  26
ATOM     26  O   LIG    1        3.644   8.416   5.560  0.00  0.00    -0.300 OA
ATOM     27  C   LIG    1        3.652   8.264   6.981  0.00  0.00    +0.240 C 
ENDBRANCH  22  26
ENDBRANCH  17  23
ENDBRANCH  16  17
ENDBRANCH   1  16
TORSDOF 7
