REMARK  Name = ZINCpk00000xI7oV.0
REMARK                            x       y       z     vdW  Elec       q    Type
REMARK                         _______ _______ _______ _____ _____    ______ ____
ROOT
ATOM      1  C   LIG    1       -2.658   5.366  -2.133  0.00  0.00    +0.610 C 
ATOM      2  N   LIG    1       -3.378   5.492  -1.000  0.00  0.00    -0.590 N 
ATOM      3  O   LIG    1       -1.529   4.913  -2.089  0.00  0.00    -0.510 OA
ENDROOT
BRANCH   1  10
ATOM      4  C   LIG    1       -3.665   7.395  -7.695  0.00  0.00    +0.070 C 
ATOM      5  C   LIG    1       -3.790   7.983  -6.288  0.00  0.00    +0.260 C 
ATOM      6  O   LIG    1       -2.671   8.838  -6.017  0.00  0.00    -0.370 OA
ATOM      7  C   LIG    1       -2.575   9.290  -4.665  0.00  0.00    +0.150 C 
ATOM      8  C   LIG    1       -2.142   8.128  -3.756  0.00  0.00    +0.110 C 
ATOM      9  C   LIG    1       -3.011   6.946  -4.092  0.00  0.00    -0.110 A 
ATOM     10  C   LIG    1       -3.236   5.775  -3.422  0.00  0.00    -0.010 A 
ATOM     11  N   LIG    1       -4.117   5.064  -4.196  0.00  0.00    -0.290 N 
ATOM     12  N   LIG    1       -4.405   5.736  -5.258  0.00  0.00    -0.260 NA
ATOM     13  C   LIG    1       -4.650   3.740  -3.866  0.00  0.00    +0.360 C 
ATOM     14  C   LIG    1       -1.541  10.414  -4.576  0.00  0.00    +0.040 C 
ATOM     15  C   LIG    1       -3.777   6.872  -5.267  0.00  0.00    -0.000 A 
ENDBRANCH   1  10
BRANCH   2  16
ATOM     16  C   LIG    1       -2.774   5.160   0.292  0.00  0.00    +0.350 C 
BRANCH  16  17
ATOM     17  C   LIG    1       -3.015   3.704   0.600  0.00  0.00    -0.170 A 
ATOM     18  C   LIG    1       -4.152   3.312   1.290  0.00  0.00    +0.070 A 
ATOM     19  C   LIG    1       -4.330   1.962   1.554  0.00  0.00    -0.040 A 
ATOM     20  C   LIG    1       -3.381   1.059   1.117  0.00  0.00    +0.260 A 
ATOM     21  N   LIG    1       -2.313   1.468   0.459  0.00  0.00    -0.480 NA
ATOM     22  C   LIG    1       -2.108   2.743   0.194  0.00  0.00    +0.280 A 
ENDBRANCH  16  17
ENDBRANCH   2  16
BRANCH   2  23
ATOM     23  C   LIG    1       -4.764   5.962  -1.062  0.00  0.00    +0.290 C 
BRANCH  23  24
ATOM     24  C   LIG    1       -4.806   7.465  -0.783  0.00  0.00    +0.170 C 
BRANCH  24  25
ATOM     25  O   LIG    1       -4.123   8.163  -1.826  0.00  0.00    -0.550 OA
ATOM     26  H   LIG    1       -4.110   9.123  -1.714  0.00  0.00    +0.380 HD
ENDBRANCH  24  25
ENDBRANCH  23  24
ENDBRANCH   2  23
TORSDOF 6
