REMARK  Name = ZINCtV00001bB3Az.0
REMARK                            x       y       z     vdW  Elec       q    Type
REMARK                         _______ _______ _______ _____ _____    ______ ____
ROOT
ATOM      1  C   LIG    1       -1.307   1.878  -1.256  0.00  0.00    +0.340 C 
ENDROOT
BRANCH   1   2
ATOM      2  C   LIG    1        0.002   1.208  -0.925  0.00  0.00    -0.140 A 
ATOM      3  C   LIG    1        1.185   1.913  -1.037  0.00  0.00    +0.070 A 
ATOM      4  C   LIG    1        2.387   1.300  -0.739  0.00  0.00    -0.060 A 
ATOM      5  C   LIG    1        2.405  -0.026  -0.329  0.00  0.00    +0.130 A 
ATOM      6  C   LIG    1        1.215  -0.731  -0.219  0.00  0.00    -0.010 A 
ATOM      7  C   LIG    1        0.017  -0.113  -0.517  0.00  0.00    +0.060 A 
BRANCH   5   8
ATOM      8  O   LIG    1        3.586  -0.632  -0.037  0.00  0.00    -0.260 OA
BRANCH   8   9
ATOM      9  C   LIG    1        4.724   0.102  -0.149  0.00  0.00    +0.100 A 
ATOM     10  C   LIG    1        5.417   0.130  -1.350  0.00  0.00    +0.020 A 
ATOM     11  C   LIG    1        6.572   0.881  -1.463  0.00  0.00    +0.050 A 
ATOM     12  C   LIG    1        7.043   1.595  -0.377  0.00  0.00    +0.030 A 
ATOM     13  C   LIG    1        6.356   1.564   0.825  0.00  0.00    -0.020 A 
ATOM     14 CL   LIG    1        6.951   2.462   2.186  0.00  0.00    -0.060 Cl
ATOM     15  C   LIG    1        5.198   0.819   0.941  0.00  0.00    +0.020 A 
ENDBRANCH   8   9
ENDBRANCH   5   8
ENDBRANCH   1   2
BRANCH   1  16
ATOM     16  N   LIG    1       -1.856   2.500  -0.049  0.00  0.00    -0.600 N 
ATOM     17  C   LIG    1       -2.678   1.799   0.756  0.00  0.00    +0.550 C 
ATOM     18  O   LIG    1       -3.134   2.316   1.759  0.00  0.00    -0.540 OA
BRANCH  17  19
ATOM     19  C   LIG    1       -3.023   0.408   0.424  0.00  0.00    -0.100 C 
ATOM     20  C   LIG    1       -3.834  -0.284   1.219  0.00  0.00    +0.140 C 
ENDBRANCH  17  19
BRANCH  16  21
ATOM     21  C   LIG    1       -1.512   3.885   0.282  0.00  0.00    +0.290 C 
BRANCH  21  26
ATOM     22  C   LIG    1       -3.262   7.212  -0.553  0.00  0.00    +0.110 C 
ATOM     23  C   LIG    1       -3.154   7.121  -2.077  0.00  0.00    +0.030 C 
ATOM     24  C   LIG    1       -3.439   5.686  -2.524  0.00  0.00    +0.010 C 
ATOM     25  C   LIG    1       -2.421   4.740  -1.883  0.00  0.00    +0.010 C 
ATOM     26  C   LIG    1       -2.530   4.831  -0.359  0.00  0.00    -0.020 C 
ATOM     27  C   LIG    1       -2.245   6.266   0.088  0.00  0.00    +0.040 C 
BRANCH  22  29
ATOM     28  C   LIG    1       -2.769   9.694   0.220  0.00  0.00    +0.010 C 
ATOM     29  C   LIG    1       -2.988   8.593  -0.123  0.00  0.00    -0.180 C 
ENDBRANCH  22  29
ENDBRANCH  21  26
ENDBRANCH  16  21
ENDBRANCH   1  16
TORSDOF 8
