REMARK  Name = ZINCpe000000Y1tk.0
REMARK                            x       y       z     vdW  Elec       q    Type
REMARK                         _______ _______ _______ _____ _____    ______ ____
ROOT
ATOM      1  N   LIG    1        3.863  -3.343  -0.098  0.00  0.00    -0.590 N 
ATOM      2  C   LIG    1        3.371  -4.719   0.096  0.00  0.00    +0.280 C 
ATOM      3  C   LIG    1        4.442  -5.620  -0.568  0.00  0.00    +0.070 C 
ATOM      4  C   LIG    1        5.750  -4.865  -0.210  0.00  0.00    +0.040 C 
ATOM      5  C   LIG    1        5.321  -3.384  -0.279  0.00  0.00    +0.330 C 
ENDROOT
BRANCH   1   9
ATOM      6  C   LIG    1        3.653   1.420  -0.536  0.00  0.00    +0.200 C 
ATOM      7  C   LIG    1        2.953   0.103  -0.321  0.00  0.00    +0.410 A 
ATOM      8  N   LIG    1        3.650  -0.998  -0.300  0.00  0.00    -0.520 NA
ATOM      9  C   LIG    1        3.078  -2.197  -0.113  0.00  0.00    +0.420 A 
ATOM     10  C   LIG    1        1.724  -2.298   0.064  0.00  0.00    -0.070 A 
ATOM     11  C   LIG    1        0.958  -1.118   0.043  0.00  0.00    +0.250 A 
ATOM     12  N   LIG    1       -0.327  -0.845   0.174  0.00  0.00    -0.310 NA
ATOM     13  N   LIG    1       -0.509   0.426   0.072  0.00  0.00    -0.240 NA
ATOM     14  C   LIG    1        0.630   1.035  -0.127  0.00  0.00    +0.350 A 
ATOM     15  N   LIG    1        1.605   0.083  -0.154  0.00  0.00    -0.450 N 
ENDBRANCH   1   9
BRANCH   5  16
ATOM     16  C   LIG    1        5.688  -2.804  -1.621  0.00  0.00    +0.290 A 
ATOM     17  N   LIG    1        5.325  -3.276  -2.770  0.00  0.00    -0.270 NA
ATOM     18  N   LIG    1        5.868  -2.457  -3.769  0.00  0.00    -0.550 N 
ATOM     19  H   LIG    1        5.762  -2.571  -4.727  0.00  0.00    +0.450 HD
ATOM     20  C   LIG    1        6.566  -1.480  -3.152  0.00  0.00    +0.650 A 
ATOM     21  O   LIG    1        7.179  -0.579  -3.696  0.00  0.00    -0.560 OA
ATOM     22  N   LIG    1        6.455  -1.683  -1.824  0.00  0.00    -0.540 N 
ATOM     23  C   LIG    1        7.055  -0.852  -0.777  0.00  0.00    +0.350 C 
ENDBRANCH   5  16
BRANCH   4  24
ATOM     24  C   LIG    1        6.844  -5.161  -1.238  0.00  0.00    -0.030 C 
ATOM     25  C   LIG    1        7.979  -6.095  -0.813  0.00  0.00    +0.030 C 
ATOM     26  C   LIG    1        8.239  -4.595  -0.967  0.00  0.00    +0.000 C 
ENDBRANCH   4  24
TORSDOF 3
