REMARK  Name = ZINCrg00000fSnyn.0
REMARK                            x       y       z     vdW  Elec       q    Type
REMARK                         _______ _______ _______ _____ _____    ______ ____
ROOT
ATOM      1  C   LIG    1       -0.047   1.107  -2.471  0.00  0.00    +0.520 C 
ATOM      2  N   LIG    1       -0.524   1.433  -3.689  0.00  0.00    -0.600 N 
ATOM      3  O   LIG    1        0.949   0.422  -2.373  0.00  0.00    -0.530 OA
ENDROOT
BRANCH   1   4
ATOM      4  C   LIG    1       -0.753   1.593  -1.232  0.00  0.00    +0.040 C 
BRANCH   4   5
ATOM      5  C   LIG    1       -0.013   1.086   0.008  0.00  0.00    +0.140 C 
BRANCH   5   8
ATOM      6  C   LIG    1       -1.959  -0.581   1.326  0.00  0.00    +0.160 C 
ATOM      7  C   LIG    1       -1.641   0.785   1.876  0.00  0.00    +0.230 A 
ATOM      8  C   LIG    1       -0.718   1.572   1.248  0.00  0.00    -0.290 A 
ATOM      9  C   LIG    1       -0.442   2.847   1.776  0.00  0.00    +0.540 A 
ATOM     10  N   LIG    1       -1.095   3.241   2.885  0.00  0.00    -0.370 N 
ATOM     11  N   LIG    1       -1.062   4.412   3.653  0.00  0.00    -0.490 N 
ATOM     12  H   LIG    1       -0.513   5.196   3.493  0.00  0.00    +0.460 HD
ATOM     13  C   LIG    1       -1.949   4.235   4.667  0.00  0.00    +0.650 A 
ATOM     14  N   LIG    1       -2.500   3.056   4.556  0.00  0.00    -0.510 NA
ATOM     15  C   LIG    1       -2.007   2.413   3.479  0.00  0.00    +0.540 A 
ATOM     16  O   LIG    1        0.373   3.580   1.240  0.00  0.00    -0.530 OA
ATOM     17  N   LIG    1       -2.257   1.216   2.972  0.00  0.00    -0.510 NA
ENDBRANCH   5   8
ENDBRANCH   4   5
ENDBRANCH   1   4
BRANCH   2  18
ATOM     18  C   LIG    1       -1.728   2.259  -3.808  0.00  0.00    +0.290 C 
BRANCH  18  19
ATOM     19  C   LIG    1       -1.330   3.736  -3.850  0.00  0.00    +0.140 C 
ATOM     20  C   LIG    1       -2.590   4.604  -3.849  0.00  0.00    +0.010 C 
BRANCH  19  21
ATOM     21  O   LIG    1       -0.577   3.992  -5.037  0.00  0.00    -0.560 OA
ATOM     22  H   LIG    1       -0.290   4.911  -5.131  0.00  0.00    +0.380 HD
ENDBRANCH  19  21
ENDBRANCH  18  19
ENDBRANCH   2  18
BRANCH   2  23
ATOM     23  C   LIG    1        0.162   0.960  -4.895  0.00  0.00    +0.340 C 
BRANCH  23  24
ATOM     24  C   LIG    1       -0.407  -0.373  -5.306  0.00  0.00    -0.110 A 
ATOM     25  C   LIG    1        0.147  -1.542  -4.819  0.00  0.00    +0.030 A 
ATOM     26  C   LIG    1       -0.378  -2.764  -5.193  0.00  0.00    +0.000 A 
ATOM     27  C   LIG    1       -1.452  -2.819  -6.062  0.00  0.00    +0.000 A 
ATOM     28  C   LIG    1       -2.003  -1.650  -6.554  0.00  0.00    -0.010 A 
ATOM     29  C   LIG    1       -1.481  -0.427  -6.176  0.00  0.00    +0.010 A 
ENDBRANCH  23  24
ENDBRANCH   2  23
TORSDOF 8
