REMARK  Name = ZINCrD0000070XrP.0
REMARK                            x       y       z     vdW  Elec       q    Type
REMARK                         _______ _______ _______ _____ _____    ______ ____
ROOT
ATOM      1  C   LIG    1        0.051   1.801   0.311  0.00  0.00    +0.580 C 
ATOM      2  N   LIG    1       -0.098   0.502   0.637  0.00  0.00    -0.610 N 
ATOM      3  C   LIG    1        0.986  -0.410   1.048  0.00  0.00    +0.250 C 
ATOM      4  C   LIG    1        0.462  -1.827   0.708  0.00  0.00    +0.040 C 
ATOM      5  C   LIG    1       -1.045  -1.693   1.054  0.00  0.00    +0.040 C 
ATOM      6  C   LIG    1       -1.367  -0.240   0.647  0.00  0.00    +0.260 C 
ATOM      7  O   LIG    1        1.145   2.325   0.385  0.00  0.00    -0.530 OA
ENDROOT
BRANCH   6   8
ATOM      8  C   LIG    1       -2.312   0.377   1.646  0.00  0.00    -0.100 A 
ATOM      9  C   LIG    1       -1.814   1.009   2.769  0.00  0.00    +0.030 A 
ATOM     10  C   LIG    1       -2.678   1.574   3.688  0.00  0.00    +0.020 A 
ATOM     11  C   LIG    1       -4.048   1.510   3.485  0.00  0.00    +0.060 A 
ATOM     12  O   LIG    1       -4.886   2.065   4.402  0.00  0.00    -0.310 OA
ATOM     13  C   LIG    1       -6.232   2.308   3.979  0.00  0.00    +0.220 C 
ATOM     14  C   LIG    1       -6.742   1.054   3.255  0.00  0.00    +0.220 C 
ATOM     15  O   LIG    1       -5.890   0.809   2.130  0.00  0.00    -0.310 OA
ATOM     16  C   LIG    1       -4.549   0.877   2.353  0.00  0.00    +0.060 A 
ATOM     17  C   LIG    1       -3.677   0.315   1.434  0.00  0.00    +0.030 A 
ENDBRANCH   6   8
BRANCH   1  22
ATOM     18  C   LIG    1       -2.095   4.694  -0.770  0.00  0.00    +0.130 A 
ATOM     19  C   LIG    1       -3.319   4.064  -0.958  0.00  0.00    +0.010 A 
ATOM     20  C   LIG    1       -3.443   2.706  -0.734  0.00  0.00    +0.020 A 
ATOM     21  C   LIG    1       -2.352   1.966  -0.328  0.00  0.00    +0.040 A 
ATOM     22  C   LIG    1       -1.119   2.591  -0.131  0.00  0.00    -0.110 A 
ATOM     23  C   LIG    1       -0.993   3.961  -0.357  0.00  0.00    +0.090 A 
BRANCH  18  26
ATOM     24  C   LIG    1       -0.656   8.065  -1.632  0.00  0.00    +0.110 C 
ATOM     25  C   LIG    1       -0.817   6.576  -1.471  0.00  0.00    +0.510 C 
ATOM     26  N   LIG    1       -1.974   6.070  -0.999  0.00  0.00    -0.680 N 
ATOM     27  H   LIG    1       -2.722   6.660  -0.817  0.00  0.00    +0.410 HD
ATOM     28  O   LIG    1        0.094   5.832  -1.767  0.00  0.00    -0.520 OA
ENDBRANCH  18  26
ENDBRANCH   1  22
TORSDOF 3
