REMARK  Name = ZINCpk00000e9dM0.0
REMARK                            x       y       z     vdW  Elec       q    Type
REMARK                         _______ _______ _______ _____ _____    ______ ____
ROOT
ATOM      1  N   LIG    1        0.545   6.230   2.048  0.00  0.00    -0.510 N 
ATOM      2  C   LIG    1        1.700   5.990   2.697  0.00  0.00    +0.710 A 
ATOM      3  N   LIG    1        2.135   4.738   2.925  0.00  0.00    -0.650 N 
ATOM      4  H   LIG    1        2.972   4.602   3.396  0.00  0.00    +0.440 HD
ATOM      5  C   LIG    1        1.424   3.670   2.509  0.00  0.00    +0.600 A 
ATOM      6  C   LIG    1        0.204   3.875   1.830  0.00  0.00    -0.140 A 
ATOM      7  N   LIG    1       -0.749   3.044   1.275  0.00  0.00    -0.390 N 
ATOM      8  C   LIG    1       -1.703   3.836   0.747  0.00  0.00    +0.280 A 
ATOM      9  N   LIG    1       -1.391   5.092   0.940  0.00  0.00    -0.470 NA
ATOM     10  O   LIG    1        1.828   2.540   2.722  0.00  0.00    -0.510 OA
ATOM     11  O   LIG    1        2.368   6.929   3.086  0.00  0.00    -0.530 OA
ATOM     12  C   LIG    1       -0.230   5.174   1.596  0.00  0.00    +0.320 A 
ENDROOT
BRANCH   7  13
ATOM     13  C   LIG    1       -0.729   1.579   1.267  0.00  0.00    +0.300 C 
ATOM     14  C   LIG    1       -0.013   1.086   0.008  0.00  0.00    +0.050 C 
ENDBRANCH   7  13
BRANCH   1  15
ATOM     15  C   LIG    1        0.107   7.609   1.819  0.00  0.00    +0.320 C 
BRANCH  15  16
ATOM     16  C   LIG    1       -0.754   8.073   2.995  0.00  0.00    +0.000 C 
BRANCH  16  18
ATOM     17  C   LIG    1       -2.073   9.977   3.933  0.00  0.00    +0.010 C 
ATOM     18  C   LIG    1       -1.211   9.513   2.756  0.00  0.00    +0.020 C 
ENDBRANCH  16  18
ENDBRANCH  15  16
ENDBRANCH   1  15
BRANCH   8  19
ATOM     19  C   LIG    1       -2.942   3.348   0.042  0.00  0.00    +0.370 C 
BRANCH  19  20
ATOM     20  O   LIG    1       -4.013   3.176   1.007  0.00  0.00    -0.350 OA
BRANCH  20  21
ATOM     21  C   LIG    1       -5.193   2.744   0.537  0.00  0.00    +0.500 C 
ATOM     22  O   LIG    1       -5.328   2.516  -0.642  0.00  0.00    -0.490 OA
BRANCH  21  23
ATOM     23  C   LIG    1       -6.351   2.541   1.481  0.00  0.00    -0.030 C 
ATOM     24  C   LIG    1       -7.538   3.498   1.357  0.00  0.00    +0.070 C 
ATOM     25  C   LIG    1       -7.671   2.049   0.884  0.00  0.00    +0.010 C 
ATOM     26  C   LIG    1       -7.714   1.799  -0.625  0.00  0.00    +0.070 C 
ENDBRANCH  21  23
ENDBRANCH  20  21
ENDBRANCH  19  20
ENDBRANCH   8  19
TORSDOF 8
