REMARK  Name = ZINCrD00000hQ6Oe.0
REMARK                            x       y       z     vdW  Elec       q    Type
REMARK                         _______ _______ _______ _____ _____    ______ ____
ROOT
ATOM      1  C   LIG    1       -1.081  -2.237   6.394  0.00  0.00    +0.140 A 
ATOM      2  N   LIG    1       -0.814  -0.977   6.662  0.00  0.00    -0.220 NA
ATOM      3  N   LIG    1       -1.156  -0.240   5.665  0.00  0.00    -0.300 NA
ATOM      4  C   LIG    1       -1.662  -0.989   4.703  0.00  0.00    +0.380 A 
ATOM      5  N   LIG    1       -1.637  -2.273   5.132  0.00  0.00    -0.440 N 
ENDROOT
BRANCH   4   6
ATOM      6  N   LIG    1       -2.134  -0.545   3.487  0.00  0.00    -0.460 N 
ATOM      7  C   LIG    1       -2.674   0.816   3.598  0.00  0.00    +0.220 C 
ATOM      8  C   LIG    1       -3.319   1.219   2.269  0.00  0.00    +0.040 C 
ATOM      9  C   LIG    1       -2.268   1.155   1.158  0.00  0.00    -0.060 C 
ATOM     10  C   LIG    1       -1.687  -0.260   1.096  0.00  0.00    +0.050 C 
ATOM     11  C   LIG    1       -1.149   2.154   1.456  0.00  0.00    +0.020 C 
ATOM     12  C   LIG    1       -0.098   2.088   0.345  0.00  0.00    +0.000 C 
ATOM     13  C   LIG    1       -0.750   2.436  -0.995  0.00  0.00    +0.000 C 
ATOM     14  C   LIG    1       -1.868   1.435  -1.292  0.00  0.00    +0.000 C 
ATOM     15  C   LIG    1       -2.919   1.500  -0.182  0.00  0.00    +0.010 C 
ATOM     16  C   LIG    1       -1.089  -0.621   2.458  0.00  0.00    +0.190 C 
ENDBRANCH   4   6
BRANCH   1  18
ATOM     17  O   LIG    1       -1.135  -4.509   6.907  0.00  0.00    -0.530 OA
ATOM     18  C   LIG    1       -0.840  -3.388   7.276  0.00  0.00    +0.620 C 
ATOM     19  N   LIG    1       -0.292  -3.201   8.493  0.00  0.00    -0.590 N 
ATOM     20  C   LIG    1        0.117  -1.907   9.059  0.00  0.00    +0.260 C 
ATOM     21  C   LIG    1        0.710  -2.186  10.456  0.00  0.00    +0.040 C 
ATOM     22  C   LIG    1        1.130  -3.677  10.362  0.00  0.00    +0.040 C 
ATOM     23  C   LIG    1        0.004  -4.261   9.474  0.00  0.00    +0.270 C 
ENDBRANCH   1  18
BRANCH   5  24
ATOM     24  C   LIG    1       -2.103  -3.456   4.405  0.00  0.00    +0.330 C 
BRANCH  24  25
ATOM     25  C   LIG    1       -3.598  -3.657   4.662  0.00  0.00    +0.380 C 
ATOM     26  F   LIG    1       -3.806  -3.928   6.019  0.00  0.00    -0.190 F 
ATOM     27  F   LIG    1       -4.062  -4.732   3.896  0.00  0.00    -0.190 F 
ENDBRANCH  24  25
ENDBRANCH   5  24
TORSDOF 4
