REMARK  Name = ZINCpe00000bcSwn.0
REMARK                            x       y       z     vdW  Elec       q    Type
REMARK                         _______ _______ _______ _____ _____    ______ ____
ROOT
ATOM      1  C   LIG    1       -3.223   1.996  -2.525  0.00  0.00    +0.500 C 
ATOM      2  N   LIG    1       -2.888   1.432  -1.347  0.00  0.00    -0.620 N 
ATOM      3  C   LIG    1       -1.837   0.408  -1.281  0.00  0.00    +0.290 C 
ATOM      4  C   LIG    1       -0.780   0.856  -0.264  0.00  0.00    +0.290 C 
ATOM      5  N   LIG    1       -1.458   1.256   0.977  0.00  0.00    -0.610 N 
ATOM      6  C   LIG    1       -2.512   2.278   0.910  0.00  0.00    +0.270 C 
ATOM      7  C   LIG    1       -1.121   0.694   2.155  0.00  0.00    +0.570 C 
ATOM      8  O   LIG    1       -0.327  -0.226   2.184  0.00  0.00    -0.520 OA
ATOM      9  C   LIG    1       -3.569   1.831  -0.107  0.00  0.00    +0.270 C 
ATOM     10  O   LIG    1       -2.654   1.660  -3.542  0.00  0.00    -0.520 OA
ENDROOT
BRANCH   7  11
ATOM     11  C   LIG    1       -1.719   1.194   3.410  0.00  0.00    -0.110 A 
ATOM     12  C   LIG    1       -1.946   2.561   3.581  0.00  0.00    +0.070 A 
ATOM     13  C   LIG    1       -2.508   3.024   4.752  0.00  0.00    +0.030 A 
ATOM     14  C   LIG    1       -2.838   2.136   5.763  0.00  0.00    +0.090 A 
ATOM     15  C   LIG    1       -2.610   0.776   5.602  0.00  0.00    +0.070 A 
ATOM     16  F   LIG    1       -2.934  -0.085   6.592  0.00  0.00    -0.120 F 
ATOM     17  F   LIG    1       -3.385   2.596   6.910  0.00  0.00    -0.120 F 
ATOM     18  C   LIG    1       -2.053   0.302   4.432  0.00  0.00    +0.090 A 
ENDBRANCH   7  11
BRANCH   1  19
ATOM     19  C   LIG    1       -4.303   3.046  -2.578  0.00  0.00    +0.330 C 
BRANCH  19  21
ATOM     20  C   LIG    1       -5.357   2.874  -4.768  0.00  0.00    +0.550 C 
ATOM     21  N   LIG    1       -4.477   3.498  -3.960  0.00  0.00    -0.600 N 
ATOM     22  C   LIG    1       -3.694   4.629  -4.465  0.00  0.00    +0.290 C 
ATOM     23  O   LIG    1       -6.007   1.935  -4.349  0.00  0.00    -0.540 OA
BRANCH  20  25
ATOM     24  C   LIG    1       -6.400   2.712  -6.953  0.00  0.00    +0.140 C 
ATOM     25  C   LIG    1       -5.532   3.328  -6.156  0.00  0.00    -0.090 C 
ENDBRANCH  20  25
ENDBRANCH  19  21
ENDBRANCH   1  19
TORSDOF 4
