REMARK  Name = ZINCvU0000000AHq.0
REMARK                            x       y       z     vdW  Elec       q    Type
REMARK                         _______ _______ _______ _____ _____    ______ ____
ROOT
ATOM      1  C   LIG    1       -4.734  -1.625   0.039  0.00  0.00    +0.270 C 
ENDROOT
BRANCH   1   5
ATOM      2  C   LIG    1       -1.190  -0.867   0.009  0.00  0.00    +0.250 A 
ATOM      3  N   LIG    1       -1.202  -2.181   0.003  0.00  0.00    -0.250 NA
ATOM      4  N   LIG    1       -2.420  -2.594   0.012  0.00  0.00    -0.250 NA
ATOM      5  C   LIG    1       -3.228  -1.570   0.025  0.00  0.00    +0.180 A 
ATOM      6  O   LIG    1       -2.475  -0.456   0.028  0.00  0.00    -0.200 OA
BRANCH   2   9
ATOM      7  C   LIG    1        1.750  -1.879  -0.025  0.00  0.00    +0.160 C 
ATOM      8  C   LIG    1        1.286  -0.446  -0.013  0.00  0.00    -0.060 A 
ATOM      9  C   LIG    1        0.002  -0.004   0.002  0.00  0.00    +0.060 A 
ATOM     10  O   LIG    1       -0.016   1.344   0.009  0.00  0.00    -0.180 OA
ATOM     11  C   LIG    1        1.237   1.842   0.000  0.00  0.00    +0.080 A 
ATOM     12  C   LIG    1        1.748   3.133   0.002  0.00  0.00    +0.030 A 
ATOM     13  C   LIG    1        3.113   3.332  -0.010  0.00  0.00    +0.070 A 
ATOM     14  C   LIG    1        3.986   2.253  -0.025  0.00  0.00    +0.000 A 
ATOM     15  C   LIG    1        3.505   0.974  -0.026  0.00  0.00    +0.080 A 
ATOM     16  C   LIG    1        2.127   0.752  -0.014  0.00  0.00    -0.140 A 
ENDBRANCH   2   9
ENDBRANCH   1   5
BRANCH   1  17
ATOM     17  S   LIG    1       -5.320  -1.656   1.751  0.00  0.00    +0.050 S 
BRANCH  17  18
ATOM     18  C   LIG    1       -7.059  -1.718   1.478  0.00  0.00    +0.150 A 
ATOM     19  N   LIG    1       -7.667  -1.729   0.314  0.00  0.00    -0.280 NA
ATOM     20  N   LIG    1       -8.940  -1.781   0.486  0.00  0.00    -0.280 NA
ATOM     21  C   LIG    1       -9.218  -1.798   1.759  0.00  0.00    +0.230 A 
ATOM     22  N   LIG    1       -8.031  -1.759   2.436  0.00  0.00    -0.460 N 
BRANCH  21  23
ATOM     23  C   LIG    1      -10.595  -1.852   2.371  0.00  0.00    +0.030 C 
ATOM     24  C   LIG    1      -11.777  -2.096   1.431  0.00  0.00    +0.080 C 
ATOM     25  C   LIG    1      -11.558  -0.710   2.043  0.00  0.00    +0.060 C 
ENDBRANCH  21  23
BRANCH  22  26
ATOM     26  C   LIG    1       -7.841  -1.761   3.889  0.00  0.00    +0.440 C 
BRANCH  26  27
ATOM     27  C   LIG    1       -7.828  -0.341   4.395  0.00  0.00    -0.060 A 
ATOM     28  C   LIG    1       -8.903   0.361   4.796  0.00  0.00    -0.020 A 
ATOM     29  C   LIG    1       -8.436   1.636   5.190  0.00  0.00    -0.070 A 
ATOM     30  C   LIG    1       -7.104   1.639   4.999  0.00  0.00    +0.190 A 
ATOM     31  O   LIG    1       -6.742   0.439   4.517  0.00  0.00    -0.160 OA
ENDBRANCH  26  27
ENDBRANCH  22  26
ENDBRANCH  17  18
ENDBRANCH   1  17
TORSDOF 7
