REMARK  Name = ZINCpe000000Zy0I.0
REMARK                            x       y       z     vdW  Elec       q    Type
REMARK                         _______ _______ _______ _____ _____    ______ ____
ROOT
ATOM      1  C   LIG    1       -0.012   1.095   0.002  0.00  0.00    +0.000 C 
ATOM      2  C   LIG    1       -0.556   1.615   1.352  0.00  0.00    +0.090 C 
ATOM      3  C   LIG    1        0.683   1.835   2.192  0.00  0.00    +0.520 C 
ATOM      4  N   LIG    1        1.774   1.858   1.408  0.00  0.00    -0.560 N 
ATOM      5  O   LIG    1        0.690   1.971   3.397  0.00  0.00    -0.500 OA
ATOM      6  C   LIG    1        1.421   1.673  -0.004  0.00  0.00    +0.310 C 
ENDROOT
BRANCH   1  14
ATOM      7  O   LIG    1       -5.476  -1.169  -1.226  0.00  0.00    -0.540 OA
ATOM      8  C   LIG    1       -4.466  -0.667  -1.671  0.00  0.00    +0.520 C 
ATOM      9  C   LIG    1       -3.143  -0.899  -0.976  0.00  0.00    +0.060 C 
ATOM     10  C   LIG    1       -2.712   0.400  -0.297  0.00  0.00    +0.290 C 
ATOM     11  N   LIG    1       -2.115   1.299  -1.283  0.00  0.00    -0.610 N 
ATOM     12  C   LIG    1       -2.870   1.841  -2.410  0.00  0.00    +0.280 C 
ATOM     13  C   LIG    1       -3.316   0.700  -3.330  0.00  0.00    +0.270 C 
ATOM     14  C   LIG    1       -0.817   1.637  -1.151  0.00  0.00    +0.530 C 
ATOM     15  O   LIG    1       -0.298   2.378  -1.958  0.00  0.00    -0.520 OA
ATOM     16  N   LIG    1       -4.529   0.087  -2.772  0.00  0.00    -0.730 N 
ATOM     17  H   LIG    1       -5.384   0.232  -3.207  0.00  0.00    +0.400 HD
ENDBRANCH   1  14
BRANCH   4  18
ATOM     18  C   LIG    1        3.080   2.035   1.878  0.00  0.00    +0.160 A 
ATOM     19  C   LIG    1        4.155   1.926   1.006  0.00  0.00    -0.030 A 
ATOM     20  C   LIG    1        5.441   2.102   1.475  0.00  0.00    +0.050 A 
ATOM     21  C   LIG    1        5.665   2.386   2.812  0.00  0.00    -0.120 A 
ATOM     22  C   LIG    1        6.960   2.619   3.561  0.00  0.00    +0.070 C 
ATOM     23  C   LIG    1        6.548   3.310   4.878  0.00  0.00    +0.030 C 
ATOM     24  C   LIG    1        5.101   2.808   5.076  0.00  0.00    +0.080 C 
ATOM     25  C   LIG    1        4.596   2.495   3.683  0.00  0.00    -0.070 A 
ATOM     26  C   LIG    1        3.305   2.325   3.216  0.00  0.00    +0.010 A 
ENDBRANCH   4  18
TORSDOF 2
