REMARK  Name = ZINCvU0000000IlD.0
REMARK                            x       y       z     vdW  Elec       q    Type
REMARK                         _______ _______ _______ _____ _____    ______ ____
ROOT
ATOM      1  C   LIG    1       -0.546  -1.533   2.160  0.00  0.00    +0.620 C 
ATOM      2  N   LIG    1       -0.280  -2.843   2.328  0.00  0.00    -0.600 N 
ATOM      3  C   LIG    1        0.231  -3.345   3.610  0.00  0.00    +0.290 C 
ATOM      4  C   LIG    1        1.514  -4.136   3.359  0.00  0.00    +0.010 C 
ATOM      5  C   LIG    1        1.243  -5.227   2.320  0.00  0.00    +0.170 C 
ATOM      6  C   LIG    1        0.805  -4.581   1.003  0.00  0.00    +0.040 C 
ATOM      7  C   LIG    1       -0.490  -3.796   1.229  0.00  0.00    +0.310 C 
ATOM      8  O   LIG    1       -1.051  -1.142   1.125  0.00  0.00    -0.510 OA
ENDROOT
BRANCH   1  12
ATOM      9  N   LIG    1       -0.422   0.807   4.911  0.00  0.00    -0.300 N 
ATOM     10  N   LIG    1        0.922   0.707   4.525  0.00  0.00    -0.060 NA
ATOM     11  N   LIG    1        1.000  -0.110   3.533  0.00  0.00    -0.190 NA
ATOM     12  C   LIG    1       -0.226  -0.572   3.233  0.00  0.00    -0.090 A 
ATOM     13  C   LIG    1       -1.125   0.001   4.087  0.00  0.00    +0.110 A 
BRANCH   9  18
ATOM     14  C   LIG    1       -2.506   3.986   9.127  0.00  0.00    +0.100 C 
ATOM     15  C   LIG    1       -1.952   3.142   8.007  0.00  0.00    -0.070 A 
ATOM     16  C   LIG    1       -0.708   2.554   8.137  0.00  0.00    +0.040 A 
ATOM     17  C   LIG    1       -0.198   1.780   7.113  0.00  0.00    +0.050 A 
ATOM     18  C   LIG    1       -0.937   1.592   5.953  0.00  0.00    +0.120 A 
ATOM     19  C   LIG    1       -2.184   2.189   5.823  0.00  0.00    +0.020 A 
ATOM     20  C   LIG    1       -2.691   2.957   6.853  0.00  0.00    +0.040 A 
ENDBRANCH   9  18
BRANCH  13  21
ATOM     21  C   LIG    1       -2.615  -0.229   4.110  0.00  0.00    +0.060 C 
ATOM     22  C   LIG    1       -2.898  -1.730   4.179  0.00  0.00    +0.050 C 
ATOM     23  C   LIG    1       -3.239   0.350   2.838  0.00  0.00    +0.050 C 
ENDBRANCH  13  21
ENDBRANCH   1  12
BRANCH   5  24
ATOM     24  O   LIG    1        2.434  -5.987   2.106  0.00  0.00    -0.300 OA
BRANCH  24  25
ATOM     25  C   LIG    1        2.681  -7.004   2.973  0.00  0.00    +0.140 A 
ATOM     26  C   LIG    1        3.805  -7.799   2.807  0.00  0.00    +0.000 A 
ATOM     27  C   LIG    1        4.058  -8.830   3.692  0.00  0.00    +0.070 A 
ATOM     28  C   LIG    1        3.184  -9.075   4.737  0.00  0.00    -0.070 A 
ATOM     29  C   LIG    1        2.059  -8.287   4.900  0.00  0.00    +0.070 A 
ATOM     30 CL   LIG    1        3.500 -10.375   5.843  0.00  0.00    -0.070 Cl
ATOM     31  C   LIG    1        1.806  -7.252   4.020  0.00  0.00    -0.060 A 
ENDBRANCH  24  25
ENDBRANCH   5  24
TORSDOF 5
