REMARK  Name = ZINCrD00000l1fKR.0
REMARK                            x       y       z     vdW  Elec       q    Type
REMARK                         _______ _______ _______ _____ _____    ______ ____
ROOT
ATOM      1  O   LIG    1       -2.625   8.289  -0.362  0.00  0.00    -0.320 OA
ENDROOT
BRANCH   1   2
ATOM      2  C   LIG    1       -1.262   7.830  -0.162  0.00  0.00    +0.190 C 
ATOM      3  C   LIG    1       -0.703   8.438   1.126  0.00  0.00    +0.070 C 
BRANCH   2   6
ATOM      4  N   LIG    1       -0.075   5.668   0.031  0.00  0.00    -0.670 N 
ATOM      5  H   LIG    1        0.756   6.164   0.103  0.00  0.00    +0.410 HD
ATOM      6  C   LIG    1       -1.248   6.327  -0.056  0.00  0.00    +0.520 C 
ATOM      7  O   LIG    1       -2.292   5.710  -0.049  0.00  0.00    -0.490 OA
BRANCH   4  11
ATOM      8  C   LIG    1       -0.018   1.503  -0.005  0.00  0.00    -0.090 A 
ATOM      9  C   LIG    1        0.915   2.199   0.741  0.00  0.00    +0.030 A 
ATOM     10  C   LIG    1        0.902   3.580   0.751  0.00  0.00    -0.010 A 
ATOM     11  C   LIG    1       -0.055   4.269   0.019  0.00  0.00    +0.140 A 
ATOM     12  C   LIG    1       -0.994   3.567  -0.725  0.00  0.00    +0.010 A 
ATOM     13  C   LIG    1       -0.973   2.186  -0.735  0.00  0.00    +0.030 A 
BRANCH   8  15
ATOM     14  C   LIG    1        0.895  -0.492  -1.161  0.00  0.00    +0.030 C 
ATOM     15  C   LIG    1        0.003  -0.004  -0.018  0.00  0.00    +0.050 C 
ENDBRANCH   8  15
ENDBRANCH   4  11
ENDBRANCH   2   6
ENDBRANCH   1   2
BRANCH   1  16
ATOM     16  C   LIG    1       -2.791   9.420  -1.065  0.00  0.00    +0.460 C 
ATOM     17  O   LIG    1       -1.828  10.008  -1.499  0.00  0.00    -0.500 OA
BRANCH  16  18
ATOM     18  C   LIG    1       -4.177   9.957  -1.313  0.00  0.00    +0.370 C 
BRANCH  18  19
ATOM     19  N   LIG    1       -4.089  11.191  -2.098  0.00  0.00    -0.720 N 
ATOM     20  H   LIG    1       -3.223  11.532  -2.370  0.00  0.00    +0.410 HD
ATOM     21  C   LIG    1       -5.212  11.852  -2.441  0.00  0.00    +0.570 C 
ATOM     22  O   LIG    1       -6.298  11.425  -2.100  0.00  0.00    -0.520 OA
BRANCH  21  23
ATOM     23  C   LIG    1       -5.124  13.097  -3.232  0.00  0.00    -0.120 A 
ATOM     24  C   LIG    1       -3.878  13.594  -3.621  0.00  0.00    +0.060 A 
ATOM     25  C   LIG    1       -3.803  14.754  -4.363  0.00  0.00    +0.040 A 
ATOM     26  C   LIG    1       -4.958  15.431  -4.715  0.00  0.00    -0.070 A 
ATOM     27  C   LIG    1       -6.197  14.946  -4.328  0.00  0.00    +0.040 A 
ATOM     28 BR   LIG    1       -4.846  17.024  -5.727  0.00  0.00    -0.040 Br
ATOM     29  C   LIG    1       -6.285  13.784  -3.590  0.00  0.00    +0.100 A 
ENDBRANCH  21  23
ENDBRANCH  18  19
ENDBRANCH  16  18
ENDBRANCH   1  16
TORSDOF 8
