REMARK  Name = ZINCpk00000y6xVv.0
REMARK                            x       y       z     vdW  Elec       q    Type
REMARK                         _______ _______ _______ _____ _____    ______ ____
ROOT
ATOM      1  N   LIG    1       -3.746   7.242   0.035  0.00  0.00    -0.720 N 
ATOM      2  H   LIG    1       -2.900   7.714  -0.001  0.00  0.00    +0.400 HD
ATOM      3  C   LIG    1       -3.765   5.894   0.045  0.00  0.00    +0.560 C 
ATOM      4  O   LIG    1       -4.826   5.302   0.091  0.00  0.00    -0.520 OA
ENDROOT
BRANCH   1   9
ATOM      5  C   LIG    1       -8.054   7.185  -2.343  0.00  0.00    +0.120 C 
ATOM      6  C   LIG    1       -7.918   8.591  -1.819  0.00  0.00    +0.510 C 
ATOM      7  N   LIG    1       -6.748   9.004  -1.293  0.00  0.00    -0.610 N 
ATOM      8  C   LIG    1       -5.560   8.141  -1.339  0.00  0.00    +0.280 C 
ATOM      9  C   LIG    1       -5.003   7.993   0.080  0.00  0.00    +0.230 C 
ATOM     10  C   LIG    1       -4.748   9.381   0.671  0.00  0.00    +0.050 C 
ATOM     11  C   LIG    1       -6.066  10.155   0.748  0.00  0.00    +0.060 C 
ATOM     12  C   LIG    1       -6.636  10.327  -0.664  0.00  0.00    +0.220 C 
ATOM     13  O   LIG    1       -8.862   9.351  -1.869  0.00  0.00    -0.520 OA
BRANCH  12  14
ATOM     14  C   LIG    1       -8.019  10.976  -0.583  0.00  0.00    +0.470 C 
ATOM     15  F   LIG    1       -8.914  10.091   0.028  0.00  0.00    -0.170 F 
ATOM     16  F   LIG    1       -8.468  11.278  -1.873  0.00  0.00    -0.160 F 
ATOM     17  F   LIG    1       -7.939  12.152   0.170  0.00  0.00    -0.190 F 
ENDBRANCH  12  14
ENDBRANCH   1   9
BRANCH   3  18
ATOM     18  C   LIG    1       -2.497   5.136   0.001  0.00  0.00    -0.140 A 
ATOM     19  C   LIG    1       -1.277   5.815  -0.052  0.00  0.00    +0.070 A 
ATOM     20  C   LIG    1       -0.091   5.108  -0.095  0.00  0.00    +0.010 A 
ATOM     21  C   LIG    1       -0.102   3.728  -0.079  0.00  0.00    +0.070 A 
ATOM     22  C   LIG    1       -1.315   3.036  -0.032  0.00  0.00    -0.140 A 
ATOM     23  C   LIG    1       -2.515   3.743   0.011  0.00  0.00    +0.150 A 
BRANCH  22  24
ATOM     24  C   LIG    1       -1.325   1.558  -0.022  0.00  0.00    +0.560 C 
ATOM     25  O   LIG    1       -2.381   0.957   0.024  0.00  0.00    -0.530 OA
ATOM     26  N   LIG    1       -0.164   0.875  -0.063  0.00  0.00    -0.850 N 
ATOM     27  H   LIG    1        0.679   1.355  -0.104  0.00  0.00    +0.400 HD
ATOM     28  H   LIG    1       -0.170  -0.095  -0.057  0.00  0.00    +0.410 HD
ENDBRANCH  22  24
ENDBRANCH   3  18
TORSDOF 4
