REMARK  Name = ZINCqH0000000tsK.0
REMARK                            x       y       z     vdW  Elec       q    Type
REMARK                         _______ _______ _______ _____ _____    ______ ____
ROOT
ATOM      1  C   LIG    1       -8.075   1.120   7.894  0.00  0.00    +0.090 A 
ATOM      2  C   LIG    1       -6.939   1.887   7.678  0.00  0.00    +0.100 A 
ATOM      3  C   LIG    1       -6.139   1.642   6.580  0.00  0.00    -0.040 A 
ATOM      4  C   LIG    1       -6.477   0.635   5.685  0.00  0.00    +0.260 A 
ATOM      5  C   LIG    1       -7.614  -0.132   5.901  0.00  0.00    -0.240 A 
ATOM      6  C   LIG    1       -8.411   0.109   7.002  0.00  0.00    +0.090 A 
ENDROOT
BRANCH   1   9
ATOM      7  C   LIG    1       -9.795   2.870  10.751  0.00  0.00    +0.110 C 
ATOM      8  C   LIG    1       -9.023   2.621   9.481  0.00  0.00    +0.510 C 
ATOM      9  N   LIG    1       -8.884   1.365   9.011  0.00  0.00    -0.670 N 
ATOM     10  H   LIG    1       -9.345   0.631   9.447  0.00  0.00    +0.410 HD
ATOM     11  O   LIG    1       -8.526   3.550   8.881  0.00  0.00    -0.530 OA
ENDBRANCH   1   9
BRANCH   5  12
ATOM     12  C   LIG    1       -7.978  -1.229   4.934  0.00  0.00    +0.510 C 
ATOM     13  F   LIG    1       -6.942  -2.167   4.881  0.00  0.00    -0.180 F 
ATOM     14  F   LIG    1       -8.176  -0.682   3.662  0.00  0.00    -0.180 F 
ATOM     15  F   LIG    1       -9.154  -1.856   5.360  0.00  0.00    -0.180 F 
ENDBRANCH   5  12
BRANCH   4  16
ATOM     16  N   LIG    1       -5.669   0.391   4.569  0.00  0.00    -0.730 N 
ATOM     17  H   LIG    1       -5.903  -0.315   3.946  0.00  0.00    +0.410 HD
BRANCH  16  18
ATOM     18  C   LIG    1       -4.470   1.200   4.341  0.00  0.00    +0.300 C 
BRANCH  18  19
ATOM     19  C   LIG    1       -3.783   0.738   3.082  0.00  0.00    +0.510 C 
ATOM     20  N   LIG    1       -2.650   1.342   2.671  0.00  0.00    -0.720 N 
ATOM     21  H   LIG    1       -2.277   2.074   3.186  0.00  0.00    +0.400 HD
ATOM     22  O   LIG    1       -4.249  -0.179   2.439  0.00  0.00    -0.530 OA
BRANCH  20  23
ATOM     23  C   LIG    1       -1.983   0.892   1.448  0.00  0.00    +0.240 C 
ATOM     24  C   LIG    1       -2.616   1.582   0.238  0.00  0.00    +0.000 C 
ATOM     25  C   LIG    1       -1.918   1.112  -1.040  0.00  0.00    +0.010 C 
ATOM     26  C   LIG    1       -0.432   1.468  -0.971  0.00  0.00    +0.010 C 
ATOM     27  C   LIG    1        0.201   0.777   0.239  0.00  0.00    +0.030 C 
ATOM     28  C   LIG    1       -0.496   1.247   1.517  0.00  0.00    -0.020 C 
ATOM     29  C   LIG    1        0.137   0.557   2.727  0.00  0.00    +0.030 C 
ENDBRANCH  20  23
ENDBRANCH  18  19
ENDBRANCH  16  18
ENDBRANCH   4  16
TORSDOF 6
