REMARK  Name = ZINCkj000005m50f.0
REMARK                            x       y       z     vdW  Elec       q    Type
REMARK                         _______ _______ _______ _____ _____    ______ ____
ROOT
ATOM      1  O   LIG    1        2.288   1.678   1.332  0.00  0.00    -0.480 OA
ATOM      2  C   LIG    1        3.445   2.006   1.488  0.00  0.00    +0.520 C 
ATOM      3  N   LIG    1        3.799   3.302   1.380  0.00  0.00    -0.580 N 
ENDROOT
BRANCH   2   4
ATOM      4  C   LIG    1        4.487   0.964   1.804  0.00  0.00    +0.150 C 
ATOM      5  C   LIG    1        4.869   1.055   3.284  0.00  0.00    +0.260 C 
ATOM      6  N   LIG    1        5.842   0.001   3.602  0.00  0.00    -0.500 N 
ATOM      7  C   LIG    1        5.245  -1.313   3.329  0.00  0.00    +0.240 C 
ATOM      8  C   LIG    1        4.863  -1.400   1.850  0.00  0.00    +0.260 C 
ATOM      9  H   LIG    1        6.667   0.121   3.033  0.00  0.00    +0.430 HD
ATOM     10  H   LIG    1        6.095   0.060   4.577  0.00  0.00    +0.440 HD
ATOM     11  O   LIG    1        3.960  -0.337   1.533  0.00  0.00    -0.330 OA
ENDBRANCH   2   4
BRANCH   3  12
ATOM     12  C   LIG    1        2.769   4.333   1.234  0.00  0.00    +0.200 C 
ATOM     13  C   LIG    1        1.329   3.947   1.581  0.00  0.00    +0.040 C 
ATOM     14  C   LIG    1        1.736   4.147   0.120  0.00  0.00    +0.020 C 
ENDBRANCH   3  12
BRANCH   3  15
ATOM     15  C   LIG    1        5.214   3.679   1.407  0.00  0.00    +0.340 C 
BRANCH  15  16
ATOM     16  C   LIG    1        5.686   3.961   0.004  0.00  0.00    -0.150 A 
ATOM     17  C   LIG    1        5.935   5.261  -0.394  0.00  0.00    +0.070 A 
ATOM     18  C   LIG    1        6.368   5.520  -1.681  0.00  0.00    +0.020 A 
ATOM     19  C   LIG    1        6.551   4.479  -2.572  0.00  0.00    +0.060 A 
ATOM     20  C   LIG    1        6.303   3.178  -2.177  0.00  0.00    -0.010 A 
ATOM     21  C   LIG    1        5.876   2.917  -0.886  0.00  0.00    +0.100 A 
ATOM     22  F   LIG    1        5.638   1.645  -0.497  0.00  0.00    -0.140 F 
ENDBRANCH  15  16
ENDBRANCH   3  15
TORSDOF 4
