REMARK  Name = ZINCpk00000y6wdn.0
REMARK                            x       y       z     vdW  Elec       q    Type
REMARK                         _______ _______ _______ _____ _____    ______ ____
ROOT
ATOM      1  C   LIG    1        0.060  -4.250  -0.021  0.00  0.00    +0.580 C 
ATOM      2  N   LIG    1        1.230  -4.908  -0.138  0.00  0.00    -0.610 N 
ATOM      3  C   LIG    1        2.563  -4.287  -0.161  0.00  0.00    +0.270 C 
ATOM      4  C   LIG    1        3.594  -5.422  -0.335  0.00  0.00    +0.080 C 
ATOM      5  C   LIG    1        2.753  -6.562  -0.968  0.00  0.00    +0.110 C 
ATOM      6  C   LIG    1        1.387  -6.369  -0.258  0.00  0.00    +0.270 C 
ATOM      7  O   LIG    1       -0.979  -4.873   0.084  0.00  0.00    -0.530 OA
ENDROOT
BRANCH   1  11
ATOM      8  C   LIG    1        0.000  -0.004  -0.018  0.00  0.00    +0.160 A 
ATOM      9  C   LIG    1        1.214  -0.680   0.023  0.00  0.00    -0.080 A 
ATOM     10  C   LIG    1        1.237  -2.057   0.027  0.00  0.00    +0.070 A 
ATOM     11  C   LIG    1        0.039  -2.774  -0.021  0.00  0.00    -0.170 A 
ATOM     12  C   LIG    1       -1.179  -2.091  -0.067  0.00  0.00    +0.120 A 
ATOM     13  C   LIG    1       -1.194  -0.714  -0.066  0.00  0.00    -0.090 A 
BRANCH  13  14
ATOM     14  C   LIG    1       -2.507   0.024  -0.115  0.00  0.00    +0.010 C 
ATOM     15  C   LIG    1       -3.787  -0.800   0.037  0.00  0.00    +0.020 C 
ATOM     16  C   LIG    1       -3.409  -0.219  -1.327  0.00  0.00    +0.030 C 
ENDBRANCH  13  14
BRANCH   8  18
ATOM     17  C   LIG    1        1.244   2.019   0.033  0.00  0.00    +0.240 C 
ATOM     18  O   LIG    1       -0.019   1.353  -0.017  0.00  0.00    -0.310 OA
ENDBRANCH   8  18
ENDBRANCH   1  11
BRANCH   5  19
ATOM     19  O   LIG    1        2.631  -6.384  -2.381  0.00  0.00    -0.530 OA
ATOM     20  H   LIG    1        2.113  -7.072  -2.821  0.00  0.00    +0.380 HD
ENDBRANCH   5  19
BRANCH   5  21
ATOM     21  C   LIG    1        3.350  -7.932  -0.640  0.00  0.00    +0.340 C 
BRANCH  21  22
ATOM     22  N   LIG    1        2.531  -8.981  -1.253  0.00  0.00    -0.300 N 
ATOM     23  C   LIG    1        2.975  -9.942  -2.096  0.00  0.00    +0.140 A 
ATOM     24  C   LIG    1        1.894 -10.692  -2.414  0.00  0.00    +0.140 A 
ATOM     25  N   LIG    1        0.855 -10.155  -1.766  0.00  0.00    -0.260 NA
ATOM     26  N   LIG    1        1.265  -9.143  -1.087  0.00  0.00    -0.080 NA
ENDBRANCH  21  22
ENDBRANCH   5  21
TORSDOF 6
