REMARK  Name = ZINCvU0000000Ajf.0
REMARK                            x       y       z     vdW  Elec       q    Type
REMARK                         _______ _______ _______ _____ _____    ______ ____
ROOT
ATOM      1  O   LIG    1       -4.663   5.236   0.031  0.00  0.00    -0.500 OA
ATOM      2  C   LIG    1       -4.871   4.041   0.040  0.00  0.00    +0.530 C 
ATOM      3  N   LIG    1       -6.136   3.577   0.064  0.00  0.00    -0.580 N 
ATOM      4  H   LIG    1       -6.302   2.621   0.071  0.00  0.00    +0.390 HD
ENDROOT
BRANCH   3   5
ATOM      5  N   LIG    1       -7.212   4.475   0.080  0.00  0.00    -0.230 NA
ATOM      6  C   LIG    1       -8.433   4.027   0.103  0.00  0.00    +0.260 C 
BRANCH   6   7
ATOM      7  C   LIG    1       -9.558   4.966   0.119  0.00  0.00    -0.060 A 
ATOM      8  C   LIG    1      -10.883   4.494   0.017  0.00  0.00    -0.010 A 
ATOM      9  C   LIG    1      -11.157   3.121  -0.102  0.00  0.00    +0.000 A 
ATOM     10  C   LIG    1      -12.446   2.698  -0.199  0.00  0.00    +0.020 A 
ATOM     11  C   LIG    1      -13.512   3.595  -0.184  0.00  0.00    +0.010 A 
ATOM     12  C   LIG    1      -13.317   4.934  -0.059  0.00  0.00    +0.040 A 
ATOM     13  C   LIG    1      -12.002   5.439   0.040  0.00  0.00    -0.060 A 
ATOM     14  C   LIG    1      -11.765   6.809   0.150  0.00  0.00    +0.080 A 
ATOM     15  C   LIG    1      -10.457   7.285   0.246  0.00  0.00    -0.060 A 
ATOM     16  C   LIG    1      -10.193   8.667   0.360  0.00  0.00    +0.020 A 
ATOM     17  C   LIG    1       -8.908   9.098   0.450  0.00  0.00    +0.010 A 
ATOM     18  C   LIG    1       -7.835   8.209   0.435  0.00  0.00    +0.010 A 
ATOM     19  C   LIG    1       -8.023   6.866   0.329  0.00  0.00    +0.050 A 
ATOM     20  C   LIG    1       -9.328   6.353   0.231  0.00  0.00    -0.010 A 
ENDBRANCH   6   7
ENDBRANCH   3   5
BRANCH   2  21
ATOM     21  C   LIG    1       -3.714   3.075   0.024  0.00  0.00    +0.310 C 
BRANCH  21  22
ATOM     22  N   LIG    1       -2.455   3.822  -0.002  0.00  0.00    -0.730 N 
ATOM     23  H   LIG    1       -2.466   4.792  -0.006  0.00  0.00    +0.420 HD
BRANCH  22  24
ATOM     24  C   LIG    1       -1.237   3.138  -0.021  0.00  0.00    +0.220 A 
ATOM     25  C   LIG    1       -1.219   1.749  -0.020  0.00  0.00    -0.040 A 
ATOM     26  C   LIG    1       -0.013   1.076  -0.033  0.00  0.00    +0.070 A 
ATOM     27  C   LIG    1        1.175   1.783  -0.057  0.00  0.00    +0.010 A 
ATOM     28  C   LIG    1        1.161   3.166  -0.063  0.00  0.00    -0.130 A 
ATOM     29  C   LIG    1       -0.041   3.845  -0.045  0.00  0.00    -0.010 A 
BRANCH  28  30
ATOM     30  C   LIG    1        2.458   3.932  -0.089  0.00  0.00    +0.510 C 
ATOM     31  F   LIG    1        2.544   4.742   1.049  0.00  0.00    -0.180 F 
ATOM     32  F   LIG    1        2.505   4.732  -1.236  0.00  0.00    -0.180 F 
ATOM     33  F   LIG    1        3.530   3.033  -0.103  0.00  0.00    -0.180 F 
ENDBRANCH  28  30
ENDBRANCH  22  24
ENDBRANCH  21  22
ENDBRANCH   2  21
TORSDOF 6
