REMARK  Name = ZINCpe00000VVGoT.0
REMARK                            x       y       z     vdW  Elec       q    Type
REMARK                         _______ _______ _______ _____ _____    ______ ____
ROOT
ATOM      1  N   LIG    1        2.948   1.283  -0.374  0.00  0.00    -0.720 N 
ATOM      2  H   LIG    1        2.933   0.321  -0.499  0.00  0.00    +0.400 HD
ATOM      3  C   LIG    1        1.791   1.968  -0.279  0.00  0.00    +0.710 C 
ATOM      4  N   LIG    1        0.614   1.316  -0.357  0.00  0.00    -0.720 N 
ATOM      5  H   LIG    1        0.599   0.354  -0.481  0.00  0.00    +0.400 HD
ATOM      6  O   LIG    1        1.809   3.173  -0.124  0.00  0.00    -0.590 OA
ENDROOT
BRANCH   1   8
ATOM      7  C   LIG    1        4.579   2.237   1.178  0.00  0.00    +0.030 C 
ATOM      8  C   LIG    1        4.228   1.991  -0.290  0.00  0.00    +0.250 C 
BRANCH   8   9
ATOM      9  C   LIG    1        5.323   1.145  -0.942  0.00  0.00    +0.180 C 
BRANCH   9  10
ATOM     10  N   LIG    1        4.925   0.800  -2.313  0.00  0.00    -0.530 NA
ATOM     11  C   LIG    1        5.686  -0.355  -2.809  0.00  0.00    +0.150 C 
ATOM     12  C   LIG    1        5.199  -0.717  -4.214  0.00  0.00    +0.220 C 
ATOM     13  O   LIG    1        5.331   0.424  -5.067  0.00  0.00    -0.390 OA
ATOM     14  C   LIG    1        4.601   1.568  -4.615  0.00  0.00    +0.220 C 
ATOM     15  C   LIG    1        5.083   1.952  -3.213  0.00  0.00    +0.150 C 
ENDBRANCH   9  10
ENDBRANCH   8   9
ENDBRANCH   1   8
BRANCH   4  16
ATOM     16  C   LIG    1       -0.644   2.061  -0.260  0.00  0.00    +0.310 C 
BRANCH  16  17
ATOM     17  C   LIG    1       -1.736   1.297  -0.963  0.00  0.00    -0.100 A 
ATOM     18  C   LIG    1       -1.884  -0.059  -0.740  0.00  0.00    +0.020 A 
ATOM     19  C   LIG    1       -2.889  -0.759  -1.382  0.00  0.00    +0.020 A 
ATOM     20  C   LIG    1       -3.740  -0.104  -2.253  0.00  0.00    +0.020 A 
ATOM     21  C   LIG    1       -3.588   1.251  -2.479  0.00  0.00    +0.010 A 
ATOM     22  C   LIG    1       -2.586   1.952  -1.834  0.00  0.00    +0.030 A 
ENDBRANCH  16  17
BRANCH  16  23
ATOM     23  C   LIG    1       -1.010   2.241   1.191  0.00  0.00    +0.510 C 
ATOM     24  N   LIG    1       -1.794   3.271   1.566  0.00  0.00    -0.620 N 
ATOM     25  C   LIG    1       -2.378   4.154   0.552  0.00  0.00    +0.270 C 
ATOM     26  C   LIG    1       -2.064   3.508   2.986  0.00  0.00    +0.290 C 
ATOM     27  O   LIG    1       -0.599   1.458   2.022  0.00  0.00    -0.530 OA
ENDBRANCH  16  23
ENDBRANCH   4  16
TORSDOF 6
