REMARK  Name = ZINCpk00000eaUFa.0
REMARK                            x       y       z     vdW  Elec       q    Type
REMARK                         _______ _______ _______ _____ _____    ______ ____
ROOT
ATOM      1  C   LIG    1        2.494   1.457  -0.014  0.00  0.00    +0.130 C 
ATOM      2  C   LIG    1        1.053   1.896   0.002  0.00  0.00    +0.010 A 
ATOM      3  C   LIG    1       -0.013   1.076   0.008  0.00  0.00    +0.010 A 
ATOM      4  C   LIG    1       -1.199   1.939   0.018  0.00  0.00    -0.220 A 
ATOM      5  C   LIG    1       -0.726   3.234   0.025  0.00  0.00    +0.130 A 
ATOM      6  C   LIG    1       -1.569   4.483   0.041  0.00  0.00    +0.150 C 
ATOM      7  N   LIG    1        0.620   3.190   0.013  0.00  0.00    -0.430 N 
ENDROOT
BRANCH   4   8
ATOM      8  C   LIG    1       -2.607   1.510   0.021  0.00  0.00    +0.550 C 
ATOM      9  O   LIG    1       -3.494   2.340   0.029  0.00  0.00    -0.510 OA
BRANCH   8  10
ATOM     10  O   LIG    1       -2.911   0.197   0.016  0.00  0.00    -0.340 OA
BRANCH  10  11
ATOM     11  C   LIG    1       -4.320  -0.152   0.020  0.00  0.00    +0.290 C 
BRANCH  11  12
ATOM     12  C   LIG    1       -4.465  -1.652   0.014  0.00  0.00    +0.550 C 
ATOM     13  N   LIG    1       -5.692  -2.211   0.016  0.00  0.00    -0.580 N 
ATOM     14  C   LIG    1       -5.971  -3.654   0.005  0.00  0.00    +0.280 C 
ATOM     15  C   LIG    1       -7.510  -3.733   0.017  0.00  0.00    +0.280 C 
ATOM     16  N   LIG    1       -7.935  -2.325   0.025  0.00  0.00    -0.720 N 
ATOM     17  H   LIG    1       -8.854  -2.015   0.030  0.00  0.00    +0.440 HD
ATOM     18  C   LIG    1       -6.851  -1.538   0.024  0.00  0.00    +0.700 C 
ATOM     19  O   LIG    1       -6.913  -0.325   0.030  0.00  0.00    -0.550 OA
ATOM     20  O   LIG    1       -3.479  -2.357   0.006  0.00  0.00    -0.470 OA
ENDBRANCH  11  12
ENDBRANCH  10  11
ENDBRANCH   8  10
ENDBRANCH   4   8
BRANCH   7  21
ATOM     21  C   LIG    1        1.495   4.364   0.011  0.00  0.00    +0.420 C 
BRANCH  21  22
ATOM     22  C   LIG    1        1.782   4.775  -1.410  0.00  0.00    -0.050 A 
ATOM     23  C   LIG    1        1.056   5.641  -2.140  0.00  0.00    -0.030 A 
ATOM     24  C   LIG    1        1.679   5.731  -3.407  0.00  0.00    -0.070 A 
ATOM     25  C   LIG    1        2.748   4.915  -3.374  0.00  0.00    +0.190 A 
ATOM     26  O   LIG    1        2.808   4.343  -2.161  0.00  0.00    -0.170 OA
ENDBRANCH  21  22
ENDBRANCH   7  21
TORSDOF 6
