REMARK  Name = ZINCpe00000VVGI4.0
REMARK                            x       y       z     vdW  Elec       q    Type
REMARK                         _______ _______ _______ _____ _____    ______ ____
ROOT
ATOM      1  C   LIG    1        9.136  -2.347   1.553  0.00  0.00    -0.010 C 
ATOM      2  C   LIG    1        7.859  -2.386   0.695  0.00  0.00    +0.260 C 
ATOM      3  N   LIG    1        7.915  -1.153  -0.124  0.00  0.00    -0.620 N 
ATOM      4  C   LIG    1        9.343  -1.025  -0.497  0.00  0.00    +0.280 C 
ATOM      5  C   LIG    1        6.898  -0.331  -0.451  0.00  0.00    +0.550 C 
ATOM      6  O   LIG    1        7.107   0.652  -1.131  0.00  0.00    -0.530 OA
ATOM      7  C   LIG    1       10.116  -1.447   0.771  0.00  0.00    +0.130 C 
ENDROOT
BRANCH   5   8
ATOM      8  C   LIG    1        5.501  -0.632   0.028  0.00  0.00    +0.000 C 
ATOM      9  C   LIG    1        5.007  -1.989  -0.526  0.00  0.00    +0.080 C 
ATOM     10  C   LIG    1        3.539  -1.762  -0.809  0.00  0.00    +0.520 C 
ATOM     11  N   LIG    1        3.271  -0.445  -0.833  0.00  0.00    -0.620 N 
ATOM     12  O   LIG    1        2.722  -2.640  -0.988  0.00  0.00    -0.520 OA
ATOM     13  C   LIG    1        4.482   0.350  -0.595  0.00  0.00    +0.300 C 
BRANCH  11  14
ATOM     14  C   LIG    1        1.942   0.124  -1.072  0.00  0.00    +0.340 C 
BRANCH  14  15
ATOM     15  C   LIG    1        1.213   0.294   0.262  0.00  0.00    -0.070 C 
ATOM     16  C   LIG    1       -0.152   0.986   0.237  0.00  0.00    +0.030 C 
ATOM     17  C   LIG    1       -0.063  -0.522   0.479  0.00  0.00    +0.020 C 
ENDBRANCH  14  15
ENDBRANCH  11  14
ENDBRANCH   5   8
BRANCH   7  18
ATOM     18  N   LIG    1       11.322  -2.201   0.406  0.00  0.00    -0.520 NA
ATOM     19  C   LIG    1       12.285  -2.225   1.517  0.00  0.00    +0.150 C 
ATOM     20  C   LIG    1       13.498  -3.069   1.116  0.00  0.00    +0.220 C 
ATOM     21  O   LIG    1       14.067  -2.537  -0.083  0.00  0.00    -0.380 OA
ATOM     22  C   LIG    1       13.157  -2.500  -1.185  0.00  0.00    +0.220 C 
ATOM     23  C   LIG    1       11.941  -1.650  -0.808  0.00  0.00    +0.150 C 
ENDBRANCH   7  18
BRANCH   1  25
ATOM     24  C   LIG    1        8.768  -4.605   2.557  0.00  0.00    +0.000 C 
ATOM     25  C   LIG    1        9.719  -3.752   1.715  0.00  0.00    +0.040 C 
ENDBRANCH   1  25
TORSDOF 5
