REMARK  Name = ZINCqH0000051kT6.0
REMARK                            x       y       z     vdW  Elec       q    Type
REMARK                         _______ _______ _______ _____ _____    ______ ____
ROOT
ATOM      1  C   LIG    1        2.235   6.807   0.036  0.00  0.00    +0.290 C 
ENDROOT
BRANCH   1   2
ATOM      2  C   LIG    1        3.362   7.842   0.015  0.00  0.00    +0.000 C 
ATOM      3  C   LIG    1        4.128   7.800  -1.328  0.00  0.00    +0.080 C 
ATOM      4  C   LIG    1        4.455   9.249  -1.614  0.00  0.00    +0.520 C 
ATOM      5  N   LIG    1        3.698  10.054  -0.849  0.00  0.00    -0.560 N 
ATOM      6  O   LIG    1        5.282   9.628  -2.416  0.00  0.00    -0.500 OA
ATOM      7  C   LIG    1        2.793   9.279   0.008  0.00  0.00    +0.290 C 
BRANCH   5   8
ATOM      8  C   LIG    1        3.765  11.452  -0.867  0.00  0.00    +0.170 A 
ATOM      9  C   LIG    1        4.740  12.092  -1.619  0.00  0.00    +0.020 A 
ATOM     10  C   LIG    1        4.801  13.472  -1.638  0.00  0.00    +0.060 A 
ATOM     11  C   LIG    1        3.896  14.216  -0.901  0.00  0.00    -0.060 A 
ATOM     12  C   LIG    1        2.926  13.580  -0.147  0.00  0.00    +0.060 A 
ATOM     13 CL   LIG    1        3.979  15.950  -0.923  0.00  0.00    -0.070 Cl
ATOM     14  C   LIG    1        2.858  12.201  -0.128  0.00  0.00    -0.010 A 
ENDBRANCH   5   8
ENDBRANCH   1   2
BRANCH   1  17
ATOM     15  O   LIG    1        0.793   4.529   0.056  0.00  0.00    -0.520 OA
ATOM     16  C   LIG    1        2.000   4.382   0.026  0.00  0.00    +0.560 C 
ATOM     17  N   LIG    1        2.809   5.460   0.014  0.00  0.00    -0.730 N 
ATOM     18  H   LIG    1        3.772   5.343  -0.010  0.00  0.00    +0.400 HD
BRANCH  16  19
ATOM     19  C   LIG    1        2.578   3.026   0.004  0.00  0.00    -0.100 A 
ATOM     20  C   LIG    1        1.742   1.901   0.017  0.00  0.00    -0.100 A 
ATOM     21  S   LIG    1       -0.010   1.690   0.057  0.00  0.00    +0.260 S 
ATOM     22  N   LIG    1        0.012  -0.004   0.046  0.00  0.00    -0.450 NA
ATOM     23  C   LIG    1        1.234  -0.406   0.015  0.00  0.00    +0.320 A 
ATOM     24  C   LIG    1        2.279   0.600  -0.003  0.00  0.00    -0.150 A 
ATOM     25  C   LIG    1        3.683   0.464  -0.037  0.00  0.00    +0.120 A 
ATOM     26  C   LIG    1        4.492   1.573  -0.049  0.00  0.00    +0.000 A 
ATOM     27  C   LIG    1        3.959   2.851  -0.029  0.00  0.00    +0.100 A 
ENDBRANCH  16  19
ENDBRANCH   1  17
TORSDOF 4
