REMARK  Name = ZINCrH000004tWhJ.0
REMARK                            x       y       z     vdW  Elec       q    Type
REMARK                         _______ _______ _______ _____ _____    ______ ____
ROOT
ATOM      1  C   LIG    1       -2.490   1.291   0.089  0.00  0.00    -0.120 A 
ATOM      2  C   LIG    1       -3.067   0.903   1.228  0.00  0.00    +0.000 A 
ATOM      3  C   LIG    1       -4.183   0.099   1.072  0.00  0.00    +0.160 A 
ATOM      4  C   LIG    1       -4.507  -0.174  -0.193  0.00  0.00    -0.790 A 
ATOM      5  S   LIG    1       -3.369   0.615  -1.277  0.00  0.00    +0.230 S 
ENDROOT
BRANCH   4   6
ATOM      6  S   LIG    1       -5.868  -1.172  -0.700  0.00  0.00    +2.710 S 
ATOM      7  O   LIG    1       -6.168  -2.028   0.395  0.00  0.00    -0.950 OA
ATOM      8  O   LIG    1       -5.550  -1.654  -1.998  0.00  0.00    -0.950 OA
BRANCH   6   9
ATOM      9  N   LIG    1       -7.173  -0.168  -0.879  0.00  0.00    -0.990 NA
ATOM     10  C   LIG    1       -8.078   0.092   0.248  0.00  0.00    +0.290 C 
ATOM     11  C   LIG    1       -8.194   1.611   0.441  0.00  0.00    +0.010 C 
ATOM     12  C   LIG    1       -8.631   2.255  -0.877  0.00  0.00    +0.020 C 
ATOM     13  C   LIG    1       -7.576   1.986  -1.952  0.00  0.00    +0.010 C 
ATOM     14  C   LIG    1       -7.450   0.475  -2.171  0.00  0.00    +0.290 C 
ENDBRANCH   6   9
ENDBRANCH   4   6
BRANCH   1  15
ATOM     15  C   LIG    1       -1.269   2.168  -0.012  0.00  0.00    +0.150 C 
BRANCH  15  17
ATOM     16  O   LIG    1       -0.133   0.100  -0.028  0.00  0.00    -0.510 OA
ATOM     17  C   LIG    1       -0.032   1.308  -0.011  0.00  0.00    +0.520 C 
ATOM     18  N   LIG    1        1.188   1.883   0.004  0.00  0.00    -0.580 N 
BRANCH  18  19
ATOM     19  C   LIG    1        2.388   1.050   0.117  0.00  0.00    +0.240 C 
ATOM     20  C   LIG    1        2.514   0.166  -1.125  0.00  0.00    +0.010 C 
ATOM     21  C   LIG    1        3.768  -0.703  -1.006  0.00  0.00    +0.020 C 
ATOM     22  C   LIG    1        3.661  -1.585   0.239  0.00  0.00    +0.010 C 
ATOM     23  C   LIG    1        3.535  -0.701   1.481  0.00  0.00    +0.020 C 
ATOM     24  C   LIG    1        2.281   0.168   1.363  0.00  0.00    +0.010 C 
ENDBRANCH  18  19
BRANCH  18  25
ATOM     25  C   LIG    1        1.312   3.339  -0.093  0.00  0.00    +0.190 C 
ATOM     26  C   LIG    1        2.725   3.924  -0.166  0.00  0.00    +0.030 C 
ATOM     27  C   LIG    1        1.895   4.080   1.111  0.00  0.00    +0.020 C 
ENDBRANCH  18  25
ENDBRANCH  15  17
ENDBRANCH   1  15
TORSDOF 6
