REMARK  Name = ZINCrH000004r0uj.1
REMARK                            x       y       z     vdW  Elec       q    Type
REMARK                         _______ _______ _______ _____ _____    ______ ____
ROOT
ATOM      1  N   LIG    1       -5.089   4.663  -0.819  0.00  0.00    -0.680 NA
ATOM      2  H   LIG    1       -5.746   4.055  -0.353  0.00  0.00    +0.340 HD
ENDROOT
BRANCH   1   3
ATOM      3  C   LIG    1       -3.961   4.991   0.063  0.00  0.00    +0.220 C 
ATOM      4  C   LIG    1       -4.473   5.202   1.489  0.00  0.00    +0.010 C 
BRANCH   3   5
ATOM      5  C   LIG    1       -2.966   3.860   0.049  0.00  0.00    -0.050 A 
ATOM      6  C   LIG    1       -3.412   2.550   0.046  0.00  0.00    +0.060 A 
ATOM      7  C   LIG    1       -2.506   1.507   0.033  0.00  0.00    +0.040 A 
ATOM      8  C   LIG    1       -1.147   1.775   0.016  0.00  0.00    +0.060 A 
ATOM      9  N   LIG    1       -0.011   0.966   0.007  0.00  0.00    -0.650 N 
ATOM     10  H   LIG    1        0.002  -0.004   0.002  0.00  0.00    +0.440 HD
ATOM     11  C   LIG    1        1.065   1.778   0.001  0.00  0.00    +0.640 A 
ATOM     12  O   LIG    1        0.660   3.057   0.012  0.00  0.00    -0.240 OA
ATOM     13  O   LIG    1        2.223   1.408  -0.012  0.00  0.00    -0.490 OA
ATOM     14  C   LIG    1       -0.695   3.095   0.025  0.00  0.00    +0.040 A 
ATOM     15  C   LIG    1       -1.612   4.135   0.038  0.00  0.00    +0.070 A 
ENDBRANCH   3   5
ENDBRANCH   1   3
BRANCH   1  16
ATOM     16  C   LIG    1       -5.750   5.881  -1.304  0.00  0.00    +0.260 C 
BRANCH  16  19
ATOM     17  N   LIG    1       -8.106   5.109  -3.981  0.00  0.00    -0.320 N 
ATOM     18  C   LIG    1       -6.886   5.509  -3.556  0.00  0.00    +0.260 A 
ATOM     19  C   LIG    1       -6.899   5.505  -2.203  0.00  0.00    -0.220 A 
ATOM     20  C   LIG    1       -8.167   5.084  -1.786  0.00  0.00    +0.090 A 
ATOM     21  C   LIG    1       -8.620   4.929  -0.358  0.00  0.00    +0.160 C 
ATOM     22  N   LIG    1       -8.892   4.852  -2.851  0.00  0.00    -0.290 NA
BRANCH  17  27
ATOM     23  C   LIG    1       -9.749   4.571  -9.387  0.00  0.00    +0.090 C 
ATOM     24  C   LIG    1       -9.313   4.714  -7.952  0.00  0.00    -0.090 A 
ATOM     25  C   LIG    1      -10.198   4.424  -6.929  0.00  0.00    +0.030 A 
ATOM     26  C   LIG    1       -9.801   4.554  -5.613  0.00  0.00    +0.030 A 
ATOM     27  C   LIG    1       -8.512   4.976  -5.316  0.00  0.00    +0.150 A 
ATOM     28  C   LIG    1       -7.627   5.272  -6.345  0.00  0.00    -0.010 A 
ATOM     29  C   LIG    1       -8.028   5.135  -7.660  0.00  0.00    +0.040 A 
ENDBRANCH  17  27
ENDBRANCH  16  19
ENDBRANCH   1  16
TORSDOF 5
