REMARK  Name = ZINCrD000000D7bs.0
REMARK                            x       y       z     vdW  Elec       q    Type
REMARK                         _______ _______ _______ _____ _____    ______ ____
ROOT
ATOM      1  S   LIG    1       -1.471   0.523  -2.219  0.00  0.00    +2.690 S 
ATOM      2  O   LIG    1       -0.815  -0.727  -2.059  0.00  0.00    -0.940 OA
ATOM      3  O   LIG    1       -1.569   1.195  -3.467  0.00  0.00    -0.940 OA
ENDROOT
BRANCH   1  11
ATOM      4  O   LIG    1       -7.413  -2.121   1.346  0.00  0.00    -0.540 OA
ATOM      5  C   LIG    1       -6.607  -1.518   0.662  0.00  0.00    +0.690 A 
ATOM      6  N   LIG    1       -6.895  -0.470  -0.134  0.00  0.00    -0.640 N 
ATOM      7  H   LIG    1       -7.772  -0.074  -0.255  0.00  0.00    +0.440 HD
ATOM      8  C   LIG    1       -5.720  -0.052  -0.752  0.00  0.00    +0.150 A 
ATOM      9  C   LIG    1       -5.426   0.959  -1.654  0.00  0.00    +0.020 A 
ATOM     10  C   LIG    1       -4.129   1.129  -2.098  0.00  0.00    +0.140 A 
ATOM     11  C   LIG    1       -3.122   0.295  -1.646  0.00  0.00    -0.670 A 
ATOM     12  C   LIG    1       -3.405  -0.719  -0.751  0.00  0.00    +0.150 A 
ATOM     13  C   LIG    1       -4.702  -0.894  -0.296  0.00  0.00    +0.070 A 
ATOM     14  N   LIG    1       -5.292  -1.797   0.586  0.00  0.00    -0.640 N 
ATOM     15  H   LIG    1       -4.834  -2.506   1.064  0.00  0.00    +0.440 HD
ENDBRANCH   1  11
BRANCH   1  16
ATOM     16  N   LIG    1       -0.731   1.577  -1.178  0.00  0.00    -0.990 NA
ATOM     17  C   LIG    1       -0.013   1.086   0.008  0.00  0.00    +0.310 C 
ATOM     18  C   LIG    1       -0.737   1.584   1.263  0.00  0.00    +0.120 C 
ATOM     19  C   LIG    1       -1.077   3.050   1.087  0.00  0.00    -0.160 A 
ATOM     20  C   LIG    1       -1.102   3.705  -0.089  0.00  0.00    -0.110 A 
ATOM     21  C   LIG    1       -1.450   5.047   0.023  0.00  0.00    +0.020 A 
ATOM     22  C   LIG    1       -1.696   5.477   1.257  0.00  0.00    -0.040 A 
ATOM     23  S   LIG    1       -1.496   4.151   2.393  0.00  0.00    +0.110 S 
ATOM     24  C   LIG    1       -0.774   3.026  -1.414  0.00  0.00    +0.420 C 
BRANCH  24  25
ATOM     25  C   LIG    1        0.565   3.502  -1.914  0.00  0.00    -0.190 A 
ATOM     26  C   LIG    1        0.750   4.412  -2.872  0.00  0.00    +0.020 A 
ATOM     27  C   LIG    1        2.073   4.691  -3.164  0.00  0.00    +0.000 A 
ATOM     28  C   LIG    1        2.964   4.009  -2.444  0.00  0.00    -0.060 A 
ATOM     29  S   LIG    1        2.125   2.949  -1.318  0.00  0.00    +0.120 S 
ENDBRANCH  24  25
ENDBRANCH   1  16
TORSDOF 3
