REMARK  Name = ZINCrD00000F5Loi.0
REMARK                            x       y       z     vdW  Elec       q    Type
REMARK                         _______ _______ _______ _____ _____    ______ ____
ROOT
ATOM      1  N   LIG    1        1.357   2.038   0.000  0.00  0.00    -0.380 N 
ATOM      2  C   LIG    1       -0.019   1.526   0.010  0.00  0.00    +0.270 C 
ATOM      3  C   LIG    1        0.002  -0.004   0.002  0.00  0.00    +0.050 C 
ATOM      4  C   LIG    1        0.744  -0.506   1.244  0.00  0.00    +0.240 C 
ATOM      5  C   LIG    1        2.154   0.093   1.261  0.00  0.00    +0.050 C 
ATOM      6  C   LIG    1        2.053   1.620   1.223  0.00  0.00    +0.260 C 
ATOM      7  H   LIG    1        1.845   1.673  -0.804  0.00  0.00    +0.420 HD
ENDROOT
BRANCH   4   8
ATOM      8  N   LIG    1        0.834  -1.968   1.204  0.00  0.00    -0.740 N 
ATOM      9  H   LIG    1        0.797  -2.433   0.353  0.00  0.00    +0.400 HD
ATOM     10  C   LIG    1        0.969  -2.666   2.348  0.00  0.00    +0.590 C 
ATOM     11  O   LIG    1        1.015  -2.083   3.414  0.00  0.00    -0.560 OA
BRANCH  10  12
ATOM     12  C   LIG    1        1.059  -4.139   2.308  0.00  0.00    -0.310 A 
ATOM     13  C   LIG    1        1.006  -4.810   1.080  0.00  0.00    +0.110 A 
ATOM     14  C   LIG    1        1.089  -6.184   1.034  0.00  0.00    -0.220 A 
ATOM     15  C   LIG    1        1.229  -6.916   2.207  0.00  0.00    +0.340 A 
ATOM     16  C   LIG    1        1.284  -6.253   3.446  0.00  0.00    -0.330 A 
ATOM     17  O   LIG    1        1.312  -8.267   2.157  0.00  0.00    -0.610 OA
ATOM     18 BR   LIG    1        1.015  -7.077  -0.631  0.00  0.00    -0.080 Br
ATOM     19  C   LIG    1        1.204  -4.860   3.490  0.00  0.00    +0.180 A 
BRANCH  16  20
ATOM     20  C   LIG    1        1.432  -7.022   4.688  0.00  0.00    +0.460 C 
ATOM     21  O   LIG    1        1.506  -8.232   4.647  0.00  0.00    -0.450 OA
ENDBRANCH  16  20
ENDBRANCH  10  12
ENDBRANCH   4   8
BRANCH   1  23
ATOM     22  C   LIG    1        0.615   3.942  -1.349  0.00  0.00    +0.100 C 
ATOM     23  C   LIG    1        1.332   3.505  -0.070  0.00  0.00    +0.230 C 
BRANCH  23  24
ATOM     24  C   LIG    1        2.744   4.032  -0.081  0.00  0.00    -0.090 A 
ATOM     25  C   LIG    1        3.737   3.386  -0.802  0.00  0.00    -0.050 A 
ATOM     26  C   LIG    1        5.019   3.901  -0.792  0.00  0.00    +0.290 A 
ATOM     27  N   LIG    1        5.304   4.987  -0.100  0.00  0.00    -0.470 NA
ATOM     28  C   LIG    1        4.387   5.623   0.601  0.00  0.00    +0.290 A 
ATOM     29  C   LIG    1        3.082   5.170   0.634  0.00  0.00    +0.000 A 
ENDBRANCH  23  24
ENDBRANCH   1  23
TORSDOF 5
