REMARK  Name = ZINCpk00000kOICH.1
REMARK                            x       y       z     vdW  Elec       q    Type
REMARK                         _______ _______ _______ _____ _____    ______ ____
ROOT
ATOM      1  N   LIG    1       -0.011   0.966   0.007  0.00  0.00    -0.730 N 
ATOM      2  H   LIG    1        0.002  -0.004   0.002  0.00  0.00    +0.400 HD
ATOM      3  C   LIG    1       -1.187   1.624   0.017  0.00  0.00    +0.520 C 
ATOM      4  O   LIG    1       -1.204   2.837   0.023  0.00  0.00    -0.510 OA
ENDROOT
BRANCH   1   5
ATOM      5  C   LIG    1        1.248   1.716  -0.001  0.00  0.00    +0.260 C 
BRANCH   5   6
ATOM      6  C   LIG    1        2.424   0.737  -0.017  0.00  0.00    +0.300 C 
BRANCH   6  17
ATOM      7  C   LIG    1        3.984   1.638   2.496  0.00  0.00    +0.190 C 
ATOM      8  C   LIG    1        4.386   1.893   1.066  0.00  0.00    +0.290 A 
ATOM      9  N   LIG    1        5.455   2.534   0.695  0.00  0.00    -0.490 NA
ATOM     10  C   LIG    1        5.511   2.584  -0.660  0.00  0.00    +0.060 A 
ATOM     11  C   LIG    1        6.420   3.135  -1.567  0.00  0.00    +0.090 A 
ATOM     12  C   LIG    1        6.194   3.015  -2.920  0.00  0.00    -0.040 A 
ATOM     13  C   LIG    1        5.069   2.351  -3.391  0.00  0.00    +0.050 A 
ATOM     14  C   LIG    1        4.163   1.801  -2.509  0.00  0.00    +0.030 A 
ATOM     15 CL   LIG    1        7.324   3.700  -4.047  0.00  0.00    -0.060 Cl
ATOM     16  C   LIG    1        4.378   1.907  -1.142  0.00  0.00    +0.050 A 
ATOM     17  N   LIG    1        3.682   1.487  -0.025  0.00  0.00    -0.490 N 
ENDBRANCH   6  17
ENDBRANCH   5   6
ENDBRANCH   1   5
BRANCH   3  18
ATOM     18  C   LIG    1       -2.482   0.853   0.018  0.00  0.00    +0.190 C 
BRANCH  18  19
ATOM     19  N   LIG    1       -3.571   1.723  -0.445  0.00  0.00    -0.830 NA
ATOM     20  H   LIG    1       -3.672   2.527   0.156  0.00  0.00    +0.350 HD
ATOM     21  H   LIG    1       -4.438   1.211  -0.514  0.00  0.00    +0.370 HD
ENDBRANCH  18  19
BRANCH  18  22
ATOM     22  C   LIG    1       -2.785   0.369   1.438  0.00  0.00    +0.090 C 
BRANCH  22  23
ATOM     23  C   LIG    1       -4.013  -0.505   1.419  0.00  0.00    +0.070 A 
ATOM     24  C   LIG    1       -3.960  -1.789   1.937  0.00  0.00    +0.040 A 
ATOM     25  C   LIG    1       -5.119  -2.554   1.902  0.00  0.00    +0.040 A 
ATOM     26  C   LIG    1       -6.254  -1.990   1.342  0.00  0.00    +0.220 A 
ATOM     27  N   LIG    1       -6.210  -0.759   0.869  0.00  0.00    -0.230 NA
ATOM     28  N   LIG    1       -5.140  -0.050   0.905  0.00  0.00    -0.250 NA
ENDBRANCH  22  23
ENDBRANCH  18  22
ENDBRANCH   3  18
TORSDOF 7
