REMARK  Name = ZINCnE000007M60B.0
REMARK                            x       y       z     vdW  Elec       q    Type
REMARK                         _______ _______ _______ _____ _____    ______ ____
ROOT
ATOM      1  O   LIG    1        1.130   2.867   0.045  0.00  0.00    -0.530 OA
ATOM      2  C   LIG    1        1.147   1.655   0.000  0.00  0.00    +0.520 C 
ATOM      3  N   LIG    1       -0.011   0.967  -0.035  0.00  0.00    -0.720 N 
ATOM      4  H   LIG    1        0.002  -0.003  -0.070  0.00  0.00    +0.390 HD
ENDROOT
BRANCH   2   5
ATOM      5  C   LIG    1        2.462   0.920  -0.017  0.00  0.00    -0.040 C 
ATOM      6  C   LIG    1        3.626   1.732   0.572  0.00  0.00    +0.060 C 
ATOM      7  C   LIG    1        4.503   1.186  -0.567  0.00  0.00    -0.020 C 
ATOM      8  C   LIG    1        5.431   2.245  -1.154  0.00  0.00    +0.020 C 
ATOM      9  C   LIG    1        5.784   1.881  -2.615  0.00  0.00    +0.010 C 
ATOM     10  C   LIG    1        4.917   2.785  -3.534  0.00  0.00    +0.000 C 
ATOM     11  C   LIG    1        3.531   2.211  -3.538  0.00  0.00    +0.000 C 
ATOM     12  C   LIG    1        2.841   2.207  -2.194  0.00  0.00    +0.030 C 
ATOM     13  C   LIG    1        3.183   0.984  -1.370  0.00  0.00    +0.000 C 
ENDBRANCH   2   5
BRANCH   3  14
ATOM     14  C   LIG    1       -1.290   1.682  -0.025  0.00  0.00    +0.180 C 
ATOM     15  C   LIG    1       -1.399   2.514   1.255  0.00  0.00    +0.010 C 
ATOM     16  C   LIG    1       -2.734   3.261   1.265  0.00  0.00    +0.040 C 
ATOM     17  C   LIG    1       -3.515   2.927  -0.007  0.00  0.00    -0.130 C 
ATOM     18  C   LIG    1       -2.701   3.353  -1.232  0.00  0.00    +0.030 C 
ATOM     19  C   LIG    1       -3.774   1.421  -0.067  0.00  0.00    +0.050 C 
ATOM     20  C   LIG    1       -1.366   2.606  -1.242  0.00  0.00    +0.010 C 
ATOM     21  C   LIG    1       -2.439   0.673  -0.077  0.00  0.00    +0.000 C 
BRANCH  17  22
ATOM     22  C   LIG    1       -4.830   3.663   0.003  0.00  0.00    +0.500 C 
ATOM     23  O   LIG    1       -5.801   3.183  -0.556  0.00  0.00    -0.700 OA
ATOM     24  O   LIG    1       -4.922   4.739   0.570  0.00  0.00    -0.700 OA
ENDBRANCH  17  22
ENDBRANCH   3  14
TORSDOF 3
