REMARK  Name = ZINCrg000000sN4P.0
REMARK                            x       y       z     vdW  Elec       q    Type
REMARK                         _______ _______ _______ _____ _____    ______ ____
ROOT
ATOM      1  C   LIG    1        3.736  -5.906   0.712  0.00  0.00    -0.050 C 
ATOM      2  C   LIG    1        2.506  -5.607   1.064  0.00  0.00    -0.030 C 
ATOM      3  C   LIG    1        1.618  -4.698   0.268  0.00  0.00    +0.330 C 
ATOM      4  N   LIG    1        2.412  -4.028  -0.771  0.00  0.00    -0.630 N 
ATOM      5  C   LIG    1        3.385  -4.848  -1.514  0.00  0.00    +0.310 C 
ATOM      6  C   LIG    1        2.261  -2.714  -1.031  0.00  0.00    +0.720 C 
ATOM      7  N   LIG    1        1.436  -1.967  -0.271  0.00  0.00    -0.720 N 
ATOM      8  H   LIG    1        0.895  -2.389   0.415  0.00  0.00    +0.400 HD
ATOM      9  O   LIG    1        2.869  -2.202  -1.951  0.00  0.00    -0.590 OA
ATOM     10  C   LIG    1        4.418  -5.375  -0.514  0.00  0.00    +0.080 C 
ENDROOT
BRANCH   7  11
ATOM     11  C   LIG    1        1.355  -0.520  -0.480  0.00  0.00    +0.260 C 
ATOM     12  C   LIG    1        2.458   0.179   0.325  0.00  0.00    +0.020 C 
ATOM     13  C   LIG    1        2.468   1.662  -0.053  0.00  0.00    +0.090 C 
ATOM     14  C   LIG    1        1.072   2.214   0.009  0.00  0.00    +0.520 C 
ATOM     15  N   LIG    1       -0.022   1.452   0.011  0.00  0.00    -0.710 N 
ATOM     16  H   LIG    1       -0.885   1.895   0.016  0.00  0.00    +0.400 HD
ATOM     17  O   LIG    1        0.933   3.418   0.060  0.00  0.00    -0.550 OA
ATOM     18  C   LIG    1       -0.002  -0.006   0.001  0.00  0.00    +0.230 C 
BRANCH  18  19
ATOM     19  C   LIG    1       -1.098  -0.520  -0.936  0.00  0.00    +0.150 C 
ATOM     20  C   LIG    1       -2.488  -0.068  -0.435  0.00  0.00    +0.000 C 
ATOM     21  C   LIG    1       -3.406  -1.272  -0.743  0.00  0.00    +0.010 C 
ATOM     22  C   LIG    1       -2.463  -2.308  -1.392  0.00  0.00    +0.200 C 
ATOM     23  O   LIG    1       -1.145  -1.963  -0.910  0.00  0.00    -0.360 OA
ENDBRANCH  18  19
ENDBRANCH   7  11
BRANCH   1  29
ATOM     24  C   LIG    1        4.259  -5.562   3.751  0.00  0.00    +0.340 C 
ATOM     25  N   LIG    1        4.726  -6.671   2.915  0.00  0.00    -0.370 N 
ATOM     26  N   LIG    1        5.487  -7.765   3.345  0.00  0.00    -0.290 NA
ATOM     27  C   LIG    1        5.713  -8.549   2.321  0.00  0.00    +0.240 A 
ATOM     28  C   LIG    1        5.104  -7.999   1.194  0.00  0.00    -0.100 A 
ATOM     29  C   LIG    1        4.496  -6.823   1.579  0.00  0.00    +0.110 A 
ENDBRANCH   1  29
TORSDOF 3
