REMARK  Name = ZINCkj00000dDDbF.0
REMARK                            x       y       z     vdW  Elec       q    Type
REMARK                         _______ _______ _______ _____ _____    ______ ____
ROOT
ATOM      1  S   LIG    1       -0.223   5.772  -0.011  0.00  0.00    +2.700 S 
ATOM      2  O   LIG    1       -1.633   5.948  -0.028  0.00  0.00    -0.930 OA
ATOM      3  O   LIG    1        0.654   6.442  -0.904  0.00  0.00    -0.940 OA
ENDROOT
BRANCH   1   4
ATOM      4  C   LIG    1        0.066   4.048  -0.229  0.00  0.00    -0.650 A 
ATOM      5  C   LIG    1        0.978   3.622  -1.136  0.00  0.00    +0.220 A 
ATOM      6  C   LIG    1        1.237   2.265  -1.330  0.00  0.00    +0.030 A 
ATOM      7  C   LIG    1        0.580   1.310  -0.629  0.00  0.00    +0.150 A 
ATOM      8  C   LIG    1       -0.388   1.683   0.337  0.00  0.00    +0.060 A 
ATOM      9  N   LIG    1       -1.144   0.948   1.137  0.00  0.00    -0.570 NA
ATOM     10  S   LIG    1       -2.038   1.880   2.004  0.00  0.00    +0.820 S 
ATOM     11  N   LIG    1       -1.580   3.270   1.477  0.00  0.00    -0.610 NA
ATOM     12  C   LIG    1       -0.655   3.104   0.545  0.00  0.00    +0.140 A 
ENDBRANCH   1   4
BRANCH   1  13
ATOM     13  N   LIG    1        0.278   6.164   1.518  0.00  0.00    -1.120 NA
ATOM     14  H   LIG    1       -0.367   6.463   2.179  0.00  0.00    +0.420 HD
BRANCH  13  16
ATOM     15  C   LIG    1        2.370   7.420   1.689  0.00  0.00    +0.050 C 
ATOM     16  C   LIG    1        1.695   6.059   1.874  0.00  0.00    +0.250 C 
BRANCH  16  17
ATOM     17  C   LIG    1        1.823   5.621   3.334  0.00  0.00    +0.060 C 
BRANCH  17  18
ATOM     18  C   LIG    1        1.260   4.207   3.494  0.00  0.00    +0.240 C 
BRANCH  18  19
ATOM     19  N   LIG    1        1.383   3.787   4.896  0.00  0.00    -0.390 N 
ATOM     20  C   LIG    1        0.954   2.388   5.028  0.00  0.00    +0.320 C 
ATOM     21  C   LIG    1        0.536   4.640   5.740  0.00  0.00    +0.320 C 
ATOM     22  H   LIG    1        2.345   3.872   5.190  0.00  0.00    +0.430 HD
ENDBRANCH  18  19
ENDBRANCH  17  18
ENDBRANCH  16  17
ENDBRANCH  13  16
ENDBRANCH   1  13
TORSDOF 6
