REMARK  Name = ZINCrg00000BqqGz.0
REMARK                            x       y       z     vdW  Elec       q    Type
REMARK                         _______ _______ _______ _____ _____    ______ ____
ROOT
ATOM      1  C   LIG    1        0.750   4.816   2.180  0.00  0.00    +0.260 C 
ENDROOT
BRANCH   1   4
ATOM      2  O   LIG    1        2.107   6.805   3.395  0.00  0.00    -0.530 OA
ATOM      3  C   LIG    1        0.987   7.092   3.019  0.00  0.00    +0.580 C 
ATOM      4  N   LIG    1        0.227   6.167   2.401  0.00  0.00    -0.710 N 
ATOM      5  H   LIG    1       -0.667   6.396   2.101  0.00  0.00    +0.410 HD
BRANCH   3   6
ATOM      6  C   LIG    1        0.459   8.456   3.242  0.00  0.00    +0.110 A 
ATOM      7  C   LIG    1        1.258   9.402   3.890  0.00  0.00    +0.010 A 
ATOM      8  C   LIG    1        0.774  10.668   4.092  0.00  0.00    +0.110 A 
ATOM      9  C   LIG    1       -0.517  10.960   3.647  0.00  0.00    -0.130 A 
ATOM     10  C   LIG    1       -1.362  12.153   3.681  0.00  0.00    -0.040 A 
ATOM     11  C   LIG    1       -2.524  11.826   3.089  0.00  0.00    +0.260 A 
ATOM     12  N   LIG    1       -2.490  10.522   2.679  0.00  0.00    -0.580 N 
ATOM     13  H   LIG    1       -3.214  10.062   2.227  0.00  0.00    +0.420 HD
ATOM     14  C   LIG    1       -1.278   9.959   3.003  0.00  0.00    +0.280 A 
ATOM     15  N   LIG    1       -0.764   8.754   2.826  0.00  0.00    -0.470 NA
ENDBRANCH   3   6
ENDBRANCH   1   4
BRANCH   1  16
ATOM     16  C   LIG    1       -0.306   3.971   1.464  0.00  0.00    +0.170 C 
BRANCH  16  17
ATOM     17  N   LIG    1        0.219   2.617   1.243  0.00  0.00    -0.530 NA
ATOM     18  C   LIG    1       -0.840   1.712   0.775  0.00  0.00    +0.170 C 
ATOM     19  C   LIG    1       -0.221   0.366   0.386  0.00  0.00    +0.300 C 
ATOM     20  N   LIG    1        0.566  -0.134   1.523  0.00  0.00    -0.610 N 
ATOM     21  C   LIG    1        1.554   0.768   2.135  0.00  0.00    +0.290 C 
ATOM     22  C   LIG    1        0.386  -1.384   1.993  0.00  0.00    +0.590 C 
ATOM     23  O   LIG    1       -0.514  -2.075   1.555  0.00  0.00    -0.550 OA
ATOM     24  C   LIG    1        0.865   2.099   2.456  0.00  0.00    +0.170 C 
BRANCH  22  25
ATOM     25  C   LIG    1        1.280  -1.914   3.036  0.00  0.00    -0.240 A 
ATOM     26  C   LIG    1        1.000  -2.910   3.930  0.00  0.00    +0.250 A 
ATOM     27  N   LIG    1        2.080  -3.096   4.713  0.00  0.00    -0.550 N 
ATOM     28  H   LIG    1        2.140  -3.746   5.429  0.00  0.00    +0.420 HD
ATOM     29  C   LIG    1        3.078  -2.237   4.353  0.00  0.00    +0.160 A 
ATOM     30  C   LIG    1        2.654  -1.486   3.321  0.00  0.00    -0.030 A 
ENDBRANCH  22  25
ENDBRANCH  16  17
ENDBRANCH   1  16
TORSDOF 5
