REMARK  Name = ZINCpe000000ZCA0.0
REMARK                            x       y       z     vdW  Elec       q    Type
REMARK                         _______ _______ _______ _____ _____    ______ ____
ROOT
ATOM      1  C   LIG    1        0.272   5.564   1.506  0.00  0.00    -0.020 C 
ATOM      2  C   LIG    1       -0.454   6.717   0.808  0.00  0.00    +0.050 C 
ATOM      3  C   LIG    1       -0.655   7.868   1.796  0.00  0.00    +0.010 C 
ATOM      4  C   LIG    1        0.711   8.374   2.270  0.00  0.00    +0.270 C 
ATOM      5  N   LIG    1        1.473   7.240   2.812  0.00  0.00    -0.610 N 
ATOM      6  C   LIG    1        2.000   7.297   4.051  0.00  0.00    +0.520 C 
ATOM      7  O   LIG    1        2.627   6.355   4.487  0.00  0.00    -0.530 OA
ATOM      8  C   LIG    1        1.649   6.044   1.978  0.00  0.00    +0.290 C 
ENDROOT
BRANCH   1  11
ATOM      9  N   LIG    1        1.060   3.289   0.940  0.00  0.00    -0.720 N 
ATOM     10  H   LIG    1        1.395   3.213   1.846  0.00  0.00    +0.400 HD
ATOM     11  C   LIG    1        0.442   4.419   0.542  0.00  0.00    +0.530 C 
ATOM     12  O   LIG    1        0.022   4.513  -0.592  0.00  0.00    -0.520 OA
BRANCH   9  20
ATOM     13  O   LIG    1       -1.092   1.889   0.017  0.00  0.00    -0.530 OA
ATOM     14  C   LIG    1       -0.016   1.329   0.009  0.00  0.00    +0.500 C 
ATOM     15  N   LIG    1        0.002  -0.004   0.002  0.00  0.00    -0.720 N 
ATOM     16  H   LIG    1       -0.848  -0.470  -0.026  0.00  0.00    +0.400 HD
ATOM     17  C   LIG    1        1.219  -0.805   0.032  0.00  0.00    +0.260 C 
ATOM     18  C   LIG    1        2.424   0.035  -0.396  0.00  0.00    +0.040 C 
ATOM     19  C   LIG    1        2.432   1.333   0.421  0.00  0.00    +0.040 C 
ATOM     20  C   LIG    1        1.225   2.175   0.002  0.00  0.00    +0.260 C 
ENDBRANCH   9  20
ENDBRANCH   1  11
BRANCH   6  21
ATOM     21  C   LIG    1        1.810   8.531   4.895  0.00  0.00    +0.100 C 
BRANCH  21  22
ATOM     22  C   LIG    1        2.492   8.340   6.225  0.00  0.00    -0.070 A 
ATOM     23  C   LIG    1        1.795   7.794   7.287  0.00  0.00    +0.010 A 
ATOM     24  C   LIG    1        2.421   7.615   8.506  0.00  0.00    +0.000 A 
ATOM     25  C   LIG    1        3.743   7.989   8.665  0.00  0.00    +0.000 A 
ATOM     26  C   LIG    1        4.438   8.539   7.605  0.00  0.00    +0.000 A 
ATOM     27  C   LIG    1        3.813   8.714   6.385  0.00  0.00    +0.010 A 
ENDBRANCH  21  22
ENDBRANCH   6  21
TORSDOF 4
