REMARK  Name = ZINCvU0000000Fst.0
REMARK                            x       y       z     vdW  Elec       q    Type
REMARK                         _______ _______ _______ _____ _____    ______ ____
ROOT
ATOM      1  C   LIG    1       -1.230  -7.412   3.180  0.00  0.00    +0.300 A 
ATOM      2  N   LIG    1       -0.764  -6.210   2.871  0.00  0.00    -0.550 NA
ATOM      3  C   LIG    1       -0.681  -5.802   1.608  0.00  0.00    +0.580 A 
ATOM      4  N   LIG    1       -1.055  -6.552   0.589  0.00  0.00    -0.570 NA
ATOM      5  C   LIG    1       -1.535  -7.786   0.794  0.00  0.00    +0.210 A 
ATOM      6  C   LIG    1       -1.938  -8.611  -0.265  0.00  0.00    +0.020 A 
ATOM      7  C   LIG    1       -2.425  -9.856  -0.001  0.00  0.00    +0.070 A 
ATOM      8  C   LIG    1       -2.529 -10.324   1.306  0.00  0.00    -0.010 A 
ATOM      9  C   LIG    1       -2.147  -9.547   2.361  0.00  0.00    +0.060 A 
ATOM     10  C   LIG    1       -1.643  -8.264   2.125  0.00  0.00    -0.190 A 
ENDROOT
BRANCH   1  15
ATOM     11  C   LIG    1       -0.983  -9.540   6.266  0.00  0.00    -0.180 A 
ATOM     12  C   LIG    1       -1.478  -8.678   7.229  0.00  0.00    +0.090 A 
ATOM     13  C   LIG    1       -1.892  -7.405   6.878  0.00  0.00    +0.020 A 
ATOM     14  C   LIG    1       -1.809  -6.987   5.567  0.00  0.00    +0.100 A 
ATOM     15  C   LIG    1       -1.316  -7.853   4.590  0.00  0.00    -0.060 A 
ATOM     16  C   LIG    1       -0.900  -9.135   4.950  0.00  0.00    +0.100 A 
BRANCH  11  18
ATOM     17  F   LIG    1        0.824 -10.896   6.995  0.00  0.00    -0.170 F 
ATOM     18  C   LIG    1       -0.534 -10.925   6.657  0.00  0.00    +0.510 C 
ATOM     19  F   LIG    1       -0.728 -11.799   5.582  0.00  0.00    -0.180 F 
ATOM     20  F   LIG    1       -1.279 -11.365   7.756  0.00  0.00    -0.170 F 
ENDBRANCH  11  18
ENDBRANCH   1  15
BRANCH   3  21
ATOM     21  N   LIG    1       -0.186  -4.536   1.352  0.00  0.00    -0.690 N 
ATOM     22  H   LIG    1        0.092  -3.966   2.086  0.00  0.00    +0.420 HD
BRANCH  21  23
ATOM     23  C   LIG    1       -0.081  -4.056  -0.028  0.00  0.00    +0.430 C 
BRANCH  23  24
ATOM     24  C   LIG    1        0.483  -2.658  -0.033  0.00  0.00    +0.060 A 
ATOM     25  N   LIG    1        1.732  -2.386  -0.098  0.00  0.00    -0.430 NA
ATOM     26  C   LIG    1        2.094  -1.091  -0.092  0.00  0.00    +0.020 A 
ATOM     27  C   LIG    1        3.367  -0.495  -0.152  0.00  0.00    +0.360 A 
ATOM     28  N   LIG    1        3.499   0.810  -0.133  0.00  0.00    -0.470 NA
ATOM     29  C   LIG    1        2.463   1.629  -0.058  0.00  0.00    +0.280 A 
ATOM     30  C   LIG    1        1.178   1.139   0.004  0.00  0.00    +0.030 A 
ATOM     31  C   LIG    1        0.981  -0.241  -0.012  0.00  0.00    -0.160 A 
ATOM     32  S   LIG    1       -0.465  -1.240   0.049  0.00  0.00    +0.150 S 
ENDBRANCH  23  24
ENDBRANCH  21  23
ENDBRANCH   3  21
TORSDOF 5
