REMARK  Name = ZINCtV000002BQUU.0
REMARK                            x       y       z     vdW  Elec       q    Type
REMARK                         _______ _______ _______ _____ _____    ______ ____
ROOT
ATOM      1  C   LIG    1        2.666   7.843   1.184  0.00  0.00    +0.300 C 
ATOM      2  C   LIG    1        3.456   8.885   1.988  0.00  0.00    +0.020 C 
ATOM      3  C   LIG    1        4.943   8.525   1.957  0.00  0.00    +0.030 C 
ATOM      4  C   LIG    1        5.152   7.155   2.608  0.00  0.00    -0.030 C 
ATOM      5  C   LIG    1        4.380   6.095   1.815  0.00  0.00    +0.260 C 
ATOM      6  C   LIG    1        4.637   7.191   4.048  0.00  0.00    +0.020 C 
ATOM      7  N   LIG    1        2.974   6.509   1.717  0.00  0.00    -0.610 N 
ATOM      8  C   LIG    1        1.986   5.678   2.103  0.00  0.00    +0.710 C 
ATOM      9  N   LIG    1        2.274   4.577   2.825  0.00  0.00    -0.560 N 
ATOM     10  O   LIG    1        0.833   5.922   1.800  0.00  0.00    -0.530 OA
ENDROOT
BRANCH   9  11
ATOM     11  C   LIG    1        1.355   3.523   2.892  0.00  0.00    +0.180 A 
ATOM     12  C   LIG    1        0.233   3.526   2.074  0.00  0.00    +0.020 A 
ATOM     13  C   LIG    1       -0.672   2.485   2.140  0.00  0.00    +0.040 A 
ATOM     14  C   LIG    1       -0.459   1.437   3.017  0.00  0.00    -0.010 A 
ATOM     15  C   LIG    1        0.656   1.433   3.837  0.00  0.00    -0.010 A 
ATOM     16 CL   LIG    1        0.917   0.118   4.940  0.00  0.00    -0.070 Cl
ATOM     17  C   LIG    1        1.565   2.472   3.775  0.00  0.00    +0.000 A 
ENDBRANCH   9  11
BRANCH   1  23
ATOM     18  C   LIG    1        0.388   8.170   0.187  0.00  0.00    +0.140 A 
ATOM     19  C   LIG    1       -0.971   8.417   0.314  0.00  0.00    -0.080 A 
ATOM     20  C   LIG    1       -1.524   8.604   1.567  0.00  0.00    +0.040 A 
ATOM     21  C   LIG    1       -0.724   8.545   2.693  0.00  0.00    -0.030 A 
ATOM     22  C   LIG    1        0.631   8.294   2.569  0.00  0.00    +0.050 A 
ATOM     23  C   LIG    1        1.189   8.111   1.318  0.00  0.00    -0.080 A 
BRANCH  18  25
ATOM     24  C   LIG    1        0.049   8.060  -2.164  0.00  0.00    +0.230 C 
ATOM     25  O   LIG    1        0.933   7.986  -1.044  0.00  0.00    -0.320 OA
ENDBRANCH  18  25
ENDBRANCH   1  23
BRANCH   9  26
ATOM     26  C   LIG    1        3.549   4.484   3.541  0.00  0.00    +0.280 C 
BRANCH  26  27
ATOM     27  C   LIG    1        4.415   3.397   2.901  0.00  0.00    +0.360 C 
ATOM     28  F   LIG    1        4.655   3.721   1.561  0.00  0.00    -0.190 F 
ATOM     29  F   LIG    1        3.749   2.169   2.972  0.00  0.00    -0.180 F 
ENDBRANCH  26  27
ENDBRANCH   9  26
TORSDOF 5
