REMARK  Name = ZINCtV00001bB3Tk.0
REMARK                            x       y       z     vdW  Elec       q    Type
REMARK                         _______ _______ _______ _____ _____    ______ ____
ROOT
ATOM      1  O   LIG    1       -0.223  -2.665  -0.415  0.00  0.00    -0.490 OA
ATOM      2  C   LIG    1       -1.437  -2.732  -0.436  0.00  0.00    +0.590 C 
ATOM      3  N   LIG    1       -2.177  -1.640  -0.162  0.00  0.00    -0.470 N 
ATOM      4  N   LIG    1       -1.687  -0.353   0.094  0.00  0.00    -0.190 NA
ATOM      5  C   LIG    1       -2.594   0.474   0.490  0.00  0.00    +0.110 C 
ATOM      6  C   LIG    1       -2.540   1.875   0.644  0.00  0.00    -0.070 C 
ATOM      7  C   LIG    1       -3.788   2.677   0.856  0.00  0.00    +0.090 C 
ATOM      8  C   LIG    1       -5.041   1.844   1.033  0.00  0.00    +0.020 C 
ATOM      9  C   LIG    1       -5.019   0.536   0.245  0.00  0.00    +0.060 C 
ATOM     10  C   LIG    1       -1.342   2.505   0.606  0.00  0.00    +0.110 C 
ATOM     11  C   LIG    1       -3.866  -0.320   0.772  0.00  0.00    +0.020 C 
ATOM     12  C   LIG    1       -3.654  -1.584  -0.078  0.00  0.00    +0.290 C 
ENDROOT
BRANCH   2  13
ATOM     13  C   LIG    1       -2.101  -4.012  -0.761  0.00  0.00    -0.120 A 
ATOM     14  C   LIG    1       -1.348  -5.181  -0.885  0.00  0.00    +0.090 A 
ATOM     15  C   LIG    1       -1.973  -6.372  -1.188  0.00  0.00    +0.030 A 
ATOM     16  C   LIG    1       -3.344  -6.411  -1.370  0.00  0.00    +0.060 A 
ATOM     17  C   LIG    1       -4.098  -5.256  -1.248  0.00  0.00    -0.040 A 
ATOM     18 CL   LIG    1       -5.818  -5.315  -1.476  0.00  0.00    -0.060 Cl
ATOM     19  C   LIG    1       -3.485  -4.058  -0.939  0.00  0.00    +0.060 A 
ENDBRANCH   2  13
BRANCH  10  20
ATOM     20  C   LIG    1       -0.105   1.724   0.616  0.00  0.00    -0.180 A 
ATOM     21  C   LIG    1        0.980   1.954  -0.181  0.00  0.00    +0.030 A 
ATOM     22  C   LIG    1        2.022   1.076   0.012  0.00  0.00    -0.010 A 
ATOM     23  C   LIG    1        1.814   0.140   0.945  0.00  0.00    -0.040 A 
ATOM     24  S   LIG    1        0.216   0.338   1.650  0.00  0.00    +0.170 S 
ENDBRANCH  10  20
BRANCH  12  25
ATOM     25  C   LIG    1       -4.268  -1.425  -1.445  0.00  0.00    -0.210 A 
ATOM     26  C   LIG    1       -5.446  -1.925  -1.823  0.00  0.00    +0.020 A 
ATOM     27  C   LIG    1       -5.806  -1.647  -3.130  0.00  0.00    +0.010 A 
ATOM     28  C   LIG    1       -4.917  -0.928  -3.817  0.00  0.00    -0.040 A 
ATOM     29  S   LIG    1       -3.538  -0.557  -2.790  0.00  0.00    +0.150 S 
ENDBRANCH  12  25
TORSDOF 3
