REMARK  Name = ZINCrH00000tj1aO.0
REMARK                            x       y       z     vdW  Elec       q    Type
REMARK                         _______ _______ _______ _____ _____    ______ ____
ROOT
ATOM      1  N   LIG    1       -1.994   0.601   1.280  0.00  0.00    -0.670 N 
ATOM      2  H   LIG    1       -1.351   0.903   1.941  0.00  0.00    +0.440 HD
ENDROOT
BRANCH   1   4
ATOM      3  C   LIG    1       -3.934   1.248   2.665  0.00  0.00    -0.050 A 
ATOM      4  C   LIG    1       -3.344   0.723   1.525  0.00  0.00    +0.340 A 
ATOM      5  O   LIG    1       -4.345   0.350   0.708  0.00  0.00    -0.210 OA
ATOM      6  C   LIG    1       -5.513   0.638   1.314  0.00  0.00    +0.220 A 
ATOM      7  N   LIG    1       -5.279   1.178   2.481  0.00  0.00    -0.400 NA
BRANCH   6   8
ATOM      8  C   LIG    1       -6.854   0.384   0.746  0.00  0.00    -0.010 A 
ATOM      9  C   LIG    1       -6.981  -0.195  -0.518  0.00  0.00    +0.040 A 
ATOM     10  C   LIG    1       -8.235  -0.435  -1.040  0.00  0.00    +0.010 A 
ATOM     11  C   LIG    1       -9.365  -0.093  -0.319  0.00  0.00    +0.030 A 
ATOM     12  C   LIG    1       -9.246   0.486   0.932  0.00  0.00    +0.010 A 
ATOM     13  C   LIG    1       -7.998   0.726   1.468  0.00  0.00    +0.070 A 
ENDBRANCH   6   8
BRANCH   3  15
ATOM     14  N   LIG    1       -2.718   2.180   4.726  0.00  0.00    -0.400 NA
ATOM     15  C   LIG    1       -3.256   1.768   3.814  0.00  0.00    +0.300 C 
ENDBRANCH   3  15
ENDBRANCH   1   4
BRANCH   1  16
ATOM     16  C   LIG    1       -1.528   0.014   0.021  0.00  0.00    +0.290 C 
BRANCH  16  17
ATOM     17  C   LIG    1        0.002  -0.004   0.002  0.00  0.00    +0.270 C 
BRANCH  17  18
ATOM     18  N   LIG    1        0.511   1.353   0.240  0.00  0.00    -0.520 NA
ATOM     19  C   LIG    1       -0.098   2.315  -0.690  0.00  0.00    +0.150 C 
ATOM     20  C   LIG    1        0.413   3.722  -0.369  0.00  0.00    +0.230 C 
ATOM     21  O   LIG    1        1.842   3.731  -0.440  0.00  0.00    -0.380 OA
ATOM     22  C   LIG    1        2.468   2.807   0.454  0.00  0.00    +0.220 C 
ATOM     23  C   LIG    1        1.977   1.391   0.141  0.00  0.00    +0.160 C 
ENDBRANCH  17  18
BRANCH  17  24
ATOM     24  C   LIG    1        0.482  -0.493  -1.340  0.00  0.00    -0.230 A 
ATOM     25  C   LIG    1        1.233  -1.577  -1.541  0.00  0.00    +0.030 A 
ATOM     26  C   LIG    1        1.550  -1.831  -2.864  0.00  0.00    +0.000 A 
ATOM     27  C   LIG    1        1.063  -0.948  -3.738  0.00  0.00    -0.050 A 
ATOM     28  S   LIG    1        0.144   0.284  -2.882  0.00  0.00    +0.120 S 
ENDBRANCH  17  24
ENDBRANCH  16  17
ENDBRANCH   1  16
TORSDOF 7
