REMARK  Name = ZINCrD00000760q3.0
REMARK                            x       y       z     vdW  Elec       q    Type
REMARK                         _______ _______ _______ _____ _____    ______ ____
ROOT
ATOM      1  C   LIG    1        7.388  -0.275  -0.114  0.00  0.00    -0.130 A 
ATOM      2  C   LIG    1        8.516  -0.661   0.584  0.00  0.00    +0.270 A 
ATOM      3  C   LIG    1        9.107   0.209   1.482  0.00  0.00    -0.720 A 
ATOM      4  C   LIG    1        8.571   1.468   1.685  0.00  0.00    +0.240 A 
ATOM      5  C   LIG    1        7.446   1.862   0.987  0.00  0.00    -0.050 A 
ATOM      6  C   LIG    1        6.847   0.989   0.088  0.00  0.00    +0.330 A 
ENDROOT
BRANCH   1   8
ATOM      7  O   LIG    1        5.543  -1.248  -1.175  0.00  0.00    -0.170 OA
ATOM      8  N   LIG    1        6.756  -1.206  -1.075  0.00  0.00    +0.030 N 
ATOM      9  O   LIG    1        7.450  -1.931  -1.766  0.00  0.00    -0.130 OA
ENDBRANCH   1   8
BRANCH   3  10
ATOM     10  S   LIG    1       10.546  -0.287   2.369  0.00  0.00    +2.500 S 
ATOM     11  O   LIG    1       10.455  -1.704   2.420  0.00  0.00    -0.850 OA
ATOM     12  O   LIG    1       10.511   0.492   3.557  0.00  0.00    -0.850 OA
BRANCH  10  13
ATOM     13  C   LIG    1       11.928   0.225   1.312  0.00  0.00    -0.020 C 
ATOM     14  F   LIG    1       11.831  -0.418   0.073  0.00  0.00    -0.150 F 
ATOM     15  F   LIG    1       13.137  -0.123   1.924  0.00  0.00    -0.160 F 
ATOM     16  F   LIG    1       11.883   1.610   1.123  0.00  0.00    -0.160 F 
ENDBRANCH  10  13
ENDBRANCH   3  10
BRANCH   6  17
ATOM     17  N   LIG    1        5.706   1.382  -0.616  0.00  0.00    -0.710 N 
ATOM     18  H   LIG    1        5.338   0.806  -1.304  0.00  0.00    +0.420 HD
BRANCH  17  19
ATOM     19  C   LIG    1        5.066   2.665  -0.314  0.00  0.00    +0.300 C 
BRANCH  19  20
ATOM     20  C   LIG    1        3.847   2.851  -1.220  0.00  0.00    +0.170 C 
ATOM     21  C   LIG    1        3.220   4.251  -1.014  0.00  0.00    +0.100 C 
ATOM     22  C   LIG    1        1.740   3.956  -1.161  0.00  0.00    -0.180 A 
ATOM     23  C   LIG    1        0.651   4.773  -1.366  0.00  0.00    +0.060 A 
ATOM     24  C   LIG    1       -0.615   4.224  -1.474  0.00  0.00    -0.020 A 
ATOM     25  C   LIG    1       -0.779   2.855  -1.381  0.00  0.00    +0.050 A 
ATOM     26  C   LIG    1        0.310   2.035  -1.168  0.00  0.00    +0.000 A 
ATOM     27  C   LIG    1        1.586   2.580  -1.055  0.00  0.00    +0.100 A 
ATOM     28  O   LIG    1        2.781   1.966  -0.835  0.00  0.00    -0.290 OA
ENDBRANCH  19  20
ENDBRANCH  17  19
ENDBRANCH   6  17
TORSDOF 6
