REMARK  Name = ZINCqH0000007aFP.0
REMARK                            x       y       z     vdW  Elec       q    Type
REMARK                         _______ _______ _______ _____ _____    ______ ____
ROOT
ATOM      1  C   LIG    1       -4.298   0.195   1.452  0.00  0.00    +0.190 C 
ATOM      2  C   LIG    1       -4.301  -1.224   0.880  0.00  0.00    +0.030 C 
ENDROOT
BRANCH   1   3
ATOM      3  C   LIG    1       -4.774   0.161   2.882  0.00  0.00    +0.520 C 
ATOM      4  N   LIG    1       -6.006  -0.305   3.171  0.00  0.00    -0.670 N 
ATOM      5  H   LIG    1       -6.609  -0.557   2.455  0.00  0.00    +0.420 HD
ATOM      6  O   LIG    1       -4.050   0.553   3.772  0.00  0.00    -0.490 OA
BRANCH   4   7
ATOM      7  C   LIG    1       -6.414  -0.424   4.506  0.00  0.00    +0.140 A 
ATOM      8  C   LIG    1       -5.985   0.499   5.449  0.00  0.00    +0.090 A 
ATOM      9  C   LIG    1       -6.388   0.381   6.766  0.00  0.00    +0.050 A 
ATOM     10  C   LIG    1       -7.219  -0.658   7.147  0.00  0.00    +0.080 A 
ATOM     11  C   LIG    1       -7.650  -1.583   6.208  0.00  0.00    +0.050 A 
ATOM     12  F   LIG    1       -8.461  -2.597   6.582  0.00  0.00    -0.110 F 
ATOM     13  F   LIG    1       -7.611  -0.771   8.435  0.00  0.00    -0.120 F 
ATOM     14  C   LIG    1       -7.254  -1.465   4.887  0.00  0.00    +0.070 A 
ATOM     15  F   LIG    1       -7.678  -2.362   3.970  0.00  0.00    -0.120 F 
ENDBRANCH   4   7
ENDBRANCH   1   3
BRANCH   1  16
ATOM     16  N   LIG    1       -2.936   0.741   1.403  0.00  0.00    -0.510 NA
ATOM     17  C   LIG    1       -1.984  -0.160   2.067  0.00  0.00    +0.210 C 
BRANCH  16  18
ATOM     18  C   LIG    1       -2.526   1.011   0.018  0.00  0.00    +0.240 C 
BRANCH  18  22
ATOM     19  C   LIG    1        1.135   3.219   0.013  0.00  0.00    +0.100 A 
ATOM     20  C   LIG    1        1.159   1.833  -0.005  0.00  0.00    -0.040 A 
ATOM     21  C   LIG    1       -0.027   1.121   0.001  0.00  0.00    +0.050 A 
ATOM     22  C   LIG    1       -1.236   1.790   0.018  0.00  0.00    -0.090 A 
ATOM     23  C   LIG    1       -1.265   3.173   0.041  0.00  0.00    +0.050 A 
ATOM     24  C   LIG    1       -0.082   3.889   0.035  0.00  0.00    +0.070 A 
ATOM     25  F   LIG    1       -0.110   5.240   0.052  0.00  0.00    -0.130 F 
BRANCH  19  27
ATOM     26  C   LIG    1        3.512   3.164  -0.017  0.00  0.00    +0.250 C 
ATOM     27  O   LIG    1        2.299   3.920   0.007  0.00  0.00    -0.310 OA
ENDBRANCH  19  27
ENDBRANCH  18  22
ENDBRANCH  16  18
ENDBRANCH   1  16
TORSDOF 6
