REMARK  Name = ZINCkj000005iIQt.0
REMARK                            x       y       z     vdW  Elec       q    Type
REMARK                         _______ _______ _______ _____ _____    ______ ____
ROOT
ATOM      1  C   LIG    1       -0.076   1.671   0.135  0.00  0.00    +0.310 C 
ENDROOT
BRANCH   1   2
ATOM      2  N   LIG    1       -0.263   0.224   0.268  0.00  0.00    -0.700 N 
ATOM      3  H   LIG    1        0.506  -0.367   0.258  0.00  0.00    +0.410 HD
ATOM      4  C   LIG    1       -1.503  -0.285   0.403  0.00  0.00    +0.500 C 
ATOM      5  O   LIG    1       -2.464   0.454   0.415  0.00  0.00    -0.520 OA
BRANCH   4   6
ATOM      6  C   LIG    1       -1.695  -1.774   0.539  0.00  0.00    +0.170 C 
ATOM      7  C   LIG    1       -1.406  -2.210   1.987  0.00  0.00    +0.100 C 
ATOM      8  C   LIG    1       -2.720  -2.857   2.484  0.00  0.00    +0.070 C 
ATOM      9  C   LIG    1       -3.431  -3.252   1.165  0.00  0.00    +0.280 C 
ATOM     10  N   LIG    1       -3.102  -2.129   0.251  0.00  0.00    -0.500 N 
ATOM     11  H   LIG    1       -3.197  -2.422  -0.709  0.00  0.00    +0.440 HD
ATOM     12  H   LIG    1       -3.704  -1.341   0.437  0.00  0.00    +0.440 HD
ENDBRANCH   4   6
ENDBRANCH   1   2
BRANCH   1  13
ATOM     13  C   LIG    1        1.416   1.983  -0.003  0.00  0.00    +0.150 C 
ATOM     14  C   LIG    1        1.611   3.494  -0.141  0.00  0.00    +0.060 C 
BRANCH  13  15
ATOM     15  O   LIG    1        2.109   1.517   1.157  0.00  0.00    -0.310 OA
BRANCH  15  19
ATOM     16  C   LIG    1        6.120   0.647   0.720  0.00  0.00    +0.100 A 
ATOM     17  C   LIG    1        5.413   1.208  -0.334  0.00  0.00    +0.030 A 
ATOM     18  C   LIG    1        4.071   1.499  -0.187  0.00  0.00    -0.030 A 
ATOM     19  C   LIG    1        3.430   1.230   1.013  0.00  0.00    +0.080 A 
ATOM     20  C   LIG    1        4.138   0.674   2.068  0.00  0.00    +0.020 A 
ATOM     21  C   LIG    1        5.480   0.379   1.920  0.00  0.00    -0.030 A 
BRANCH  16  23
ATOM     22  C   LIG    1        8.107  -0.215   1.702  0.00  0.00    +0.250 C 
ATOM     23  O   LIG    1        7.442   0.361   0.576  0.00  0.00    -0.320 OA
ENDBRANCH  16  23
ENDBRANCH  15  19
ENDBRANCH  13  15
ENDBRANCH   1  13
TORSDOF 6
