REMARK  Name = ZINCrH00000No4KL.0
REMARK                            x       y       z     vdW  Elec       q    Type
REMARK                         _______ _______ _______ _____ _____    ______ ____
ROOT
ATOM      1  C   LIG    1        1.242   2.093   0.001  0.00  0.00    +0.250 C 
ATOM      2  C   LIG    1        1.759   2.239   1.434  0.00  0.00    +0.060 C 
ENDROOT
BRANCH   1   4
ATOM      3  C   LIG    1        0.002  -0.004   0.002  0.00  0.00    +0.550 C 
ATOM      4  N   LIG    1       -0.016   1.344   0.009  0.00  0.00    -0.710 N 
ATOM      5  H   LIG    1       -0.863   1.817   0.016  0.00  0.00    +0.410 HD
ATOM      6  O   LIG    1        1.064  -0.598  -0.011  0.00  0.00    -0.550 OA
BRANCH   3   8
ATOM      7  C   LIG    1       -1.236  -2.102   0.003  0.00  0.00    +0.140 C 
ATOM      8  C   LIG    1       -1.254  -0.752   0.010  0.00  0.00    -0.100 C 
BRANCH   7  12
ATOM      9  C   LIG    1       -4.880  -4.273   0.027  0.00  0.00    +0.140 A 
ATOM     10  C   LIG    1       -3.668  -4.954   0.011  0.00  0.00    -0.020 A 
ATOM     11  C   LIG    1       -2.483  -4.254   0.003  0.00  0.00    +0.090 A 
ATOM     12  C   LIG    1       -2.499  -2.854   0.011  0.00  0.00    -0.120 A 
ATOM     13  C   LIG    1       -3.722  -2.174   0.032  0.00  0.00    +0.070 A 
ATOM     14  C   LIG    1       -4.902  -2.883   0.034  0.00  0.00    -0.080 A 
BRANCH   9  16
ATOM     15  C   LIG    1       -7.255  -4.205   0.052  0.00  0.00    +0.240 C 
ATOM     16  O   LIG    1       -6.046  -4.967   0.035  0.00  0.00    -0.310 OA
ENDBRANCH   9  16
ENDBRANCH   7  12
ENDBRANCH   3   8
ENDBRANCH   1   4
BRANCH   1  17
ATOM     17  C   LIG    1        1.009   3.460  -0.590  0.00  0.00    +0.520 C 
ATOM     18  N   LIG    1        2.033   4.330  -0.699  0.00  0.00    -0.720 N 
ATOM     19  H   LIG    1        2.919   4.077  -0.397  0.00  0.00    +0.400 HD
ATOM     20  O   LIG    1       -0.099   3.776  -0.967  0.00  0.00    -0.530 OA
BRANCH  18  21
ATOM     21  C   LIG    1        1.806   5.659  -1.273  0.00  0.00    +0.310 C 
ATOM     22  C   LIG    1        1.904   5.579  -2.798  0.00  0.00    +0.040 C 
BRANCH  21  23
ATOM     23  C   LIG    1        2.848   6.615  -0.752  0.00  0.00    -0.120 A 
ATOM     24  C   LIG    1        2.646   7.933  -0.692  0.00  0.00    -0.170 A 
ATOM     25  S   LIG    1        4.074   8.719  -0.032  0.00  0.00    +0.110 S 
ATOM     26  C   LIG    1        4.892   7.169   0.122  0.00  0.00    -0.170 A 
ATOM     27  C   LIG    1        6.288   6.973   0.654  0.00  0.00    +0.140 C 
ATOM     28  C   LIG    1        1.386   8.639  -1.122  0.00  0.00    +0.140 C 
ATOM     29  C   LIG    1        4.088   6.194  -0.306  0.00  0.00    +0.000 A 
ENDBRANCH  21  23
ENDBRANCH  18  21
ENDBRANCH   1  17
TORSDOF 7
