REMARK  Name = ZINCtV000002OIoA.0
REMARK                            x       y       z     vdW  Elec       q    Type
REMARK                         _______ _______ _______ _____ _____    ______ ____
ROOT
ATOM      1  O   LIG    1        5.087  -3.773   0.291  0.00  0.00    -0.500 OA
ATOM      2  C   LIG    1        5.021  -2.558   0.303  0.00  0.00    +0.570 C 
ATOM      3  N   LIG    1        6.147  -1.823   0.389  0.00  0.00    -0.620 N 
ATOM      4  H   LIG    1        6.095  -0.855   0.399  0.00  0.00    +0.420 HD
ENDROOT
BRANCH   2   5
ATOM      5  C   LIG    1        3.708  -1.890   0.224  0.00  0.00    -0.150 A 
ATOM      6  C   LIG    1        2.539  -2.651   0.136  0.00  0.00    +0.120 A 
ATOM      7  C   LIG    1        1.316  -2.025   0.062  0.00  0.00    +0.020 A 
ATOM      8  C   LIG    1        1.242  -0.635   0.077  0.00  0.00    +0.180 A 
ATOM      9  C   LIG    1        2.404   0.126   0.160  0.00  0.00    -0.010 A 
ATOM     10  C   LIG    1        3.631  -0.495   0.238  0.00  0.00    +0.070 A 
BRANCH   8  11
ATOM     11  N   LIG    1        0.002  -0.004   0.002  0.00  0.00    -0.670 N 
ATOM     12  H   LIG    1       -0.087   0.835  -0.477  0.00  0.00    +0.410 HD
ATOM     13  C   LIG    1       -1.073  -0.559   0.596  0.00  0.00    +0.600 C 
ATOM     14  O   LIG    1       -0.980  -1.651   1.125  0.00  0.00    -0.500 OA
BRANCH  13  15
ATOM     15  C   LIG    1       -2.353   0.155   0.609  0.00  0.00    -0.280 A 
ATOM     16  C   LIG    1       -3.510  -0.301   1.176  0.00  0.00    +0.120 A 
ATOM     17  C   LIG    1       -4.562   0.574   1.043  0.00  0.00    +0.000 A 
ATOM     18  C   LIG    1       -4.279   1.707   0.390  0.00  0.00    -0.050 A 
ATOM     19  S   LIG    1       -2.644   1.739  -0.097  0.00  0.00    +0.200 S 
ENDBRANCH  13  15
ENDBRANCH   8  11
ENDBRANCH   2   5
BRANCH   3  20
ATOM     20  C   LIG    1        7.383  -2.452   0.464  0.00  0.00    +0.270 A 
ATOM     21  N   LIG    1        8.527  -1.848   0.548  0.00  0.00    -0.480 NA
ATOM     22  C   LIG    1        9.608  -2.613   0.611  0.00  0.00    +0.120 A 
ATOM     23  C   LIG    1        9.380  -3.938   0.577  0.00  0.00    -0.110 A 
ATOM     24  S   LIG    1        7.640  -4.194   0.465  0.00  0.00    +0.210 S 
BRANCH  22  25
ATOM     25  C   LIG    1       10.976  -2.047   0.711  0.00  0.00    -0.010 A 
ATOM     26  C   LIG    1       12.080  -2.893   0.780  0.00  0.00    +0.040 A 
ATOM     27  C   LIG    1       13.351  -2.361   0.868  0.00  0.00    +0.010 A 
ATOM     28  C   LIG    1       13.528  -0.990   0.898  0.00  0.00    +0.030 A 
ATOM     29  C   LIG    1       12.436  -0.143   0.835  0.00  0.00    +0.020 A 
ATOM     30  C   LIG    1       11.160  -0.664   0.742  0.00  0.00    -0.010 A 
ATOM     31 CL   LIG    1        9.790   0.399   0.663  0.00  0.00    -0.040 Cl
ENDBRANCH  22  25
ENDBRANCH   3  20
TORSDOF 5
