REMARK  Name = ZINCb80000002FLH.1
REMARK                            x       y       z     vdW  Elec       q    Type
REMARK                         _______ _______ _______ _____ _____    ______ ____
ROOT
ATOM      1  N   LIG    1       -0.016   1.344   0.009  0.00  0.00    -0.310 N 
ATOM      2  C   LIG    1        0.002  -0.004   0.002  0.00  0.00    +0.440 A 
ATOM      3  N   LIG    1        1.295  -0.390  -0.012  0.00  0.00    -0.450 N 
ATOM      4  H   LIG    1        1.623  -1.303  -0.021  0.00  0.00    +0.480 HD
ATOM      5  N   LIG    1        2.077   0.773  -0.014  0.00  0.00    -0.190 NA
ATOM      6  S   LIG    1       -1.364  -1.036   0.010  0.00  0.00    -0.520 S 
ATOM      7  C   LIG    1        1.281   1.794  -0.001  0.00  0.00    +0.200 A 
ENDROOT
BRANCH   7   8
ATOM      8  C   LIG    1        1.708   3.239   0.002  0.00  0.00    +0.570 C 
ATOM      9  F   LIG    1        1.219   3.868   1.152  0.00  0.00    -0.150 F 
ATOM     10  F   LIG    1        1.197   3.878  -1.132  0.00  0.00    -0.140 F 
ATOM     11  F   LIG    1        3.105   3.312  -0.010  0.00  0.00    -0.140 F 
ENDBRANCH   7   8
BRANCH   1  12
ATOM     12  N   LIG    1       -1.135   2.128   0.019  0.00  0.00    -0.560 N 
ATOM     13  H   LIG    1       -1.124   2.763   0.804  0.00  0.00    +0.370 HD
ATOM     14  H   LIG    1       -1.971   1.565   0.021  0.00  0.00    +0.400 HD
ENDBRANCH   1  12
TORSDOF 2
