REMARK  Name = ZINCrD00000hQ58r.0
REMARK                            x       y       z     vdW  Elec       q    Type
REMARK                         _______ _______ _______ _____ _____    ______ ____
ROOT
ATOM      1  C   LIG    1        6.045   3.353   0.791  0.00  0.00    +0.530 C 
ATOM      2  N   LIG    1        4.931   3.694   0.112  0.00  0.00    -0.720 N 
ATOM      3  H   LIG    1        4.972   4.379  -0.573  0.00  0.00    +0.410 HD
ATOM      4  O   LIG    1        5.994   2.496   1.648  0.00  0.00    -0.520 OA
ENDROOT
BRANCH   2   5
ATOM      5  C   LIG    1        3.660   3.029   0.409  0.00  0.00    +0.220 C 
ATOM      6  C   LIG    1        3.562   1.720  -0.385  0.00  0.00    +0.240 C 
ATOM      7  O   LIG    1        2.355   1.058  -0.007  0.00  0.00    -0.310 OA
ATOM      8  C   LIG    1        1.203   1.780   0.000  0.00  0.00    +0.140 A 
ATOM      9  C   LIG    1        1.210   3.142   0.005  0.00  0.00    -0.160 A 
ATOM     10  C   LIG    1       -0.010   3.845   0.023  0.00  0.00    -0.010 A 
ATOM     11  C   LIG    1       -0.034   5.250   0.032  0.00  0.00    +0.010 A 
ATOM     12  C   LIG    1       -1.229   5.902   0.051  0.00  0.00    +0.020 A 
ATOM     13  C   LIG    1       -2.431   5.198   0.060  0.00  0.00    -0.010 A 
ATOM     14  C   LIG    1       -2.446   3.837   0.052  0.00  0.00    +0.040 A 
ATOM     15  C   LIG    1       -1.232   3.129   0.032  0.00  0.00    -0.080 A 
ATOM     16  C   LIG    1       -1.205   1.724   0.017  0.00  0.00    +0.070 A 
ATOM     17  C   LIG    1       -0.013   1.076   0.008  0.00  0.00    +0.000 A 
ATOM     18  C   LIG    1        2.496   3.929  -0.012  0.00  0.00    +0.090 C 
ENDBRANCH   2   5
BRANCH   1  28
ATOM     19  C   LIG    1        9.634   1.375   2.065  0.00  0.00    +0.020 C 
ATOM     20  C   LIG    1        8.759   2.025   0.992  0.00  0.00    -0.010 C 
ATOM     21  C   LIG    1        9.499   2.002  -0.352  0.00  0.00    +0.100 C 
ATOM     22  C   LIG    1        8.723   2.847  -1.332  0.00  0.00    -0.220 A 
ATOM     23  C   LIG    1        8.818   2.869  -2.674  0.00  0.00    +0.240 A 
ATOM     24  N   LIG    1        7.928   3.777  -3.132  0.00  0.00    -0.480 N 
ATOM     25  H   LIG    1        7.775   4.006  -4.063  0.00  0.00    +0.440 HD
ATOM     26  N   LIG    1        7.264   4.331  -2.027  0.00  0.00    -0.280 NA
ATOM     27  C   LIG    1        7.740   3.776  -0.950  0.00  0.00    +0.080 A 
ATOM     28  C   LIG    1        7.353   4.036   0.485  0.00  0.00    +0.100 C 
ATOM     29  C   LIG    1        8.455   3.471   1.389  0.00  0.00    +0.070 C 
ENDBRANCH   1  28
TORSDOF 2
