REMARK  Name = ZINCqH0000007NCi.0
REMARK                            x       y       z     vdW  Elec       q    Type
REMARK                         _______ _______ _______ _____ _____    ______ ____
ROOT
ATOM      1  S   LIG    1       -0.853  -1.927   2.514  0.00  0.00    +0.070 S 
ENDROOT
BRANCH   1   6
ATOM      2  N   LIG    1       -1.203  -0.724   0.010  0.00  0.00    -0.410 N 
ATOM      3  C   LIG    1       -2.159  -0.748  -0.970  0.00  0.00    +0.390 A 
ATOM      4  N   LIG    1       -3.111  -1.540  -0.563  0.00  0.00    -0.280 NA
ATOM      5  N   LIG    1       -2.826  -2.014   0.597  0.00  0.00    -0.300 NA
ATOM      6  C   LIG    1       -1.664  -1.553   0.996  0.00  0.00    +0.160 A 
BRANCH   2  12
ATOM      7  C   LIG    1        1.220  -0.680  -0.013  0.00  0.00    +0.150 A 
ATOM      8  C   LIG    1        2.406   0.035  -0.021  0.00  0.00    -0.060 A 
ATOM      9  C   LIG    1        2.379   1.418  -0.013  0.00  0.00    +0.080 A 
ATOM     10  C   LIG    1        1.171   2.089   0.002  0.00  0.00    -0.010 A 
ATOM     11  C   LIG    1       -0.017   1.382   0.010  0.00  0.00    +0.080 A 
ATOM     12  C   LIG    1        0.002  -0.004   0.002  0.00  0.00    +0.060 A 
BRANCH   7  14
ATOM     13  C   LIG    1        2.529  -2.665  -0.036  0.00  0.00    +0.260 C 
ATOM     14  O   LIG    1        1.244  -2.040  -0.020  0.00  0.00    -0.300 OA
ENDBRANCH   7  14
ENDBRANCH   2  12
ENDBRANCH   1   6
BRANCH   1  15
ATOM     15  C   LIG    1       -2.062  -3.058   3.246  0.00  0.00    +0.090 C 
BRANCH  15  16
ATOM     16  C   LIG    1       -1.566  -3.521   4.592  0.00  0.00    +0.450 C 
ATOM     17  O   LIG    1       -0.499  -3.126   5.015  0.00  0.00    -0.450 OA
BRANCH  16  18
ATOM     18  C   LIG    1       -2.346  -4.419   5.364  0.00  0.00    -0.270 A 
ATOM     19  C   LIG    1       -3.570  -4.955   5.024  0.00  0.00    +0.340 A 
ATOM     20  N   LIG    1       -3.997  -5.766   6.011  0.00  0.00    -0.570 N 
ATOM     21  H   LIG    1       -4.834  -6.256   5.997  0.00  0.00    +0.420 HD
ATOM     22  C   LIG    1       -3.082  -5.804   7.043  0.00  0.00    +0.070 A 
ATOM     23  C   LIG    1       -3.052  -6.474   8.262  0.00  0.00    +0.000 A 
ATOM     24  C   LIG    1       -1.977  -6.313   9.109  0.00  0.00    +0.030 A 
ATOM     25  C   LIG    1       -0.920  -5.487   8.760  0.00  0.00    +0.000 A 
ATOM     26  C   LIG    1       -0.931  -4.814   7.557  0.00  0.00    +0.060 A 
ATOM     27  C   LIG    1       -2.007  -4.973   6.689  0.00  0.00    -0.060 A 
ENDBRANCH  16  18
ENDBRANCH  15  16
ENDBRANCH   1  15
TORSDOF 6
