REMARK  Name = ZINCrg00000fSn7M.0
REMARK                            x       y       z     vdW  Elec       q    Type
REMARK                         _______ _______ _______ _____ _____    ______ ____
ROOT
ATOM      1  S   LIG    1        1.300  -2.425  -0.024  0.00  0.00    +0.030 S 
ENDROOT
BRANCH   1   5
ATOM      2  C   LIG    1        3.688   2.087  -0.021  0.00  0.00    +0.140 C 
ATOM      3  C   LIG    1        2.373   1.350  -0.013  0.00  0.00    +0.170 A 
ATOM      4  N   LIG    1        2.371   0.032  -0.020  0.00  0.00    -0.490 NA
ATOM      5  C   LIG    1        1.244  -0.664  -0.013  0.00  0.00    +0.130 A 
ATOM      6  C   LIG    1        0.002  -0.004   0.002  0.00  0.00    -0.170 A 
ATOM      7  C   LIG    1       -0.017   1.395   0.010  0.00  0.00    +0.010 A 
ATOM      8  C   LIG    1       -1.321   2.150   0.020  0.00  0.00    +0.130 C 
ATOM      9  C   LIG    1        1.191   2.069   0.002  0.00  0.00    -0.140 A 
ATOM     10  C   LIG    1        1.220   3.576   0.009  0.00  0.00    +0.120 C 
BRANCH   6  11
ATOM     11  C   LIG    1       -1.256  -0.772   0.010  0.00  0.00    +0.570 C 
ATOM     12  O   LIG    1       -1.786  -1.083  -1.039  0.00  0.00    -0.520 OA
ATOM     13  N   LIG    1       -1.820  -1.129   1.181  0.00  0.00    -0.840 N 
ATOM     14  H   LIG    1       -2.648  -1.634   1.187  0.00  0.00    +0.410 HD
ATOM     15  H   LIG    1       -1.397  -0.881   2.019  0.00  0.00    +0.400 HD
ENDBRANCH   6  11
ENDBRANCH   1   5
BRANCH   1  16
ATOM     16  C   LIG    1        3.091  -2.682  -0.042  0.00  0.00    +0.160 C 
BRANCH  16  17
ATOM     17  C   LIG    1        3.387  -4.160  -0.053  0.00  0.00    +0.480 C 
ATOM     18  O   LIG    1        2.479  -4.957  -0.050  0.00  0.00    -0.490 OA
BRANCH  17  19
ATOM     19  O   LIG    1        4.658  -4.590  -0.068  0.00  0.00    -0.320 OA
BRANCH  19  20
ATOM     20  C   LIG    1        4.868  -6.027  -0.078  0.00  0.00    +0.270 C 
BRANCH  20  21
ATOM     21  C   LIG    1        6.347  -6.318  -0.093  0.00  0.00    +0.520 C 
ATOM     22  N   LIG    1        6.782  -7.594  -0.105  0.00  0.00    -0.720 N 
ATOM     23  H   LIG    1        6.143  -8.324  -0.103  0.00  0.00    +0.410 HD
ATOM     24  O   LIG    1        7.145  -5.405  -0.096  0.00  0.00    -0.520 OA
BRANCH  22  25
ATOM     25  C   LIG    1        8.219  -7.877  -0.120  0.00  0.00    +0.270 C 
BRANCH  25  26
ATOM     26  C   LIG    1        8.440  -9.391  -0.131  0.00  0.00    +0.160 C 
ATOM     27  C   LIG    1        9.949  -9.701  -0.030  0.00  0.00    +0.020 C 
ATOM     28  C   LIG    1       10.104 -10.904  -1.001  0.00  0.00    +0.010 C 
ATOM     29  C   LIG    1        9.054 -10.546  -2.083  0.00  0.00    +0.200 C 
ATOM     30  O   LIG    1        7.966  -9.943  -1.365  0.00  0.00    -0.380 OA
ENDBRANCH  25  26
ENDBRANCH  22  25
ENDBRANCH  20  21
ENDBRANCH  19  20
ENDBRANCH  17  19
ENDBRANCH  16  17
ENDBRANCH   1  16
TORSDOF 9
