REMARK  Name = ZINCpk000000pEoR.0
REMARK                            x       y       z     vdW  Elec       q    Type
REMARK                         _______ _______ _______ _____ _____    ______ ____
ROOT
ATOM      1  C   LIG    1       -2.522   1.244   0.015  0.00  0.00    +0.240 C 
ATOM      2  C   LIG    1       -3.562   2.384   0.058  0.00  0.00    +0.070 C 
ATOM      3  C   LIG    1       -2.755   3.572   0.645  0.00  0.00    +0.040 C 
ATOM      4  C   LIG    1       -1.356   3.334   0.026  0.00  0.00    +0.260 C 
ATOM      5  N   LIG    1       -1.191   1.869   0.018  0.00  0.00    -0.590 N 
ATOM      6  C   LIG    1       -0.014   1.211   0.009  0.00  0.00    +0.670 C 
ATOM      7  O   LIG    1        0.002  -0.004   0.002  0.00  0.00    -0.560 OA
ENDROOT
BRANCH   1  10
ATOM      8  N   LIG    1       -3.662  -0.516  -1.296  0.00  0.00    -0.710 N 
ATOM      9  H   LIG    1       -4.235  -0.672  -0.530  0.00  0.00    +0.410 HD
ATOM     10  C   LIG    1       -2.702   0.429  -1.239  0.00  0.00    +0.510 C 
ATOM     11  O   LIG    1       -1.985   0.623  -2.198  0.00  0.00    -0.520 OA
BRANCH   8  12
ATOM     12  C   LIG    1       -3.837  -1.309  -2.516  0.00  0.00    +0.250 C 
BRANCH  12  13
ATOM     13  C   LIG    1       -4.478  -2.628  -2.169  0.00  0.00    +0.510 C 
ATOM     14  N   LIG    1       -4.737  -3.527  -3.139  0.00  0.00    -0.730 N 
ATOM     15  H   LIG    1       -4.512  -3.325  -4.061  0.00  0.00    +0.400 HD
ATOM     16  C   LIG    1       -5.359  -4.810  -2.802  0.00  0.00    +0.290 C 
ATOM     17  O   LIG    1       -4.759  -2.882  -1.017  0.00  0.00    -0.530 OA
ENDBRANCH  12  13
BRANCH  12  19
ATOM     18  C   LIG    1       -4.029   0.733  -3.942  0.00  0.00    +0.030 C 
ATOM     19  C   LIG    1       -4.734  -0.548  -3.494  0.00  0.00    +0.020 C 
ENDBRANCH  12  19
ENDBRANCH   8  12
ENDBRANCH   1  10
BRANCH   6  20
ATOM     20  O   LIG    1        1.142   1.900   0.001  0.00  0.00    -0.360 OA
BRANCH  20  21
ATOM     21  C   LIG    1        2.371   1.126  -0.015  0.00  0.00    +0.290 C 
BRANCH  21  22
ATOM     22  C   LIG    1        3.553   2.060  -0.021  0.00  0.00    -0.100 A 
ATOM     23  C   LIG    1        4.088   2.490  -1.221  0.00  0.00    +0.040 A 
ATOM     24  C   LIG    1        5.170   3.351  -1.226  0.00  0.00    +0.010 A 
ATOM     25  C   LIG    1        5.723   3.773  -0.032  0.00  0.00    +0.020 A 
ATOM     26  C   LIG    1        5.192   3.339   1.168  0.00  0.00    +0.010 A 
ATOM     27  C   LIG    1        4.107   2.482   1.173  0.00  0.00    +0.030 A 
ENDBRANCH  21  22
ENDBRANCH  20  21
ENDBRANCH   6  20
TORSDOF 7
