REMARK  Name = ZINCrH000004m3BS.0
REMARK                            x       y       z     vdW  Elec       q    Type
REMARK                         _______ _______ _______ _____ _____    ______ ____
ROOT
ATOM      1  C   LIG    1        2.120   5.059   2.216  0.00  0.00    +0.530 C 
ATOM      2  N   LIG    1        2.345   5.102   0.888  0.00  0.00    -0.620 N 
ATOM      3  C   LIG    1        2.525   6.326   0.086  0.00  0.00    +0.240 C 
ATOM      4  C   LIG    1        3.337   5.873  -1.153  0.00  0.00    +0.040 C 
ATOM      5  C   LIG    1        2.739   4.464  -1.422  0.00  0.00    +0.050 C 
ATOM      6  C   LIG    1        2.451   3.936  -0.001  0.00  0.00    +0.270 C 
ATOM      7  O   LIG    1        1.987   3.990   2.774  0.00  0.00    -0.510 OA
ENDROOT
BRANCH   6   8
ATOM      8  C   LIG    1        1.156   3.166   0.007  0.00  0.00    -0.100 A 
ATOM      9  C   LIG    1        1.175   1.783   0.000  0.00  0.00    +0.060 A 
ATOM     10  C   LIG    1       -0.013   1.076   0.008  0.00  0.00    -0.010 A 
ATOM     11  C   LIG    1       -1.221   1.752   0.017  0.00  0.00    +0.100 A 
ATOM     12  C   LIG    1       -1.238   3.136   0.030  0.00  0.00    -0.020 A 
ATOM     13  F   LIG    1       -2.382   1.062   0.019  0.00  0.00    -0.140 F 
ATOM     14  C   LIG    1       -0.050   3.842   0.022  0.00  0.00    +0.050 A 
ENDBRANCH   6   8
BRANCH   1  15
ATOM     15  C   LIG    1        2.035   6.338   3.008  0.00  0.00    +0.120 C 
BRANCH  15  18
ATOM     16  C   LIG    1        2.612   5.528   6.654  0.00  0.00    +0.150 A 
ATOM     17  C   LIG    1        2.843   5.824   5.319  0.00  0.00    -0.090 A 
ATOM     18  C   LIG    1        1.779   6.016   4.458  0.00  0.00    +0.010 A 
ATOM     19  C   LIG    1        0.481   5.918   4.923  0.00  0.00    -0.090 A 
ATOM     20  C   LIG    1        0.242   5.616   6.255  0.00  0.00    +0.150 A 
ATOM     21  C   LIG    1        1.308   5.423   7.125  0.00  0.00    +0.030 A 
BRANCH  16  23
ATOM     22  C   LIG    1        4.971   5.462   6.948  0.00  0.00    +0.240 C 
ATOM     23  O   LIG    1        3.659   5.340   7.501  0.00  0.00    -0.300 OA
ENDBRANCH  16  23
BRANCH  20  24
ATOM     24  O   LIG    1       -1.036   5.514   6.712  0.00  0.00    -0.300 OA
ATOM     25  C   LIG    1       -2.082   5.725   5.762  0.00  0.00    +0.240 C 
ENDBRANCH  20  24
BRANCH  21  26
ATOM     26  O   LIG    1        1.077   5.133   8.434  0.00  0.00    -0.310 OA
ATOM     27  C   LIG    1        0.967   6.238   9.334  0.00  0.00    +0.210 C 
ENDBRANCH  21  26
ENDBRANCH  15  18
ENDBRANCH   1  15
TORSDOF 6
