REMARK  Name = ZINCrD0000073v5j.0
REMARK                            x       y       z     vdW  Elec       q    Type
REMARK                         _______ _______ _______ _____ _____    ______ ____
ROOT
ATOM      1  C   LIG    1        8.334   0.296   0.883  0.00  0.00    +0.590 C 
ATOM      2  N   LIG    1        7.626   0.943  -0.064  0.00  0.00    -0.670 N 
ATOM      3  H   LIG    1        8.086   1.443  -0.756  0.00  0.00    +0.410 HD
ATOM      4  O   LIG    1        7.763  -0.409   1.694  0.00  0.00    -0.500 OA
ENDROOT
BRANCH   1   9
ATOM      5  C   LIG    1       12.004  -0.291   0.278  0.00  0.00    +0.020 A 
ATOM      6  C   LIG    1       12.563   0.722   1.039  0.00  0.00    +0.040 A 
ATOM      7  C   LIG    1       11.755   1.594   1.748  0.00  0.00    -0.090 A 
ATOM      8  C   LIG    1       10.378   1.467   1.699  0.00  0.00    +0.180 A 
ATOM      9  C   LIG    1        9.797   0.442   0.936  0.00  0.00    -0.230 A 
ATOM     10  C   LIG    1       10.621  -0.439   0.220  0.00  0.00    +0.280 A 
BRANCH  10  11
ATOM     11  N   LIG    1       10.059  -1.456  -0.546  0.00  0.00    -0.850 N 
ATOM     12  H   LIG    1       10.631  -2.064  -1.040  0.00  0.00    +0.410 HD
ATOM     13  H   LIG    1        9.095  -1.558  -0.585  0.00  0.00    +0.400 HD
ENDBRANCH  10  11
BRANCH   5  15
ATOM     14  C   LIG    1       14.218  -0.932  -0.310  0.00  0.00    +0.230 C 
ATOM     15  O   LIG    1       12.809  -1.142  -0.415  0.00  0.00    -0.320 OA
ENDBRANCH   5  15
BRANCH   8  16
ATOM     16  O   LIG    1        9.590   2.329   2.391  0.00  0.00    -0.310 OA
ATOM     17  C   LIG    1       10.250   3.348   3.145  0.00  0.00    +0.250 C 
ENDBRANCH   8  16
ENDBRANCH   1   9
BRANCH   2  18
ATOM     18  C   LIG    1        6.227   0.893  -0.048  0.00  0.00    +0.160 A 
ATOM     19  C   LIG    1        5.548   0.832   1.163  0.00  0.00    +0.050 A 
ATOM     20  C   LIG    1        4.169   0.783   1.178  0.00  0.00    +0.050 A 
ATOM     21  C   LIG    1        3.460   0.796  -0.016  0.00  0.00    +0.100 A 
ATOM     22  C   LIG    1        4.139   0.853  -1.226  0.00  0.00    +0.050 A 
ATOM     23  C   LIG    1        5.518   0.907  -1.242  0.00  0.00    +0.010 A 
BRANCH  21  24
ATOM     24  N   LIG    1        2.058   0.747   0.000  0.00  0.00    -0.410 N 
ATOM     25  C   LIG    1        1.289  -0.140   0.684  0.00  0.00    +0.400 A 
ATOM     26  N   LIG    1        0.034   0.131   0.450  0.00  0.00    -0.480 NA
ATOM     27  C   LIG    1       -0.047   1.183  -0.378  0.00  0.00    +0.000 A 
ATOM     28  C   LIG    1       -1.318   1.808  -0.891  0.00  0.00    +0.140 C 
ATOM     29  C   LIG    1        1.205   1.583  -0.672  0.00  0.00    -0.020 A 
ATOM     30  C   LIG    1        1.594   2.731  -1.568  0.00  0.00    +0.140 C 
ENDBRANCH  21  24
ENDBRANCH   2  18
TORSDOF 6
