REMARK  Name = ZINCqH0000038FyL.0
REMARK                            x       y       z     vdW  Elec       q    Type
REMARK                         _______ _______ _______ _____ _____    ______ ____
ROOT
ATOM      1  C   LIG    1       -3.622  -0.105  -1.244  0.00  0.00    +0.570 C 
ATOM      2  N   LIG    1       -2.423   0.423  -0.931  0.00  0.00    -0.730 N 
ATOM      3  H   LIG    1       -1.925   0.924  -1.597  0.00  0.00    +0.400 HD
ATOM      4  O   LIG    1       -4.246  -0.733  -0.410  0.00  0.00    -0.530 OA
ENDROOT
BRANCH   1   7
ATOM      5  C   LIG    1       -6.051  -1.479  -1.984  0.00  0.00    +0.160 C 
ATOM      6  C   LIG    1       -5.358  -0.581  -2.977  0.00  0.00    +0.260 A 
ATOM      7  C   LIG    1       -4.179   0.077  -2.599  0.00  0.00    -0.240 A 
ATOM      8  C   LIG    1       -3.536   0.903  -3.522  0.00  0.00    +0.190 A 
ATOM      9  C   LIG    1       -4.108   1.039  -4.788  0.00  0.00    -0.250 A 
ATOM     10  C   LIG    1       -3.750   1.786  -5.990  0.00  0.00    +0.290 A 
ATOM     11  N   LIG    1       -4.657   1.540  -6.891  0.00  0.00    -0.230 NA
ATOM     12  N   LIG    1       -5.619   0.666  -6.379  0.00  0.00    -0.380 N 
ATOM     13  C   LIG    1       -5.300   0.347  -5.089  0.00  0.00    +0.340 A 
ATOM     14  N   LIG    1       -5.873  -0.427  -4.173  0.00  0.00    -0.510 NA
BRANCH  12  15
ATOM     15  C   LIG    1       -6.788   0.169  -7.110  0.00  0.00    +0.270 C 
ATOM     16  C   LIG    1       -6.326  -0.597  -8.351  0.00  0.00    +0.050 C 
ATOM     17  C   LIG    1       -7.662   1.350  -7.537  0.00  0.00    +0.050 C 
ENDBRANCH  12  15
ENDBRANCH   1   7
BRANCH   2  18
ATOM     18  C   LIG    1       -1.870   0.242   0.413  0.00  0.00    +0.300 C 
BRANCH  18  19
ATOM     19  C   LIG    1       -0.509   0.936   0.503  0.00  0.00    +0.200 C 
BRANCH  19  20
ATOM     20  O   LIG    1       -0.682   2.346   0.353  0.00  0.00    -0.310 OA
BRANCH  20  21
ATOM     21  C   LIG    1        0.437   3.115   0.408  0.00  0.00    +0.130 A 
ATOM     22  C   LIG    1        1.676   2.524   0.609  0.00  0.00    -0.060 A 
ATOM     23  C   LIG    1        2.813   3.307   0.661  0.00  0.00    +0.070 A 
ATOM     24  C   LIG    1        2.716   4.680   0.522  0.00  0.00    -0.070 A 
ATOM     25  C   LIG    1        1.480   5.272   0.327  0.00  0.00    +0.070 A 
ATOM     26 CL   LIG    1        4.146   5.662   0.594  0.00  0.00    -0.070 Cl
ATOM     27  C   LIG    1        0.342   4.492   0.270  0.00  0.00    +0.000 A 
ENDBRANCH  20  21
ENDBRANCH  19  20
ENDBRANCH  18  19
ENDBRANCH   2  18
TORSDOF 6
