REMARK  Name = ZINCpk00000ebpFL.0
REMARK                            x       y       z     vdW  Elec       q    Type
REMARK                         _______ _______ _______ _____ _____    ______ ____
ROOT
ATOM      1  N   LIG    1       -3.177   3.073  -4.725  0.00  0.00    -0.670 N 
ATOM      2  H   LIG    1       -3.102   3.978  -5.065  0.00  0.00    +0.420 HD
ATOM      3  C   LIG    1       -4.003   2.194  -5.324  0.00  0.00    +0.520 C 
ATOM      4  O   LIG    1       -4.170   1.093  -4.843  0.00  0.00    -0.480 OA
ENDROOT
BRANCH   1   8
ATOM      5  C   LIG    1       -0.945   1.905  -1.406  0.00  0.00    -0.690 A 
ATOM      6  C   LIG    1       -1.410   3.203  -1.503  0.00  0.00    +0.150 A 
ATOM      7  C   LIG    1       -2.145   3.595  -2.604  0.00  0.00    -0.030 A 
ATOM      8  C   LIG    1       -2.427   2.681  -3.610  0.00  0.00    +0.210 A 
ATOM      9  C   LIG    1       -1.964   1.376  -3.508  0.00  0.00    +0.000 A 
ATOM     10  C   LIG    1       -1.224   0.991  -2.407  0.00  0.00    +0.150 A 
BRANCH   5  11
ATOM     11  S   LIG    1       -0.002   1.410  -0.003  0.00  0.00    +2.700 S 
ATOM     12  O   LIG    1       -0.151   0.001   0.105  0.00  0.00    -0.960 OA
ATOM     13  O   LIG    1       -0.339   2.309   1.044  0.00  0.00    -0.960 OA
BRANCH  11  14
ATOM     14  N   LIG    1        1.591   1.685  -0.361  0.00  0.00    -1.250 NA
ATOM     15  H   LIG    1        1.837   2.056  -1.223  0.00  0.00    +0.420 HD
ATOM     16  H   LIG    1        2.278   1.476   0.291  0.00  0.00    +0.420 HD
ENDBRANCH  11  14
ENDBRANCH   5  11
ENDBRANCH   1   8
BRANCH   3  17
ATOM     17  C   LIG    1       -4.720   2.578  -6.593  0.00  0.00    +0.270 C 
BRANCH  17  18
ATOM     18  O   LIG    1       -5.544   1.468  -7.039  0.00  0.00    -0.330 OA
BRANCH  18  19
ATOM     19  C   LIG    1       -6.253   1.649  -8.164  0.00  0.00    +0.470 C 
ATOM     20  O   LIG    1       -6.188   2.700  -8.757  0.00  0.00    -0.500 OA
BRANCH  19  21
ATOM     21  C   LIG    1       -7.131   0.542  -8.688  0.00  0.00    +0.110 C 
BRANCH  21  22
ATOM     22  C   LIG    1       -7.823   1.004  -9.972  0.00  0.00    +0.090 C 
BRANCH  22  23
ATOM     23  C   LIG    1       -8.700  -0.104 -10.496  0.00  0.00    -0.090 A 
ATOM     24  C   LIG    1       -8.188  -1.029 -11.386  0.00  0.00    +0.010 A 
ATOM     25  C   LIG    1       -8.992  -2.048 -11.862  0.00  0.00    +0.000 A 
ATOM     26  C   LIG    1      -10.311  -2.135 -11.457  0.00  0.00    +0.000 A 
ATOM     27  C   LIG    1      -10.824  -1.206 -10.572  0.00  0.00    +0.000 A 
ATOM     28  C   LIG    1      -10.019  -0.191 -10.091  0.00  0.00    +0.010 A 
ENDBRANCH  22  23
ENDBRANCH  21  22
ENDBRANCH  19  21
ENDBRANCH  18  19
ENDBRANCH  17  18
ENDBRANCH   3  17
TORSDOF 9
