REMARK  Name = ZINCrH000004ouuA.0
REMARK                            x       y       z     vdW  Elec       q    Type
REMARK                         _______ _______ _______ _____ _____    ______ ____
ROOT
ATOM      1  N   LIG    1        3.548   1.653   0.815  0.00  0.00    -0.610 N 
ATOM      2  C   LIG    1        2.525   0.906   0.072  0.00  0.00    +0.300 C 
ATOM      3  C   LIG    1        1.251   1.778   0.137  0.00  0.00    +0.010 C 
ATOM      4  C   LIG    1        1.490   2.590   1.431  0.00  0.00    +0.070 C 
ATOM      5  C   LIG    1        2.995   2.601   1.590  0.00  0.00    +0.520 C 
ATOM      6  O   LIG    1        3.612   3.356   2.311  0.00  0.00    -0.510 OA
ENDROOT
BRANCH   3   7
ATOM      7  C   LIG    1        0.017   0.921   0.259  0.00  0.00    +0.530 C 
ATOM      8  N   LIG    1       -1.194   1.499   0.387  0.00  0.00    -0.660 N 
ATOM      9  H   LIG    1       -1.264   2.461   0.484  0.00  0.00    +0.420 HD
ATOM     10  O   LIG    1        0.114  -0.287   0.236  0.00  0.00    -0.510 OA
BRANCH   8  11
ATOM     11  C   LIG    1       -2.349   0.710   0.380  0.00  0.00    +0.080 A 
ATOM     12  C   LIG    1       -2.413  -0.422  -0.409  0.00  0.00    +0.090 A 
ATOM     13  C   LIG    1       -3.596  -1.182  -0.381  0.00  0.00    -0.080 A 
ATOM     14  C   LIG    1       -3.734  -2.345  -1.155  0.00  0.00    +0.030 A 
ATOM     15  C   LIG    1       -4.895  -3.056  -1.102  0.00  0.00    +0.020 A 
ATOM     16  C   LIG    1       -5.947  -2.644  -0.288  0.00  0.00    +0.030 A 
ATOM     17  C   LIG    1       -5.847  -1.522   0.476  0.00  0.00    +0.050 A 
ATOM     18  C   LIG    1       -4.666  -0.761   0.448  0.00  0.00    +0.110 A 
ATOM     19  N   LIG    1       -4.543   0.345   1.190  0.00  0.00    -0.450 NA
ATOM     20  C   LIG    1       -3.445   1.060   1.177  0.00  0.00    +0.280 A 
ENDBRANCH   8  11
ENDBRANCH   3   7
BRANCH   1  22
ATOM     21  C   LIG    1        5.712   2.689   0.337  0.00  0.00    +0.040 C 
ATOM     22  C   LIG    1        4.988   1.397   0.722  0.00  0.00    +0.300 C 
BRANCH  22  23
ATOM     23  C   LIG    1        5.499   0.913   2.055  0.00  0.00    -0.100 A 
ATOM     24  C   LIG    1        6.726   1.346   2.523  0.00  0.00    +0.020 A 
ATOM     25  C   LIG    1        7.192   0.905   3.747  0.00  0.00    +0.000 A 
ATOM     26  C   LIG    1        6.437   0.025   4.499  0.00  0.00    +0.000 A 
ATOM     27  C   LIG    1        5.212  -0.411   4.029  0.00  0.00    +0.000 A 
ATOM     28  C   LIG    1        4.744   0.033   2.806  0.00  0.00    +0.010 A 
ENDBRANCH  22  23
ENDBRANCH   1  22
TORSDOF 4
