REMARK  Name = ZINCrD00000hQ78C.0
REMARK                            x       y       z     vdW  Elec       q    Type
REMARK                         _______ _______ _______ _____ _____    ______ ____
ROOT
ATOM      1  N   LIG    1       -0.338  -0.016   4.899  0.00  0.00    -0.460 N 
ATOM      2  H   LIG    1       -0.631   0.908   4.912  0.00  0.00    +0.460 HD
ENDROOT
BRANCH   1   5
ATOM      3  O   LIG    1       -0.315   1.270   2.570  0.00  0.00    -0.490 OA
ATOM      4  C   LIG    1        0.053   0.111   2.554  0.00  0.00    +0.570 C 
ATOM      5  N   LIG    1        0.069  -0.606   3.695  0.00  0.00    -0.550 N 
ATOM      6  H   LIG    1        0.362  -1.530   3.683  0.00  0.00    +0.420 HD
BRANCH   4   7
ATOM      7  C   LIG    1        0.481  -0.510   1.286  0.00  0.00    -0.150 A 
ATOM      8  C   LIG    1        0.904  -1.841   1.264  0.00  0.00    +0.030 A 
ATOM      9  C   LIG    1        1.303  -2.417   0.072  0.00  0.00    +0.100 A 
ATOM     10  C   LIG    1        1.285  -1.675  -1.102  0.00  0.00    +0.050 A 
ATOM     11  C   LIG    1        0.864  -0.360  -1.090  0.00  0.00    +0.020 A 
ATOM     12  C   LIG    1        0.465   0.233   0.098  0.00  0.00    +0.170 A 
BRANCH   9  13
ATOM     13  O   LIG    1        1.715  -3.712   0.050  0.00  0.00    -0.490 OA
ATOM     14  H   LIG    1        1.004  -4.348  -0.109  0.00  0.00    +0.400 HD
ENDBRANCH   9  13
BRANCH  12  15
ATOM     15  O   LIG    1        0.056   1.527   0.109  0.00  0.00    -0.480 OA
ATOM     16  H   LIG    1        0.768   2.163   0.265  0.00  0.00    +0.400 HD
ENDBRANCH  12  15
ENDBRANCH   4   7
ENDBRANCH   1   5
BRANCH   1  17
ATOM     17  C   LIG    1       -0.322  -0.734   6.040  0.00  0.00    +0.550 C 
ATOM     18  S   LIG    1       -0.819  -0.013   7.511  0.00  0.00    -0.560 S 
BRANCH  17  19
ATOM     19  N   LIG    1        0.086  -2.018   6.023  0.00  0.00    -0.630 N 
ATOM     20  H   LIG    1        0.291  -2.450   5.179  0.00  0.00    +0.400 HD
BRANCH  19  21
ATOM     21  C   LIG    1        0.212  -2.727   7.220  0.00  0.00    +0.140 A 
ATOM     22  C   LIG    1        0.819  -2.136   8.318  0.00  0.00    +0.070 A 
ATOM     23  C   LIG    1        0.939  -2.837   9.503  0.00  0.00    +0.020 A 
ATOM     24  C   LIG    1        0.465  -4.134   9.598  0.00  0.00    +0.020 A 
ATOM     25  C   LIG    1       -0.136  -4.736   8.512  0.00  0.00    +0.030 A 
ATOM     26  C   LIG    1       -0.268  -4.038   7.314  0.00  0.00    -0.050 A 
BRANCH  26  27
ATOM     27  C   LIG    1       -0.913  -4.682   6.144  0.00  0.00    -0.050 A 
ATOM     28  C   LIG    1       -1.930  -4.022   5.456  0.00  0.00    +0.010 A 
ATOM     29  C   LIG    1       -2.524  -4.624   4.365  0.00  0.00    +0.000 A 
ATOM     30  C   LIG    1       -2.117  -5.882   3.959  0.00  0.00    +0.010 A 
ATOM     31  C   LIG    1       -1.112  -6.543   4.641  0.00  0.00    +0.010 A 
ATOM     32  C   LIG    1       -0.508  -5.950   5.731  0.00  0.00    +0.030 A 
ENDBRANCH  26  27
ENDBRANCH  19  21
ENDBRANCH  17  19
ENDBRANCH   1  17
TORSDOF 8
