REMARK  Name = ZINCkj000005jUxq.1
REMARK                            x       y       z     vdW  Elec       q    Type
REMARK                         _______ _______ _______ _____ _____    ______ ____
ROOT
ATOM      1  C   LIG    1       -0.290  -2.653  -2.158  0.00  0.00    +0.050 C 
ATOM      2  C   LIG    1        0.622  -2.135  -1.044  0.00  0.00    +0.260 C 
ATOM      3  C   LIG    1        2.058  -2.584  -1.312  0.00  0.00    +0.250 C 
ATOM      4  N   LIG    1        2.553  -1.943  -2.536  0.00  0.00    -0.390 N 
ATOM      5  C   LIG    1        2.621  -0.488  -2.347  0.00  0.00    +0.270 C 
ATOM      6  C   LIG    1        1.208   0.065  -2.134  0.00  0.00    +0.310 C 
ATOM      7  C   LIG    1        3.893  -2.457  -2.850  0.00  0.00    +0.330 C 
ATOM      8  H   LIG    1        1.927  -2.152  -3.300  0.00  0.00    +0.420 HD
ATOM      9  N   LIG    1        0.585  -0.664  -1.018  0.00  0.00    -0.630 N 
ATOM     10  C   LIG    1        0.002  -0.004   0.002  0.00  0.00    +0.520 C 
ATOM     11  O   LIG    1       -0.506  -0.622   0.913  0.00  0.00    -0.490 OA
ENDROOT
BRANCH  10  12
ATOM     12  C   LIG    1       -0.018   1.503   0.010  0.00  0.00    +0.130 C 
BRANCH  12  13
ATOM     13  C   LIG    1       -0.724   1.989   1.250  0.00  0.00    -0.120 A 
ATOM     14  C   LIG    1       -0.007   2.223   2.409  0.00  0.00    +0.060 A 
ATOM     15  C   LIG    1       -0.648   2.666   3.548  0.00  0.00    -0.010 A 
ATOM     16  C   LIG    1       -2.024   2.881   3.539  0.00  0.00    +0.120 A 
ATOM     17  O   LIG    1       -2.850   3.294   4.540  0.00  0.00    -0.300 OA
ATOM     18  C   LIG    1       -4.078   3.779   3.971  0.00  0.00    +0.240 C 
ATOM     19  C   LIG    1       -4.185   2.976   2.652  0.00  0.00    +0.070 C 
ATOM     20  C   LIG    1       -2.732   2.647   2.367  0.00  0.00    -0.170 A 
ATOM     21  C   LIG    1       -2.090   2.207   1.231  0.00  0.00    +0.070 A 
ENDBRANCH  12  13
ENDBRANCH  10  12
TORSDOF 2
