REMARK  Name = ZINCkj000005jUxq.2
REMARK                            x       y       z     vdW  Elec       q    Type
REMARK                         _______ _______ _______ _____ _____    ______ ____
ROOT
ATOM      1  C   LIG    1        3.494   0.514  -4.071  0.00  0.00    +0.090 C 
ATOM      2  C   LIG    1        4.443  -0.179  -3.092  0.00  0.00    +0.230 C 
ATOM      3  C   LIG    1        5.898   0.073  -3.516  0.00  0.00    +0.250 C 
ATOM      4  N   LIG    1        6.804  -0.482  -2.502  0.00  0.00    -0.390 N 
ATOM      5  C   LIG    1        6.633   0.237  -1.233  0.00  0.00    +0.260 C 
ATOM      6  C   LIG    1        5.218  -0.002  -0.697  0.00  0.00    +0.310 C 
ATOM      7  C   LIG    1        8.192  -0.340  -2.960  0.00  0.00    +0.330 C 
ATOM      8  H   LIG    1        6.594  -1.459  -2.364  0.00  0.00    +0.430 HD
ATOM      9  N   LIG    1        4.254   0.374  -1.743  0.00  0.00    -0.640 N 
ATOM     10  C   LIG    1        3.223   1.199  -1.470  0.00  0.00    +0.520 C 
ATOM     11  O   LIG    1        2.488   1.567  -2.363  0.00  0.00    -0.490 OA
ENDROOT
BRANCH  10  12
ATOM     12  C   LIG    1        2.982   1.663  -0.057  0.00  0.00    +0.120 C 
BRANCH  12  13
ATOM     13  C   LIG    1        1.778   2.569  -0.024  0.00  0.00    -0.120 A 
ATOM     14  C   LIG    1        0.518   2.040   0.182  0.00  0.00    +0.060 A 
ATOM     15  C   LIG    1       -0.589   2.863   0.204  0.00  0.00    -0.010 A 
ATOM     16  C   LIG    1       -0.445   4.237   0.029  0.00  0.00    +0.120 A 
ATOM     17  O   LIG    1       -1.388   5.218   0.006  0.00  0.00    -0.300 OA
ATOM     18  C   LIG    1       -0.754   6.490   0.226  0.00  0.00    +0.240 C 
ATOM     19  C   LIG    1        0.675   6.259  -0.319  0.00  0.00    +0.070 C 
ATOM     20  C   LIG    1        0.828   4.758  -0.172  0.00  0.00    -0.170 A 
ATOM     21  C   LIG    1        1.930   3.933  -0.200  0.00  0.00    +0.070 A 
ENDBRANCH  12  13
ENDBRANCH  10  12
TORSDOF 2
