REMARK  Name = ZINCbw0000000Hkg.0
REMARK                            x       y       z     vdW  Elec       q    Type
REMARK                         _______ _______ _______ _____ _____    ______ ____
ROOT
ATOM      1  C   LIG    1       -2.530   6.875   0.060  0.00  0.00    +0.140 C 
ATOM      2  C   LIG    1       -1.727   5.600   0.046  0.00  0.00    +0.080 A 
ATOM      3  C   LIG    1       -0.387   5.533   0.033  0.00  0.00    -0.050 A 
ATOM      4  C   LIG    1       -0.029   4.112   0.023  0.00  0.00    -0.120 A 
ATOM      5  C   LIG    1        1.182   3.418   0.008  0.00  0.00    +0.090 A 
ATOM      6  C   LIG    1        1.182   2.052   0.002  0.00  0.00    -0.040 A 
ATOM      7  C   LIG    1       -0.016   1.347   0.009  0.00  0.00    +0.120 A 
ATOM      8  C   LIG    1       -1.224   2.014   0.019  0.00  0.00    -0.040 A 
ATOM      9  F   LIG    1        0.002  -0.004   0.002  0.00  0.00    -0.140 F 
ATOM     10  C   LIG    1       -1.244   3.405   0.031  0.00  0.00    +0.120 A 
ATOM     11  N   LIG    1       -2.257   4.337   0.045  0.00  0.00    -0.590 N 
ATOM     12  H   LIG    1       -3.205   4.131   0.054  0.00  0.00    +0.420 HD
ENDROOT
TORSDOF 0
