REMARK  Name = ZINCrH000004sdYw.0
REMARK                            x       y       z     vdW  Elec       q    Type
REMARK                         _______ _______ _______ _____ _____    ______ ____
ROOT
ATOM      1  C   LIG    1        2.325   5.213   0.060  0.00  0.00    +0.580 C 
ATOM      2  N   LIG    1        2.364   3.868  -0.018  0.00  0.00    -0.520 N 
ATOM      3  O   LIG    1        1.255   5.788   0.097  0.00  0.00    -0.500 OA
ENDROOT
BRANCH   2   4
ATOM      4  C   LIG    1        1.177   3.139  -0.160  0.00  0.00    +0.150 A 
ATOM      5  C   LIG    1        1.224   1.770  -0.381  0.00  0.00    -0.020 A 
ATOM      6  C   LIG    1        0.053   1.051  -0.523  0.00  0.00    +0.050 A 
ATOM      7  C   LIG    1       -1.173   1.696  -0.449  0.00  0.00    +0.030 A 
ATOM      8  O   LIG    1       -2.317   0.970  -0.592  0.00  0.00    -0.310 OA
ATOM      9  C   LIG    1       -3.529   1.581  -0.135  0.00  0.00    +0.220 C 
ATOM     10  C   LIG    1       -3.562   3.026  -0.651  0.00  0.00    +0.220 C 
ATOM     11  O   LIG    1       -2.418   3.714  -0.134  0.00  0.00    -0.300 OA
ATOM     12  C   LIG    1       -1.224   3.066  -0.220  0.00  0.00    +0.080 A 
ATOM     13  C   LIG    1       -0.049   3.787  -0.079  0.00  0.00    +0.030 A 
ENDBRANCH   2   4
BRANCH   1  18
ATOM     14  C   LIG    1        7.119   8.230   0.210  0.00  0.00    +0.160 C 
ATOM     15  C   LIG    1        5.835   7.441   0.169  0.00  0.00    +0.110 A 
ATOM     16  C   LIG    1        5.875   6.054   0.201  0.00  0.00    +0.220 A 
ATOM     17  N   LIG    1        4.755   5.360   0.166  0.00  0.00    -0.400 NA
ATOM     18  C   LIG    1        3.585   5.989   0.100  0.00  0.00    +0.010 A 
ATOM     19  C   LIG    1        3.549   7.383   0.063  0.00  0.00    +0.320 A 
ATOM     20  N   LIG    1        4.676   8.071   0.104  0.00  0.00    -0.440 NA
ENDBRANCH   1  18
BRANCH   2  21
ATOM     21  C   LIG    1        3.650   3.168   0.046  0.00  0.00    +0.400 C 
BRANCH  21  22
ATOM     22  C   LIG    1        4.183   2.968  -1.350  0.00  0.00    -0.200 A 
ATOM     23  C   LIG    1        4.973   3.824  -2.000  0.00  0.00    +0.030 A 
ATOM     24  C   LIG    1        5.338   3.426  -3.275  0.00  0.00    -0.010 A 
ATOM     25  C   LIG    1        4.844   2.249  -3.660  0.00  0.00    -0.170 A 
ATOM     26  C   LIG    1        5.093   1.597  -4.995  0.00  0.00    +0.140 C 
ATOM     27  S   LIG    1        3.865   1.569  -2.366  0.00  0.00    +0.100 S 
ENDBRANCH  21  22
ENDBRANCH   2  21
TORSDOF 4
