REMARK  Name = ZINCnE000007yqhO.1
REMARK                            x       y       z     vdW  Elec       q    Type
REMARK                         _______ _______ _______ _____ _____    ______ ____
ROOT
ATOM      1  C   LIG    1       -0.304   1.293   6.316  0.00  0.00    +0.460 C 
ATOM      2  N   LIG    1        0.287   0.889   7.458  0.00  0.00    -0.660 NA
ATOM      3  O   LIG    1       -1.303   1.980   6.361  0.00  0.00    -0.600 OA
ENDROOT
BRANCH   2   4
ATOM      4  C   LIG    1       -0.248   1.258   8.686  0.00  0.00    +0.380 A 
ATOM      5  N   LIG    1        0.232   0.923   9.842  0.00  0.00    -0.550 NA
ATOM      6  C   LIG    1       -0.410   1.371  10.913  0.00  0.00    +0.120 A 
ATOM      7  C   LIG    1       -1.500   2.119  10.660  0.00  0.00    -0.180 A 
ATOM      8  S   LIG    1       -1.688   2.246   8.912  0.00  0.00    -0.010 S 
BRANCH   6   9
ATOM      9  C   LIG    1        0.038   1.065  12.292  0.00  0.00    +0.050 A 
ATOM     10  C   LIG    1       -0.661   1.553  13.400  0.00  0.00    -0.040 A 
ATOM     11  C   LIG    1       -0.212   1.240  14.666  0.00  0.00    +0.240 A 
ATOM     12  N   LIG    1        0.867   0.499  14.838  0.00  0.00    -0.500 NA
ATOM     13  C   LIG    1        1.558   0.024  13.820  0.00  0.00    +0.240 A 
ATOM     14  C   LIG    1        1.176   0.284  12.521  0.00  0.00    -0.010 A 
ENDBRANCH   6   9
ENDBRANCH   2   4
BRANCH   1  15
ATOM     15  C   LIG    1        0.277   0.893   4.984  0.00  0.00    +0.040 C 
BRANCH  15  16
ATOM     16  C   LIG    1       -0.578   1.479   3.859  0.00  0.00    +0.110 C 
BRANCH  16  17
ATOM     17  C   LIG    1        0.011   1.072   2.506  0.00  0.00    +0.040 C 
ATOM     18  N   LIG    1        1.454   0.835   2.413  0.00  0.00    -0.130 NA
ATOM     19  N   LIG    1        0.751  -0.189   2.414  0.00  0.00    -0.130 NA
BRANCH  17  20
ATOM     20  C   LIG    1       -0.729   1.579   1.267  0.00  0.00    +0.100 C 
BRANCH  20  21
ATOM     21  C   LIG    1       -0.013   1.086   0.008  0.00  0.00    +0.150 C 
BRANCH  21  23
ATOM     22  C   LIG    1       -1.292   1.962  -2.136  0.00  0.00    +0.010 C 
ATOM     23  C   LIG    1       -0.725   1.573  -1.185  0.00  0.00    -0.180 C 
ENDBRANCH  21  23
ENDBRANCH  20  21
ENDBRANCH  17  20
ENDBRANCH  16  17
ENDBRANCH  15  16
ENDBRANCH   1  15
TORSDOF 8
