REMARK  Name = ZINCnE000005tzrD.0
REMARK                            x       y       z     vdW  Elec       q    Type
REMARK                         _______ _______ _______ _____ _____    ______ ____
ROOT
ATOM      1  C   LIG    1       -0.015   3.202  -1.675  0.00  0.00    +0.540 C 
ATOM      2  N   LIG    1       -0.531   2.034  -1.245  0.00  0.00    -0.720 N 
ATOM      3  H   LIG    1       -1.304   1.652  -1.689  0.00  0.00    +0.390 HD
ATOM      4  O   LIG    1        0.895   3.724  -1.067  0.00  0.00    -0.530 OA
ENDROOT
BRANCH   1   7
ATOM      5  C   LIG    1        0.060   5.184  -3.350  0.00  0.00    +0.040 C 
ATOM      6  C   LIG    1        0.331   3.908  -4.150  0.00  0.00    +0.080 C 
ATOM      7  C   LIG    1       -0.569   3.860  -2.913  0.00  0.00    -0.050 C 
BRANCH   5  14
ATOM      8  C   LIG    1       -0.233   7.782  -2.119  0.00  0.00    +0.100 C 
ATOM      9  C   LIG    1       -0.989   7.457  -3.382  0.00  0.00    -0.070 A 
ATOM     10  C   LIG    1       -1.822   8.402  -3.951  0.00  0.00    +0.000 A 
ATOM     11  C   LIG    1       -2.515   8.104  -5.109  0.00  0.00    +0.000 A 
ATOM     12  C   LIG    1       -2.374   6.862  -5.699  0.00  0.00    -0.010 A 
ATOM     13  C   LIG    1       -1.538   5.918  -5.132  0.00  0.00    +0.000 A 
ATOM     14  C   LIG    1       -0.849   6.214  -3.971  0.00  0.00    -0.050 A 
ENDBRANCH   5  14
ENDBRANCH   1   7
BRANCH   2  15
ATOM     15  C   LIG    1        0.075   1.341  -0.105  0.00  0.00    +0.350 C 
BRANCH  15  16
ATOM     16  C   LIG    1       -0.155  -0.142  -0.238  0.00  0.00    -0.150 A 
ATOM     17  C   LIG    1        0.739  -1.088   0.053  0.00  0.00    +0.050 A 
ATOM     18  C   LIG    1        0.301  -2.386  -0.148  0.00  0.00    +0.010 A 
ATOM     19  C   LIG    1       -0.948  -2.494  -0.603  0.00  0.00    -0.060 A 
ATOM     20  S   LIG    1       -1.647  -0.891  -0.794  0.00  0.00    +0.050 S 
ENDBRANCH  15  16
BRANCH  15  21
ATOM     21  C   LIG    1       -0.562   1.842   1.193  0.00  0.00    -0.060 C 
BRANCH  21  22
ATOM     22  C   LIG    1        0.169   1.251   2.372  0.00  0.00    +0.500 C 
ATOM     23  O   LIG    1       -0.252   1.430   3.502  0.00  0.00    -0.700 OA
ATOM     24  O   LIG    1        1.181   0.594   2.195  0.00  0.00    -0.690 OA
ENDBRANCH  21  22
ENDBRANCH  15  21
ENDBRANCH   2  15
TORSDOF 6
