REMARK  Name = ZINCpk00000xI3qu.0
REMARK                            x       y       z     vdW  Elec       q    Type
REMARK                         _______ _______ _______ _____ _____    ______ ____
ROOT
ATOM      1  C   LIG    1        1.277   3.078   0.865  0.00  0.00    -0.050 A 
ATOM      2  C   LIG    1        1.038   1.834   0.295  0.00  0.00    +0.090 A 
ATOM      3  C   LIG    1       -0.259   1.386   0.139  0.00  0.00    +0.190 A 
ATOM      4  C   LIG    1       -1.319   2.177   0.544  0.00  0.00    -0.660 A 
ATOM      5  C   LIG    1       -1.084   3.414   1.116  0.00  0.00    +0.210 A 
ATOM      6  C   LIG    1        0.210   3.868   1.276  0.00  0.00    -0.010 A 
ENDROOT
BRANCH   4   7
ATOM      7  S   LIG    1       -2.973   1.604   0.336  0.00  0.00    +2.700 S 
ATOM      8  O   LIG    1       -2.899   0.461  -0.505  0.00  0.00    -0.940 OA
ATOM      9  O   LIG    1       -3.757   2.747   0.026  0.00  0.00    -0.940 OA
BRANCH   7  10
ATOM     10  N   LIG    1       -3.494   1.065   1.813  0.00  0.00    -1.100 NA
ATOM     11  H   LIG    1       -4.211   1.529   2.273  0.00  0.00    +0.420 HD
BRANCH  10  12
ATOM     12  C   LIG    1       -2.871  -0.111   2.425  0.00  0.00    +0.170 C 
ATOM     13  C   LIG    1       -3.208  -1.354   1.599  0.00  0.00    +0.050 C 
ATOM     14  C   LIG    1       -3.401  -0.286   3.849  0.00  0.00    +0.060 C 
ATOM     15  C   LIG    1       -1.353   0.078   2.465  0.00  0.00    +0.030 C 
ENDBRANCH  10  12
ENDBRANCH   7  10
ENDBRANCH   4   7
BRANCH   6  16
ATOM     16  N   LIG    1        0.460   5.194   1.884  0.00  0.00    +0.030 N 
ATOM     17  O   LIG    1        1.602   5.594   2.024  0.00  0.00    -0.130 OA
ATOM     18  O   LIG    1       -0.476   5.886   2.244  0.00  0.00    -0.150 OA
ENDBRANCH   6  16
BRANCH   1  19
ATOM     19  S   LIG    1        2.930   3.654   1.067  0.00  0.00    +0.200 S 
BRANCH  19  24
ATOM     20  C   LIG    1        4.506   7.367  -2.393  0.00  0.00    +0.200 C 
ATOM     21  C   LIG    1        3.666   6.377  -1.627  0.00  0.00    +0.160 A 
ATOM     22  N   LIG    1        2.403   6.123  -1.821  0.00  0.00    -0.270 NA
ATOM     23  N   LIG    1        2.003   5.222  -0.997  0.00  0.00    -0.290 NA
ATOM     24  C   LIG    1        2.995   4.856  -0.220  0.00  0.00    +0.170 A 
ATOM     25  N   LIG    1        4.089   5.580  -0.600  0.00  0.00    -0.300 N 
BRANCH  25  26
ATOM     26  N   LIG    1        5.345   5.519  -0.067  0.00  0.00    -0.590 N 
ATOM     27  H   LIG    1        5.790   6.424  -0.085  0.00  0.00    +0.380 HD
ATOM     28  H   LIG    1        5.907   4.829  -0.543  0.00  0.00    +0.370 HD
ENDBRANCH  25  26
ENDBRANCH  19  24
ENDBRANCH   1  19
TORSDOF 7
