REMARK  Name = ZINCvU00000004NR.1
REMARK                            x       y       z     vdW  Elec       q    Type
REMARK                         _______ _______ _______ _____ _____    ______ ____
ROOT
ATOM      1  N   LIG    1       -0.011   0.966   0.007  0.00  0.00    -0.650 N 
ATOM      2  H   LIG    1       -0.138   0.087  -0.383  0.00  0.00    +0.420 HD
ATOM      3  C   LIG    1       -1.037   1.582   0.626  0.00  0.00    +0.600 C 
ATOM      4  O   LIG    1       -0.903   2.717   1.044  0.00  0.00    -0.510 OA
ENDROOT
BRANCH   1  11
ATOM      5  C   LIG    1        2.323  -0.654   0.131  0.00  0.00    +0.090 C 
ATOM      6  C   LIG    1        2.402   0.843  -0.022  0.00  0.00    -0.080 A 
ATOM      7  C   LIG    1        3.631   1.465  -0.105  0.00  0.00    +0.010 A 
ATOM      8  C   LIG    1        3.703   2.845  -0.245  0.00  0.00    +0.100 A 
ATOM      9  C   LIG    1        2.539   3.599  -0.302  0.00  0.00    -0.030 A 
ATOM     10  C   LIG    1        1.309   2.976  -0.224  0.00  0.00    +0.050 A 
ATOM     11  C   LIG    1        1.237   1.597  -0.078  0.00  0.00    +0.110 A 
BRANCH   8  12
ATOM     12  N   LIG    1        4.949   3.475  -0.330  0.00  0.00    -0.490 N 
ATOM     13  C   LIG    1        5.784   3.150   0.836  0.00  0.00    +0.200 C 
ATOM     14  C   LIG    1        7.163   3.792   0.667  0.00  0.00    +0.170 C 
ATOM     15  N   LIG    1        7.009   5.246   0.523  0.00  0.00    -0.550 NA
ATOM     16  C   LIG    1        6.174   5.572  -0.642  0.00  0.00    +0.170 C 
ATOM     17  C   LIG    1        8.317   5.908   0.435  0.00  0.00    +0.190 C 
ATOM     18  C   LIG    1        4.795   4.929  -0.474  0.00  0.00    +0.200 C 
ENDBRANCH   8  12
ENDBRANCH   1  11
BRANCH   3  19
ATOM     19  C   LIG    1       -2.322   0.882   0.798  0.00  0.00    +0.010 A 
ATOM     20  C   LIG    1       -3.381   1.452   1.416  0.00  0.00    -0.020 A 
ATOM     21  S   LIG    1       -4.686   0.346   1.422  0.00  0.00    +0.200 S 
ATOM     22  C   LIG    1       -3.702  -0.847   0.582  0.00  0.00    +0.100 A 
ATOM     23  N   LIG    1       -2.521  -0.354   0.363  0.00  0.00    -0.440 NA
BRANCH  22  24
ATOM     24  C   LIG    1       -4.151  -2.200   0.188  0.00  0.00    -0.040 A 
ATOM     25  C   LIG    1       -3.279  -3.060  -0.482  0.00  0.00    +0.070 A 
ATOM     26  C   LIG    1       -3.702  -4.322  -0.844  0.00  0.00    +0.010 A 
ATOM     27  C   LIG    1       -4.991  -4.733  -0.552  0.00  0.00    -0.050 A 
ATOM     28  C   LIG    1       -5.861  -3.884   0.107  0.00  0.00    +0.020 A 
ATOM     29  C   LIG    1       -5.449  -2.621   0.478  0.00  0.00    +0.040 A 
BRANCH  27  30
ATOM     30  C   LIG    1       -5.448  -6.111  -0.955  0.00  0.00    +0.020 C 
ATOM     31  C   LIG    1       -4.562  -7.160  -0.281  0.00  0.00    +0.030 C 
ATOM     32  C   LIG    1       -5.346  -6.259  -2.475  0.00  0.00    +0.030 C 
ENDBRANCH  27  30
ENDBRANCH  22  24
ENDBRANCH   3  19
TORSDOF 5
