REMARK  Name = ZINCpe000000WPJ5.0
REMARK                            x       y       z     vdW  Elec       q    Type
REMARK                         _______ _______ _______ _____ _____    ______ ____
ROOT
ATOM      1  N   LIG    1        3.485   2.180  -0.020  0.00  0.00    -0.680 N 
ATOM      2  H   LIG    1        4.345   1.738   0.045  0.00  0.00    +0.420 HD
ENDROOT
BRANCH   1   3
ATOM      3  C   LIG    1        2.337   1.443  -0.015  0.00  0.00    +0.540 A 
ATOM      4  C   LIG    1        1.089   2.073   0.020  0.00  0.00    -0.330 A 
ATOM      5  C   LIG    1       -0.079   1.264   0.023  0.00  0.00    +0.590 A 
ATOM      6  N   LIG    1        0.049  -0.077  -0.008  0.00  0.00    -0.560 N 
ATOM      7  C   LIG    1        1.262  -0.655  -0.041  0.00  0.00    +0.710 A 
ATOM      8  O   LIG    1        1.340  -1.867  -0.063  0.00  0.00    -0.520 OA
ATOM      9  C   LIG    1       -1.152  -0.917  -0.004  0.00  0.00    +0.350 C 
ATOM     10  O   LIG    1       -1.183   1.777   0.052  0.00  0.00    -0.510 OA
ATOM     11  N   LIG    1        2.390   0.075  -0.045  0.00  0.00    -0.540 N 
ATOM     12  C   LIG    1        3.690  -0.599  -0.081  0.00  0.00    +0.350 C 
BRANCH   4  13
ATOM     13  C   LIG    1        0.991   3.501   0.051  0.00  0.00    +0.300 C 
ATOM     14  N   LIG    1        0.912   4.635   0.076  0.00  0.00    -0.440 NA
ENDBRANCH   4  13
ENDBRANCH   1   3
BRANCH   1  15
ATOM     15  C   LIG    1        3.417   3.640  -0.122  0.00  0.00    +0.290 C 
BRANCH  15  17
ATOM     16  C   LIG    1        4.758   5.720  -0.466  0.00  0.00    +0.020 C 
ATOM     17  C   LIG    1        4.832   4.210  -0.234  0.00  0.00    +0.170 C 
BRANCH  17  18
ATOM     18  N   LIG    1        5.528   3.575  -1.361  0.00  0.00    -0.490 N 
ATOM     19  C   LIG    1        6.966   3.922  -1.360  0.00  0.00    +0.230 C 
ATOM     20  C   LIG    1        7.021   5.138  -2.312  0.00  0.00    +0.070 C 
ATOM     21  C   LIG    1        5.811   4.926  -3.199  0.00  0.00    -0.130 A 
ATOM     22  C   LIG    1        5.459   5.476  -4.414  0.00  0.00    +0.030 A 
ATOM     23  C   LIG    1        4.282   5.095  -5.033  0.00  0.00    +0.010 A 
ATOM     24  C   LIG    1        3.458   4.162  -4.431  0.00  0.00    +0.030 A 
ATOM     25  C   LIG    1        3.804   3.610  -3.215  0.00  0.00    +0.010 A 
ATOM     26  C   LIG    1        4.987   3.991  -2.584  0.00  0.00    +0.090 A 
ENDBRANCH  17  18
ENDBRANCH  15  17
ENDBRANCH   1  15
TORSDOF 5
