REMARK  Name = ZINCrg00000y19Gu.0
REMARK                            x       y       z     vdW  Elec       q    Type
REMARK                         _______ _______ _______ _____ _____    ______ ____
ROOT
ATOM      1  C   LIG    1        0.292  -0.172  -0.152  0.00  0.00    +0.430 A 
ATOM      2  C   LIG    1        0.538   1.210  -0.214  0.00  0.00    -0.070 A 
ATOM      3  N   LIG    1       -0.243   2.316  -0.252  0.00  0.00    -0.450 NA
ATOM      4  C   LIG    1        0.510   3.376  -0.305  0.00  0.00    +0.480 A 
ATOM      5  N   LIG    1        1.824   3.014  -0.314  0.00  0.00    -0.470 N 
ATOM      6  C   LIG    1        1.874   1.645  -0.257  0.00  0.00    +0.300 A 
ATOM      7  N   LIG    1        2.848   0.741  -0.237  0.00  0.00    -0.530 NA
ATOM      8  C   LIG    1        2.569  -0.545  -0.178  0.00  0.00    +0.540 A 
ATOM      9  N   LIG    1        1.331  -1.000  -0.136  0.00  0.00    -0.570 NA
ENDROOT
BRANCH   1  10
ATOM     10  N   LIG    1       -1.003  -0.659  -0.108  0.00  0.00    -0.460 N 
BRANCH  10  12
ATOM     11  C   LIG    1       -3.173  -0.626   1.027  0.00  0.00    +0.040 C 
ATOM     12  C   LIG    1       -1.726  -0.128   1.055  0.00  0.00    +0.210 C 
ENDBRANCH  10  12
BRANCH  10  13
ATOM     13  C   LIG    1       -1.013  -2.128  -0.109  0.00  0.00    +0.220 C 
BRANCH  13  14
ATOM     14  C   LIG    1       -0.376  -2.643   1.184  0.00  0.00    +0.240 C 
BRANCH  14  15
ATOM     15  C   LIG    1       -0.178  -4.134   1.087  0.00  0.00    -0.110 A 
ATOM     16  C   LIG    1       -1.240  -4.989   1.317  0.00  0.00    +0.010 A 
ATOM     17  C   LIG    1       -1.058  -6.356   1.223  0.00  0.00    +0.000 A 
ATOM     18  C   LIG    1        0.186  -6.868   0.910  0.00  0.00    -0.090 A 
ATOM     19  C   LIG    1        1.249  -6.014   0.685  0.00  0.00    +0.000 A 
ATOM     20  C   LIG    1        0.385  -8.359   0.812  0.00  0.00    +0.090 C 
ATOM     21  C   LIG    1        1.067  -4.646   0.774  0.00  0.00    +0.030 A 
ENDBRANCH  14  15
BRANCH  14  22
ATOM     22  O   LIG    1       -1.234  -2.347   2.288  0.00  0.00    -0.550 OA
ATOM     23  H   LIG    1       -2.111  -2.748   2.223  0.00  0.00    +0.370 HD
ENDBRANCH  14  22
ENDBRANCH  13  14
ENDBRANCH  10  13
ENDBRANCH   1  10
BRANCH   5  24
ATOM     24  C   LIG    1        2.973   3.922  -0.372  0.00  0.00    +0.290 C 
BRANCH  24  25
ATOM     25  C   LIG    1        3.425   4.079  -1.825  0.00  0.00    +0.200 C 
BRANCH  25  26
ATOM     26  O   LIG    1        3.909   2.825  -2.312  0.00  0.00    -0.540 OA
ATOM     27  H   LIG    1        4.660   2.474  -1.815  0.00  0.00    +0.380 HD
ENDBRANCH  25  26
BRANCH  25  28
ATOM     28  C   LIG    1        4.543   5.121  -1.901  0.00  0.00    +0.160 C 
BRANCH  28  29
ATOM     29  O   LIG    1        4.886   5.353  -3.269  0.00  0.00    -0.560 OA
ATOM     30  H   LIG    1        5.590   6.004  -3.393  0.00  0.00    +0.380 HD
ENDBRANCH  28  29
ENDBRANCH  25  28
ENDBRANCH  24  25
ENDBRANCH   5  24
TORSDOF 11
