REMARK  Name = ZINCrg00001Jdv1W.0
REMARK                            x       y       z     vdW  Elec       q    Type
REMARK                         _______ _______ _______ _____ _____    ______ ____
ROOT
ATOM      1  C   LIG    1        3.604   1.718  -4.324  0.00  0.00    +0.520 C 
ATOM      2  N   LIG    1        4.293   0.664  -3.841  0.00  0.00    -0.670 N 
ATOM      3  H   LIG    1        5.236   0.566  -4.046  0.00  0.00    +0.420 HD
ATOM      4  O   LIG    1        2.446   1.884  -4.002  0.00  0.00    -0.510 OA
ENDROOT
BRANCH   2   5
ATOM      5  C   LIG    1        3.646  -0.289  -3.044  0.00  0.00    +0.100 A 
ATOM      6  C   LIG    1        2.639   0.100  -2.174  0.00  0.00    +0.150 A 
ATOM      7  C   LIG    1        2.006  -0.842  -1.385  0.00  0.00    -0.670 A 
ATOM      8  C   LIG    1        2.367  -2.174  -1.467  0.00  0.00    +0.130 A 
ATOM      9  C   LIG    1        3.367  -2.570  -2.336  0.00  0.00    +0.000 A 
ATOM     10  C   LIG    1        4.010  -1.632  -3.127  0.00  0.00    +0.140 A 
BRANCH   7  11
ATOM     11  S   LIG    1        0.730  -0.346  -0.276  0.00  0.00    +2.690 S 
ATOM     12  O   LIG    1        0.212   0.877  -0.781  0.00  0.00    -0.940 OA
ATOM     13  O   LIG    1       -0.075  -1.495  -0.049  0.00  0.00    -0.950 OA
BRANCH  11  14
ATOM     14  N   LIG    1        1.450   0.014   1.171  0.00  0.00    -1.000 NA
ATOM     15  C   LIG    1        1.623  -1.031   2.183  0.00  0.00    +0.300 C 
ATOM     16  C   LIG    1        1.915   1.378   1.439  0.00  0.00    +0.310 C 
ENDBRANCH  11  14
ENDBRANCH   7  11
BRANCH  10  17
ATOM     17  O   LIG    1        4.994  -2.020  -3.982  0.00  0.00    -0.490 OA
ATOM     18  H   LIG    1        4.678  -2.256  -4.864  0.00  0.00    +0.400 HD
ENDBRANCH  10  17
ENDBRANCH   2   5
BRANCH   1  23
ATOM     19  C   LIG    1        3.277   3.776  -5.713  0.00  0.00    +0.270 C 
ATOM     20  O   LIG    1        3.187   3.701  -7.148  0.00  0.00    -0.360 OA
ATOM     21  C   LIG    1        3.510   2.344  -7.522  0.00  0.00    +0.210 C 
ATOM     22  C   LIG    1        4.682   1.978  -6.576  0.00  0.00    +0.030 C 
ATOM     23  C   LIG    1        4.272   2.688  -5.263  0.00  0.00    -0.020 C 
BRANCH  19  27
ATOM     24  C   LIG    1        4.026   8.008  -3.134  0.00  0.00    +0.360 C 
ATOM     25  N   LIG    1        4.103   6.975  -4.170  0.00  0.00    -0.370 N 
ATOM     26  C   LIG    1        3.440   5.800  -4.170  0.00  0.00    +0.250 A 
ATOM     27  C   LIG    1        3.781   5.134  -5.298  0.00  0.00    -0.250 A 
ATOM     28  C   LIG    1        4.687   5.928  -6.009  0.00  0.00    +0.250 A 
ATOM     29  N   LIG    1        4.877   7.034  -5.336  0.00  0.00    -0.300 NA
ENDBRANCH  19  27
ENDBRANCH   1  23
TORSDOF 6
