REMARK  Name = ZINCpe000000Wd4Z.0
REMARK                            x       y       z     vdW  Elec       q    Type
REMARK                         _______ _______ _______ _____ _____    ______ ____
ROOT
ATOM      1  C   LIG    1        0.310   0.928   6.979  0.00  0.00    -0.140 A 
ATOM      2  C   LIG    1        1.590   0.586   7.255  0.00  0.00    +0.180 A 
ATOM      3  N   LIG    1        1.955   1.262   8.365  0.00  0.00    -0.280 N 
ATOM      4  N   LIG    1        0.983   1.992   8.780  0.00  0.00    -0.270 NA
ATOM      5  C   LIG    1        3.271   1.177   9.004  0.00  0.00    +0.370 C 
ATOM      6  C   LIG    1       -0.060   1.850   7.987  0.00  0.00    +0.010 A 
ENDROOT
BRANCH   6   7
ATOM      7  C   LIG    1       -1.367   2.524   8.124  0.00  0.00    +0.610 C 
ATOM      8  N   LIG    1       -1.619   3.292   9.203  0.00  0.00    -0.540 N 
ATOM      9  C   LIG    1       -0.593   3.559  10.230  0.00  0.00    +0.300 C 
ATOM     10  C   LIG    1       -1.241   3.431  11.613  0.00  0.00    +0.040 C 
ATOM     11  C   LIG    1       -2.336   4.491  11.777  0.00  0.00    +0.310 C 
ATOM     12  N   LIG    1       -3.218   4.447  10.608  0.00  0.00    -0.390 N 
ATOM     13  N   LIG    1       -4.516   4.940  10.478  0.00  0.00    -0.290 NA
ATOM     14  C   LIG    1       -4.929   4.696   9.254  0.00  0.00    +0.250 A 
ATOM     15  C   LIG    1       -3.910   4.026   8.566  0.00  0.00    -0.090 A 
ATOM     16  C   LIG    1       -2.867   3.887   9.413  0.00  0.00    +0.310 A 
ATOM     17  O   LIG    1       -2.216   2.386   7.265  0.00  0.00    -0.470 OA
ENDBRANCH   6   7
BRANCH   1  18
ATOM     18  C   LIG    1       -0.540   0.436   5.836  0.00  0.00    +0.270 C 
BRANCH  18  22
ATOM     19  C   LIG    1       -0.143   1.055   2.405  0.00  0.00    +0.140 C 
ATOM     20  C   LIG    1        0.787   2.184   2.923  0.00  0.00    +0.010 C 
ATOM     21  C   LIG    1        0.815   1.894   4.444  0.00  0.00    +0.170 C 
ATOM     22  N   LIG    1       -0.556   1.444   4.768  0.00  0.00    -0.510 NA
ATOM     23  C   LIG    1       -1.175   0.906   3.543  0.00  0.00    +0.200 C 
BRANCH  19  25
ATOM     24  C   LIG    1       -0.127   0.976   0.010  0.00  0.00    +0.200 C 
ATOM     25  O   LIG    1       -0.783   1.445   1.189  0.00  0.00    -0.380 OA
ENDBRANCH  19  25
ENDBRANCH  18  22
ENDBRANCH   1  18
TORSDOF 4
