REMARK  Name = ZINCpk00000eb0o4.0
REMARK                            x       y       z     vdW  Elec       q    Type
REMARK                         _______ _______ _______ _____ _____    ______ ____
ROOT
ATOM      1  C   LIG    1        1.807   1.643  -3.920  0.00  0.00    +0.190 C 
ATOM      2  C   LIG    1        1.101   1.511  -5.271  0.00  0.00    +0.080 C 
ENDROOT
BRANCH   1   5
ATOM      3  N   LIG    1        4.081   1.161  -4.765  0.00  0.00    -0.670 N 
ATOM      4  H   LIG    1        3.966   1.883  -5.401  0.00  0.00    +0.420 HD
ATOM      5  C   LIG    1        3.074   0.828  -3.933  0.00  0.00    +0.520 C 
ATOM      6  O   LIG    1        3.187  -0.128  -3.196  0.00  0.00    -0.490 OA
BRANCH   3  11
ATOM      7  C   LIG    1        9.000  -1.660  -4.541  0.00  0.00    +0.100 C 
ATOM      8  C   LIG    1        7.693  -0.911  -4.600  0.00  0.00    -0.130 A 
ATOM      9  C   LIG    1        7.686   0.442  -4.882  0.00  0.00    +0.070 A 
ATOM     10  C   LIG    1        6.489   1.130  -4.942  0.00  0.00    -0.020 A 
ATOM     11  C   LIG    1        5.293   0.464  -4.709  0.00  0.00    +0.170 A 
ATOM     12  C   LIG    1        5.302  -0.895  -4.426  0.00  0.00    +0.000 A 
ATOM     13  C   LIG    1        6.502  -1.581  -4.372  0.00  0.00    +0.120 A 
ATOM     14  F   LIG    1        6.512  -2.904  -4.098  0.00  0.00    -0.130 F 
ENDBRANCH   3  11
ENDBRANCH   1   5
BRANCH   1  15
ATOM     15  O   LIG    1        0.931   1.161  -2.867  0.00  0.00    -0.330 OA
BRANCH  15  16
ATOM     16  C   LIG    1        0.112   2.058  -2.297  0.00  0.00    +0.440 C 
ATOM     17  O   LIG    1        0.125   3.208  -2.666  0.00  0.00    -0.470 OA
BRANCH  16  18
ATOM     18  C   LIG    1       -0.826   1.630  -1.197  0.00  0.00    +0.290 C 
ATOM     19  C   LIG    1       -0.017   1.099   0.005  0.00  0.00    +0.060 C 
ATOM     20  C   LIG    1       -0.809   1.635   1.226  0.00  0.00    +0.040 C 
ATOM     21  C   LIG    1       -1.296   3.011   0.699  0.00  0.00    +0.280 C 
ATOM     22  N   LIG    1       -1.603   2.785  -0.725  0.00  0.00    -1.000 NA
BRANCH  22  23
ATOM     23  S   LIG    1       -2.648   3.685  -1.641  0.00  0.00    +2.620 S 
ATOM     24  O   LIG    1       -2.172   3.530  -2.971  0.00  0.00    -0.930 OA
ATOM     25  O   LIG    1       -2.660   4.959  -1.010  0.00  0.00    -0.940 OA
ATOM     26  C   LIG    1       -4.251   2.861  -1.439  0.00  0.00    -0.290 C 
ENDBRANCH  22  23
ENDBRANCH  16  18
ENDBRANCH  15  16
ENDBRANCH   1  15
TORSDOF 6
