REMARK  Name = ZINCvU0000000AV8.1
REMARK                            x       y       z     vdW  Elec       q    Type
REMARK                         _______ _______ _______ _____ _____    ______ ____
ROOT
ATOM      1  C   LIG    1       -1.393   2.809   0.239  0.00  0.00    -0.690 A 
ATOM      2  C   LIG    1       -1.665   1.455   0.311  0.00  0.00    +0.160 A 
ATOM      3  C   LIG    1       -0.632   0.547   0.433  0.00  0.00    -0.020 A 
ATOM      4  C   LIG    1        0.682   0.994   0.473  0.00  0.00    +0.200 A 
ATOM      5  C   LIG    1        0.953   2.354   0.395  0.00  0.00    +0.010 A 
ATOM      6  C   LIG    1       -0.086   3.258   0.279  0.00  0.00    +0.160 A 
ENDROOT
BRANCH   4   7
ATOM      7  N   LIG    1        1.732   0.076   0.591  0.00  0.00    -0.670 N 
ATOM      8  H   LIG    1        1.618  -0.725   1.125  0.00  0.00    +0.420 HD
ATOM      9  C   LIG    1        2.901   0.306  -0.039  0.00  0.00    +0.540 C 
ATOM     10  O   LIG    1        3.074   1.346  -0.638  0.00  0.00    -0.490 OA
BRANCH   9  11
ATOM     11  C   LIG    1        3.994  -0.731   0.001  0.00  0.00    -0.010 C 
ATOM     12  C   LIG    1        4.738  -0.636   1.334  0.00  0.00    +0.080 C 
BRANCH  11  13
ATOM     13  S   LIG    1        5.156  -0.438  -1.361  0.00  0.00    +0.000 S 
BRANCH  13  14
ATOM     14  C   LIG    1        6.156  -1.888  -1.349  0.00  0.00    -0.100 A 
ATOM     15  C   LIG    1        5.842  -2.943  -0.502  0.00  0.00    +0.000 A 
ATOM     16  C   LIG    1        6.625  -4.081  -0.498  0.00  0.00    +0.040 A 
ATOM     17  C   LIG    1        7.728  -4.166  -1.328  0.00  0.00    +0.030 A 
ATOM     18  C   LIG    1        8.048  -3.116  -2.169  0.00  0.00    +0.050 A 
ATOM     19  C   LIG    1        7.266  -1.977  -2.182  0.00  0.00    -0.020 A 
ATOM     20 CL   LIG    1        7.668  -0.659  -3.238  0.00  0.00    -0.050 Cl
ENDBRANCH  13  14
ENDBRANCH  11  13
ENDBRANCH   9  11
ENDBRANCH   4   7
BRANCH   1  21
ATOM     21  S   LIG    1       -2.715   3.965   0.089  0.00  0.00    +2.690 S 
ATOM     22  O   LIG    1       -2.221   5.204   0.578  0.00  0.00    -0.950 OA
ATOM     23  O   LIG    1       -3.869   3.325   0.617  0.00  0.00    -0.950 OA
BRANCH  21  24
ATOM     24  N   LIG    1       -2.998   4.179  -1.528  0.00  0.00    -1.050 N 
ATOM     25  H   LIG    1       -2.903   5.059  -1.925  0.00  0.00    +0.430 HD
BRANCH  24  31
ATOM     26  C   LIG    1       -2.933   3.002  -3.642  0.00  0.00    +0.110 A 
ATOM     27  C   LIG    1       -3.304   1.921  -4.422  0.00  0.00    -0.060 A 
ATOM     28  C   LIG    1       -4.119   0.935  -3.896  0.00  0.00    +0.040 A 
ATOM     29  C   LIG    1       -4.561   1.023  -2.589  0.00  0.00    +0.000 A 
ATOM     30  C   LIG    1       -4.191   2.098  -1.802  0.00  0.00    +0.030 A 
ATOM     31  C   LIG    1       -3.374   3.090  -2.323  0.00  0.00    +0.130 A 
BRANCH  26  33
ATOM     32  C   LIG    1       -1.723   3.820  -5.520  0.00  0.00    +0.250 C 
ATOM     33  O   LIG    1       -2.136   3.975  -4.161  0.00  0.00    -0.310 OA
ENDBRANCH  26  33
ENDBRANCH  24  31
ENDBRANCH  21  24
ENDBRANCH   1  21
TORSDOF 8
