REMARK  Name = ZINCvU0000000Av8.0
REMARK                            x       y       z     vdW  Elec       q    Type
REMARK                         _______ _______ _______ _____ _____    ______ ____
ROOT
ATOM      1  C   LIG    1       -1.329  -0.092  -0.325  0.00  0.00    +0.480 A 
ATOM      2  C   LIG    1       -1.151   1.254  -0.736  0.00  0.00    -0.220 A 
ATOM      3  C   LIG    1       -0.227   2.029  -0.029  0.00  0.00    +0.120 A 
ATOM      4  S   LIG    1       -0.173   3.648  -0.708  0.00  0.00    +0.180 S 
ATOM      5  C   LIG    1       -1.383   3.255  -1.916  0.00  0.00    -0.180 A 
ATOM      6  C   LIG    1       -1.898   4.223  -2.949  0.00  0.00    +0.150 C 
ATOM      7  N   LIG    1        0.442   1.476   0.991  0.00  0.00    -0.520 NA
ATOM      8  C   LIG    1        0.242   0.224   1.332  0.00  0.00    +0.380 A 
ATOM      9  C   LIG    1       -1.780   2.002  -1.808  0.00  0.00    -0.070 A 
ATOM     10  C   LIG    1       -2.811   1.395  -2.725  0.00  0.00    +0.120 C 
ATOM     11  N   LIG    1       -0.620  -0.549   0.697  0.00  0.00    -0.550 NA
ENDROOT
BRANCH   1  12
ATOM     12  N   LIG    1       -2.228  -0.915  -0.981  0.00  0.00    -0.640 N 
ATOM     13  H   LIG    1       -2.804  -0.551  -1.671  0.00  0.00    +0.420 HD
BRANCH  12  17
ATOM     14  C   LIG    1       -2.461  -4.952   0.008  0.00  0.00    -0.160 A 
ATOM     15  C   LIG    1       -3.589  -4.284  -0.476  0.00  0.00    +0.100 A 
ATOM     16  C   LIG    1       -3.509  -2.949  -0.802  0.00  0.00    -0.030 A 
ATOM     17  C   LIG    1       -2.306  -2.265  -0.650  0.00  0.00    +0.180 A 
ATOM     18  C   LIG    1       -1.179  -2.929  -0.174  0.00  0.00    +0.020 A 
ATOM     19  C   LIG    1       -1.255  -4.263   0.159  0.00  0.00    +0.070 A 
BRANCH  14  21
ATOM     20  N   LIG    1       -1.447  -7.163   0.269  0.00  0.00    -0.610 N 
ATOM     21  C   LIG    1       -2.543  -6.383   0.358  0.00  0.00    +0.560 C 
ATOM     22  O   LIG    1       -3.600  -6.859   0.726  0.00  0.00    -0.540 OA
BRANCH  20  24
ATOM     23  C   LIG    1       -1.912  -9.435  -0.506  0.00  0.00    +0.010 C 
ATOM     24  C   LIG    1       -1.510  -8.566   0.687  0.00  0.00    +0.270 C 
ENDBRANCH  20  24
BRANCH  20  25
ATOM     25  C   LIG    1       -0.193  -6.607  -0.245  0.00  0.00    +0.260 C 
ATOM     26  C   LIG    1        0.802  -6.444   0.905  0.00  0.00    +0.020 C 
ENDBRANCH  20  25
ENDBRANCH  14  21
ENDBRANCH  12  17
ENDBRANCH   1  12
BRANCH   8  27
ATOM     27  C   LIG    1        1.021  -0.349   2.488  0.00  0.00    +0.300 C 
BRANCH  27  28
ATOM     28  N   LIG    1        2.274  -0.934   1.992  0.00  0.00    -0.510 NA
ATOM     29  C   LIG    1        3.027   0.044   1.165  0.00  0.00    +0.170 C 
ATOM     30  C   LIG    1        4.472  -0.514   1.185  0.00  0.00    +0.020 C 
ATOM     31  C   LIG    1        4.614  -1.054   2.627  0.00  0.00    +0.010 C 
ATOM     32  C   LIG    1        3.171  -1.292   3.111  0.00  0.00    +0.170 C 
ENDBRANCH  27  28
ENDBRANCH   8  27
TORSDOF 7
