REMARK  Name = ZINCpe000000SyUH.0
REMARK                            x       y       z     vdW  Elec       q    Type
REMARK                         _______ _______ _______ _____ _____    ______ ____
ROOT
ATOM      1  C   LIG    1        2.119  -4.109   1.302  0.00  0.00    +0.530 C 
ATOM      2  N   LIG    1        1.541  -4.888   0.366  0.00  0.00    -0.610 N 
ATOM      3  C   LIG    1        0.966  -4.285  -0.843  0.00  0.00    +0.270 C 
ATOM      4  C   LIG    1        1.623  -4.930  -2.080  0.00  0.00    +0.330 C 
ATOM      5  N   LIG    1        1.627  -6.385  -1.865  0.00  0.00    -0.630 N 
ATOM      6  C   LIG    1        1.134  -7.334  -2.662  0.00  0.00    +0.700 C 
ATOM      7  N   LIG    1        1.113  -8.552  -2.100  0.00  0.00    -0.630 N 
ATOM      8  C   LIG    1        1.724  -8.479  -0.763  0.00  0.00    +0.280 C 
ATOM      9  O   LIG    1        0.740  -7.116  -3.791  0.00  0.00    -0.580 OA
ATOM     10  C   LIG    1        2.167  -7.012  -0.641  0.00  0.00    +0.210 C 
ATOM     11  C   LIG    1        1.477  -6.346   0.556  0.00  0.00    +0.290 C 
ATOM     12  O   LIG    1        2.657  -4.615   2.264  0.00  0.00    -0.530 OA
ENDROOT
BRANCH   1  19
ATOM     13  C   LIG    1       -0.092   1.610   0.939  0.00  0.00    +0.100 C 
ATOM     14  C   LIG    1       -0.151   0.104   0.961  0.00  0.00    +0.510 C 
ATOM     15  N   LIG    1        0.797  -0.598   1.612  0.00  0.00    -0.610 N 
ATOM     16  C   LIG    1        1.895   0.091   2.305  0.00  0.00    +0.260 C 
ATOM     17  C   LIG    1        3.227  -0.477   1.806  0.00  0.00    +0.010 C 
ATOM     18  C   LIG    1        3.227  -1.997   1.984  0.00  0.00    +0.050 C 
ATOM     19  C   LIG    1        2.098  -2.610   1.151  0.00  0.00    -0.020 C 
ATOM     20  C   LIG    1        0.750  -2.066   1.648  0.00  0.00    +0.300 C 
ATOM     21  O   LIG    1       -1.052  -0.476   0.393  0.00  0.00    -0.540 OA
ENDBRANCH   1  19
BRANCH   7  22
ATOM     22  C   LIG    1        0.568  -9.763  -2.719  0.00  0.00    +0.320 C 
BRANCH  22  23
ATOM     23  C   LIG    1        1.669 -10.472  -3.510  0.00  0.00    -0.050 C 
ATOM     24  C   LIG    1        1.073 -11.666  -4.257  0.00  0.00    +0.030 C 
ATOM     25  C   LIG    1        2.753 -10.962  -2.547  0.00  0.00    +0.020 C 
ENDBRANCH  22  23
ENDBRANCH   7  22
TORSDOF 3
