REMARK  Name = ZINCAx0000000bze.0
REMARK                            x       y       z     vdW  Elec       q    Type
REMARK                         _______ _______ _______ _____ _____    ______ ____
ROOT
ATOM      1  N   LIG    1        1.673  16.998  -1.563  0.00  0.00    -0.410 N 
ATOM      2  C   LIG    1        1.473  18.111  -0.831  0.00  0.00    +0.500 A 
ATOM      3  N   LIG    1        1.453  17.805   0.441  0.00  0.00    -0.490 NA
ATOM      4  C   LIG    1        1.638  16.491   0.593  0.00  0.00    +0.320 A 
ATOM      5  N   LIG    1        1.705  15.651   1.693  0.00  0.00    -0.500 N 
ATOM      6  C   LIG    1        1.907  14.331   1.524  0.00  0.00    +0.710 A 
ATOM      7  O   LIG    1        1.963  13.610   2.501  0.00  0.00    -0.530 OA
ATOM      8  N   LIG    1        2.048  13.790   0.301  0.00  0.00    -0.540 N 
ATOM      9  C   LIG    1        1.997  14.557  -0.808  0.00  0.00    +0.600 A 
ATOM     10  O   LIG    1        2.131  14.056  -1.910  0.00  0.00    -0.510 OA
ATOM     11  C   LIG    1        1.782  15.946  -0.676  0.00  0.00    -0.150 A 
ENDROOT
BRANCH   1  12
ATOM     12  C   LIG    1        1.758  16.919  -3.024  0.00  0.00    +0.330 C 
BRANCH  12  13
ATOM     13  C   LIG    1        0.386  16.559  -3.596  0.00  0.00    +0.170 C 
BRANCH  13  15
ATOM     14  C   LIG    1       -0.765  16.150  -5.658  0.00  0.00    +0.210 C 
ATOM     15  O   LIG    1        0.470  16.482  -5.021  0.00  0.00    -0.390 OA
ENDBRANCH  13  15
ENDBRANCH  12  13
ENDBRANCH   1  12
BRANCH   5  16
ATOM     16  C   LIG    1        1.556  16.201   3.043  0.00  0.00    +0.320 C 
BRANCH  16  17
ATOM     17  C   LIG    1        2.929  16.601   3.585  0.00  0.00    -0.040 C 
ATOM     18  C   LIG    1        2.791  17.058   5.039  0.00  0.00    +0.040 C 
ATOM     19  C   LIG    1        3.497  17.745   2.743  0.00  0.00    +0.030 C 
ENDBRANCH  16  17
ENDBRANCH   5  16
BRANCH   8  20
ATOM     20  C   LIG    1        2.266  12.347   0.171  0.00  0.00    +0.320 C 
BRANCH  20  21
ATOM     21  C   LIG    1        0.917  11.636   0.054  0.00  0.00    +0.220 C 
BRANCH  21  22
ATOM     22  O   LIG    1        0.274  12.031  -1.159  0.00  0.00    -0.540 OA
ATOM     23  H   LIG    1        0.777  11.822  -1.958  0.00  0.00    +0.380 HD
ENDBRANCH  21  22
BRANCH  21  24
ATOM     24  C   LIG    1        1.138  10.122   0.044  0.00  0.00    +0.180 C 
BRANCH  24  25
ATOM     25  O   LIG    1       -0.126   9.456   0.052  0.00  0.00    -0.300 OA
BRANCH  25  26
ATOM     26  C   LIG    1       -0.108   8.097   0.044  0.00  0.00    +0.130 A 
ATOM     27  C   LIG    1       -1.301   7.388   0.051  0.00  0.00    -0.020 A 
ATOM     28  C   LIG    1       -1.286   6.009   0.044  0.00  0.00    +0.060 A 
ATOM     29  C   LIG    1       -0.070   5.327   0.029  0.00  0.00    -0.090 A 
ATOM     30  C   LIG    1        1.126   6.042   0.027  0.00  0.00    +0.060 A 
ATOM     31  C   LIG    1        1.105   7.421   0.030  0.00  0.00    -0.080 A 
BRANCH  29  32
ATOM     32  C   LIG    1       -0.050   3.844   0.022  0.00  0.00    -0.040 A 
ATOM     33  C   LIG    1        1.165   3.161   0.007  0.00  0.00    +0.000 A 
ATOM     34  C   LIG    1        1.177   1.781   0.000  0.00  0.00    +0.000 A 
ATOM     35  C   LIG    1       -0.013   1.076   0.008  0.00  0.00    +0.000 A 
ATOM     36  C   LIG    1       -1.221   1.748   0.017  0.00  0.00    +0.000 A 
ATOM     37  C   LIG    1       -1.246   3.128   0.030  0.00  0.00    +0.000 A 
ENDBRANCH  29  32
ENDBRANCH  25  26
ENDBRANCH  24  25
ENDBRANCH  21  24
ENDBRANCH  20  21
ENDBRANCH   8  20
TORSDOF 12
