REMARK  Name = ZINCtV00000L6jf8.0
REMARK                            x       y       z     vdW  Elec       q    Type
REMARK                         _______ _______ _______ _____ _____    ______ ____
ROOT
ATOM      1  P   LIG    1       -2.025  -0.313   0.257  0.00  0.00    +2.680 P 
ATOM      2  N   LIG    1       -1.773   0.726   1.384  0.00  0.00    -1.170 NA
ENDROOT
BRANCH   1   3
ATOM      3  N   LIG    1       -3.537  -0.039  -0.431  0.00  0.00    -0.900 NA
ATOM      4  C   LIG    1       -4.082  -1.279  -1.027  0.00  0.00    +0.200 C 
ATOM      5  C   LIG    1       -5.293  -1.032  -1.885  0.00  0.00    +0.050 C 
ATOM      6  C   LIG    1       -4.831  -0.864  -3.347  0.00  0.00    +0.000 C 
ATOM      7  C   LIG    1       -4.280   0.463  -3.602  0.00  0.00    +0.020 C 
ATOM      8  C   LIG    1       -3.038   0.755  -2.735  0.00  0.00    -0.010 C 
ATOM      9  C   LIG    1       -3.499   1.121  -1.350  0.00  0.00    +0.240 C 
ENDBRANCH   1   3
BRANCH   1  10
ATOM     10  C   LIG    1       -0.743  -0.148  -1.016  0.00  0.00    -0.700 A 
ATOM     11  C   LIG    1        0.083  -1.215  -1.334  0.00  0.00    +0.020 A 
ATOM     12  C   LIG    1        1.046  -1.053  -2.312  0.00  0.00    +0.260 A 
ATOM     13  N   LIG    1        1.191   0.102  -2.932  0.00  0.00    -0.450 NA
ATOM     14  C   LIG    1        0.427   1.139  -2.651  0.00  0.00    +0.270 A 
ATOM     15  C   LIG    1       -0.561   1.051  -1.688  0.00  0.00    +0.050 A 
ENDBRANCH   1  10
BRANCH   2  16
ATOM     16  C   LIG    1       -0.563   0.856   1.906  0.00  0.00    +0.330 A 
ATOM     17  C   LIG    1        0.517   0.079   1.415  0.00  0.00    -0.210 A 
ATOM     18  C   LIG    1        1.758   0.228   1.959  0.00  0.00    +0.080 A 
ATOM     19  C   LIG    1        1.967   1.131   2.994  0.00  0.00    -0.100 A 
ATOM     20  C   LIG    1        0.918   1.896   3.490  0.00  0.00    +0.110 A 
ATOM     21  C   LIG    1       -0.335   1.769   2.967  0.00  0.00    -0.260 A 
BRANCH  21  22
ATOM     22  C   LIG    1       -1.469   2.599   3.509  0.00  0.00    +0.530 C 
ATOM     23  F   LIG    1       -2.468   1.756   4.008  0.00  0.00    -0.180 F 
ATOM     24  F   LIG    1       -1.997   3.393   2.485  0.00  0.00    -0.180 F 
ATOM     25  F   LIG    1       -0.996   3.421   4.538  0.00  0.00    -0.190 F 
ENDBRANCH  21  22
ENDBRANCH   2  16
BRANCH   1  27
ATOM     26  C   LIG    1       -0.587  -2.258   1.550  0.00  0.00    +0.080 C 
ATOM     27  C   LIG    1       -1.973  -1.995   0.957  0.00  0.00    -0.690 C 
ATOM     28  C   LIG    1       -2.257  -3.016  -0.146  0.00  0.00    +0.040 C 
ATOM     29  C   LIG    1       -3.031  -2.123   2.055  0.00  0.00    +0.080 C 
ENDBRANCH   1  27
TORSDOF 5
