REMARK  Name = ZINCpk00000e97VB.0
REMARK                            x       y       z     vdW  Elec       q    Type
REMARK                         _______ _______ _______ _____ _____    ______ ____
ROOT
ATOM      1  C   LIG    1        1.280   1.980   0.001  0.00  0.00    +0.240 C 
ENDROOT
BRANCH   1   2
ATOM      2  C   LIG    1       -0.014   1.209   0.009  0.00  0.00    +0.510 C 
ATOM      3  N   LIG    1       -1.191   1.867   0.018  0.00  0.00    -0.730 N 
ATOM      4  H   LIG    1       -1.204   2.837   0.023  0.00  0.00    +0.400 HD
ATOM      5  O   LIG    1        0.002  -0.004   0.002  0.00  0.00    -0.530 OA
BRANCH   3   6
ATOM      6  C   LIG    1       -2.449   1.117   0.020  0.00  0.00    +0.260 C 
BRANCH   6   7
ATOM      7  C   LIG    1       -3.626   2.095   0.031  0.00  0.00    +0.110 C 
BRANCH   7   8
ATOM      8  C   LIG    1       -4.920   1.324   0.033  0.00  0.00    -0.240 A 
ATOM      9  C   LIG    1       -5.612   0.927  -1.060  0.00  0.00    +0.230 A 
ATOM     10  N   LIG    1       -6.708   0.265  -0.635  0.00  0.00    -0.370 N 
ATOM     11  N   LIG    1       -6.694   0.262   0.765  0.00  0.00    -0.300 NA
ATOM     12  C   LIG    1       -7.735  -0.339  -1.488  0.00  0.00    +0.360 C 
ATOM     13  C   LIG    1       -5.622   0.897   1.165  0.00  0.00    +0.240 A 
ENDBRANCH   7   8
ENDBRANCH   6   7
ENDBRANCH   3   6
ENDBRANCH   1   2
BRANCH   1  14
ATOM     14  N   LIG    1        2.407   1.043  -0.015  0.00  0.00    -0.710 N 
ATOM     15  H   LIG    1        2.289   0.149  -0.374  0.00  0.00    +0.410 HD
ATOM     16  C   LIG    1        3.606   1.423   0.469  0.00  0.00    +0.520 C 
ATOM     17  O   LIG    1        3.752   2.540   0.917  0.00  0.00    -0.520 OA
BRANCH  16  18
ATOM     18  C   LIG    1        4.764   0.459   0.452  0.00  0.00    +0.100 C 
BRANCH  18  19
ATOM     19  C   LIG    1        5.980   1.125   1.045  0.00  0.00    -0.070 A 
ATOM     20  C   LIG    1        6.853   1.820   0.230  0.00  0.00    +0.020 A 
ATOM     21  C   LIG    1        7.965   2.435   0.774  0.00  0.00    +0.000 A 
ATOM     22  C   LIG    1        8.210   2.346   2.132  0.00  0.00    +0.000 A 
ATOM     23  C   LIG    1        7.339   1.645   2.946  0.00  0.00    +0.000 A 
ATOM     24  C   LIG    1        6.224   1.035   2.402  0.00  0.00    +0.020 A 
ENDBRANCH  18  19
ENDBRANCH  16  18
ENDBRANCH   1  14
BRANCH   1  26
ATOM     25  C   LIG    1        2.652   3.650  -1.253  0.00  0.00    +0.040 C 
ATOM     26  C   LIG    1        1.337   2.867  -1.245  0.00  0.00    -0.020 C 
ATOM     27  C   LIG    1        1.256   1.993  -2.498  0.00  0.00    +0.020 C 
ENDBRANCH   1  26
TORSDOF 8
