REMARK  Name = ZINCpe00000bX8PE.1
REMARK                            x       y       z     vdW  Elec       q    Type
REMARK                         _______ _______ _______ _____ _____    ______ ____
ROOT
ATOM      1  C   LIG    1       -0.013   1.086   0.008  0.00  0.00    +0.050 C 
ATOM      2  C   LIG    1       -0.729   1.579   1.267  0.00  0.00    +0.220 C 
ATOM      3  C   LIG    1       -2.174   1.023   1.318  0.00  0.00    +0.050 C 
ATOM      4  C   LIG    1       -2.471   1.073   2.841  0.00  0.00    -0.030 C 
ATOM      5  C   LIG    1       -1.105   0.735   3.474  0.00  0.00    +0.280 C 
ATOM      6  N   LIG    1       -0.073   1.044   2.474  0.00  0.00    -0.600 N 
ATOM      7  C   LIG    1        1.254   0.868   2.634  0.00  0.00    +0.630 C 
ATOM      8  O   LIG    1        2.020   1.161   1.734  0.00  0.00    -0.540 OA
ENDROOT
BRANCH   7   9
ATOM      9  C   LIG    1        1.774   0.325   3.889  0.00  0.00    +0.080 A 
ATOM     10  N   LIG    1        1.043  -0.030   4.936  0.00  0.00    -0.400 NA
ATOM     11  C   LIG    1        1.827  -0.479   5.899  0.00  0.00    +0.180 A 
ATOM     12  C   LIG    1        3.144  -0.410   5.447  0.00  0.00    +0.030 A 
ATOM     13  C   LIG    1        4.380  -0.744   6.022  0.00  0.00    +0.070 A 
ATOM     14  C   LIG    1        5.522  -0.554   5.302  0.00  0.00    +0.030 A 
ATOM     15  C   LIG    1        5.442  -0.031   4.002  0.00  0.00    +0.030 A 
ATOM     16  C   LIG    1        4.243   0.285   3.465  0.00  0.00    +0.240 A 
ATOM     17  N   LIG    1        3.095   0.095   4.171  0.00  0.00    -0.320 N 
ENDBRANCH   7   9
BRANCH   4  18
ATOM     18  C   LIG    1       -3.519   0.025   3.224  0.00  0.00    +0.280 C 
BRANCH  18  19
ATOM     19  N   LIG    1       -3.780   0.098   4.663  0.00  0.00    -0.730 N 
ATOM     20  H   LIG    1       -3.308   0.747   5.209  0.00  0.00    +0.400 HD
ATOM     21  C   LIG    1       -4.673  -0.737   5.230  0.00  0.00    +0.510 C 
ATOM     22  O   LIG    1       -5.262  -1.548   4.547  0.00  0.00    -0.520 OA
BRANCH  21  23
ATOM     23  C   LIG    1       -4.941  -0.662   6.711  0.00  0.00    +0.200 C 
BRANCH  23  24
ATOM     24  N   LIG    1       -5.947  -1.667   7.078  0.00  0.00    -0.530 NA
ATOM     25  C   LIG    1       -6.409  -1.471   8.459  0.00  0.00    +0.190 C 
ATOM     26  C   LIG    1       -5.426  -3.027   6.885  0.00  0.00    +0.200 C 
ENDBRANCH  23  24
ENDBRANCH  21  23
ENDBRANCH  18  19
ENDBRANCH   4  18
TORSDOF 5
