REMARK  Name = ZINCkj00000Zr7BA.0
REMARK                            x       y       z     vdW  Elec       q    Type
REMARK                         _______ _______ _______ _____ _____    ______ ____
ROOT
ATOM      1  C   LIG    1       -0.016   1.344   0.009  0.00  0.00    +0.630 C 
ATOM      2  N   LIG    1        0.002  -0.004   0.002  0.00  0.00    -0.640 N 
ATOM      3  C   LIG    1        1.038  -1.049  -0.020  0.00  0.00    +0.310 C 
ATOM      4  C   LIG    1        0.036  -1.974   0.677  0.00  0.00    +0.010 C 
ATOM      5  C   LIG    1        0.049  -1.876   2.200  0.00  0.00    +0.100 C 
ATOM      6  C   LIG    1       -1.137  -2.668   2.763  0.00  0.00    +0.040 C 
ATOM      7  C   LIG    1       -1.080  -4.101   2.224  0.00  0.00    +0.050 C 
ATOM      8  C   LIG    1       -1.123  -4.073   0.695  0.00  0.00    +0.260 C 
ATOM      9  N   LIG    1        0.048  -3.350   0.181  0.00  0.00    -0.490 N 
ATOM     10  H   LIG    1        0.890  -3.811   0.491  0.00  0.00    +0.430 HD
ATOM     11  H   LIG    1        0.022  -3.343  -0.828  0.00  0.00    +0.430 HD
ATOM     12  C   LIG    1       -1.006  -1.077   0.006  0.00  0.00    +0.330 C 
ATOM     13  O   LIG    1       -1.077   1.937   0.018  0.00  0.00    -0.490 OA
ENDROOT
BRANCH   1  17
ATOM     14  C   LIG    1        4.850   2.474  -0.030  0.00  0.00    +0.390 C 
ATOM     15  N   LIG    1        3.390   2.588  -0.016  0.00  0.00    -0.340 N 
ATOM     16  C   LIG    1        2.523   1.563  -0.008  0.00  0.00    +0.290 A 
ATOM     17  C   LIG    1        1.250   2.098   0.001  0.00  0.00    -0.260 A 
ATOM     18  C   LIG    1        1.389   3.504   0.008  0.00  0.00    +0.060 A 
ATOM     19  N   LIG    1        2.663   3.784  -0.003  0.00  0.00    -0.250 NA
BRANCH  18  20
ATOM     20  C   LIG    1        0.263   4.505   0.024  0.00  0.00    +0.490 C 
ATOM     21  F   LIG    1       -0.513   4.316   1.172  0.00  0.00    -0.180 F 
ATOM     22  F   LIG    1       -0.535   4.328  -1.112  0.00  0.00    -0.180 F 
ENDBRANCH  18  20
ENDBRANCH   1  17
TORSDOF 2
