REMARK  Name = ZINCqH0000002wY3.1
REMARK                            x       y       z     vdW  Elec       q    Type
REMARK                         _______ _______ _______ _____ _____    ______ ____
ROOT
ATOM      1  C   LIG    1       -0.056  -0.700   3.583  0.00  0.00    +0.520 C 
ATOM      2  N   LIG    1        0.025  -0.018   2.423  0.00  0.00    -0.670 N 
ATOM      3  H   LIG    1        0.077   0.950   2.432  0.00  0.00    +0.410 HD
ATOM      4  O   LIG    1       -0.040  -1.912   3.577  0.00  0.00    -0.510 OA
ENDROOT
BRANCH   2   5
ATOM      5  C   LIG    1        0.035  -0.710   1.204  0.00  0.00    +0.100 A 
ATOM      6  C   LIG    1        0.655  -1.947   1.111  0.00  0.00    +0.150 A 
ATOM      7  C   LIG    1        0.662  -2.627  -0.092  0.00  0.00    -0.650 A 
ATOM      8  C   LIG    1        0.053  -2.077  -1.205  0.00  0.00    +0.130 A 
ATOM      9  C   LIG    1       -0.572  -0.846  -1.118  0.00  0.00    +0.000 A 
ATOM     10  C   LIG    1       -0.579  -0.156   0.083  0.00  0.00    +0.140 A 
BRANCH   7  11
ATOM     11  S   LIG    1        1.451  -4.198  -0.209  0.00  0.00    +2.500 S 
ATOM     12  O   LIG    1        2.438  -4.171   0.813  0.00  0.00    -0.930 OA
ATOM     13  O   LIG    1        1.816  -4.306  -1.578  0.00  0.00    -0.930 OA
BRANCH  11  14
ATOM     14  C   LIG    1        0.146  -5.391   0.198  0.00  0.00    -0.330 C 
ATOM     15  C   LIG    1        0.713  -6.810   0.130  0.00  0.00    +0.080 C 
ENDBRANCH  11  14
ENDBRANCH   7  11
BRANCH  10  16
ATOM     16  O   LIG    1       -1.189   1.056   0.168  0.00  0.00    -0.490 OA
ATOM     17  H   LIG    1       -0.607   1.804  -0.026  0.00  0.00    +0.400 HD
ENDBRANCH  10  16
ENDBRANCH   2   5
BRANCH   1  18
ATOM     18  C   LIG    1       -0.168   0.046   4.888  0.00  0.00    +0.120 C 
BRANCH  18  22
ATOM     19  C   LIG    1       -0.382  -2.750   8.111  0.00  0.00    -0.080 A 
ATOM     20  C   LIG    1        0.846  -2.282   7.683  0.00  0.00    +0.000 A 
ATOM     21  C   LIG    1        0.915  -1.377   6.640  0.00  0.00    +0.020 A 
ATOM     22  C   LIG    1       -0.243  -0.941   6.025  0.00  0.00    -0.080 A 
ATOM     23  C   LIG    1       -1.472  -1.404   6.457  0.00  0.00    +0.020 A 
ATOM     24  C   LIG    1       -1.541  -2.313   7.497  0.00  0.00    +0.000 A 
BRANCH  19  25
ATOM     25  C   LIG    1       -0.458  -3.736   9.248  0.00  0.00    +0.060 C 
BRANCH  25  26
ATOM     26  C   LIG    1       -0.571  -2.980  10.573  0.00  0.00    +0.010 C 
BRANCH  26  28
ATOM     27  C   LIG    1       -0.760  -3.226  13.052  0.00  0.00    +0.000 C 
ATOM     28  C   LIG    1       -0.647  -3.982  11.727  0.00  0.00    -0.010 C 
ENDBRANCH  26  28
ENDBRANCH  25  26
ENDBRANCH  19  25
ENDBRANCH  18  22
ENDBRANCH   1  18
TORSDOF 9
