REMARK  Name = ZINCpk000000oNel.0
REMARK                            x       y       z     vdW  Elec       q    Type
REMARK                         _______ _______ _______ _____ _____    ______ ____
ROOT
ATOM      1  N   LIG    1       -2.443   2.378   0.871  0.00  0.00    -0.540 NA
ATOM      2  C   LIG    1       -1.051   2.294   1.310  0.00  0.00    +0.180 C 
ATOM      3  C   LIG    1       -0.579   0.863   1.184  0.00  0.00    +0.040 C 
ATOM      4  C   LIG    1        0.082   0.655  -0.189  0.00  0.00    +0.250 C 
ATOM      5  N   LIG    1       -0.661   1.360  -1.252  0.00  0.00    -0.600 N 
ATOM      6  C   LIG    1       -2.108   1.374  -1.314  0.00  0.00    +0.300 C 
ATOM      7  C   LIG    1        0.035   2.017  -2.202  0.00  0.00    +0.520 C 
ATOM      8  O   LIG    1       -0.547   2.526  -3.137  0.00  0.00    -0.530 OA
ATOM      9  C   LIG    1       -2.653   2.581  -0.513  0.00  0.00    +0.180 C 
ENDROOT
BRANCH   1  10
ATOM     10  C   LIG    1       -3.187   3.363   1.667  0.00  0.00    +0.200 C 
BRANCH  10  13
ATOM     11  N   LIG    1       -5.551   3.925   2.132  0.00  0.00    -0.740 N 
ATOM     12  H   LIG    1       -5.235   4.641   2.705  0.00  0.00    +0.400 HD
ATOM     13  C   LIG    1       -4.667   3.135   1.491  0.00  0.00    +0.510 C 
ATOM     14  O   LIG    1       -5.062   2.240   0.774  0.00  0.00    -0.520 OA
BRANCH  11  16
ATOM     15  C   LIG    1       -7.765   4.729   2.790  0.00  0.00    +0.030 C 
ATOM     16  C   LIG    1       -6.989   3.704   1.961  0.00  0.00    +0.250 C 
ENDBRANCH  11  16
ENDBRANCH  10  13
ENDBRANCH   1  10
BRANCH   7  17
ATOM     17  C   LIG    1        1.535   2.119  -2.103  0.00  0.00    +0.040 C 
BRANCH  17  18
ATOM     18  C   LIG    1        2.162   0.868  -2.663  0.00  0.00    -0.130 A 
ATOM     19  C   LIG    1        2.969   0.070  -1.867  0.00  0.00    +0.060 A 
ATOM     20  C   LIG    1        3.519  -1.074  -2.423  0.00  0.00    -0.030 A 
ATOM     21  C   LIG    1        3.256  -1.374  -3.746  0.00  0.00    +0.260 A 
ATOM     22  N   LIG    1        2.488  -0.589  -4.475  0.00  0.00    -0.480 NA
ATOM     23  C   LIG    1        1.943   0.505  -3.978  0.00  0.00    +0.270 A 
ENDBRANCH  17  18
BRANCH  17  24
ATOM     24  C   LIG    1        2.017   3.332  -2.900  0.00  0.00    +0.010 C 
ATOM     25  C   LIG    1        3.547   3.376  -2.886  0.00  0.00    +0.010 C 
ATOM     26  C   LIG    1        1.465   4.611  -2.268  0.00  0.00    +0.020 C 
ENDBRANCH  17  24
ENDBRANCH   7  17
TORSDOF 6
