REMARK  Name = ZINCvU0000000Ez7.0
REMARK                            x       y       z     vdW  Elec       q    Type
REMARK                         _______ _______ _______ _____ _____    ______ ____
ROOT
ATOM      1  C   LIG    1       -2.995   4.251   6.376  0.00  0.00    +0.460 A 
ATOM      2  N   LIG    1       -3.517   3.738   7.455  0.00  0.00    -0.560 NA
ATOM      3  C   LIG    1       -3.722   4.482   8.555  0.00  0.00    +0.540 A 
ATOM      4  C   LIG    1       -3.357   5.911   8.524  0.00  0.00    -0.210 A 
ATOM      5  C   LIG    1       -2.812   6.402   7.351  0.00  0.00    +0.050 A 
ATOM      6  S   LIG    1       -2.450   8.112   7.526  0.00  0.00    +0.200 S 
ATOM      7  C   LIG    1       -3.039   8.140   9.177  0.00  0.00    -0.040 A 
ATOM      8  C   LIG    1       -3.473   6.936   9.551  0.00  0.00    +0.010 A 
ATOM      9  O   LIG    1       -4.208   3.986   9.559  0.00  0.00    -0.460 OA
ATOM     10  N   LIG    1       -2.642   5.542   6.287  0.00  0.00    -0.590 N 
ATOM     11  H   LIG    1       -2.261   5.877   5.460  0.00  0.00    +0.420 HD
ENDROOT
BRANCH   8  12
ATOM     12  C   LIG    1       -4.025   6.665  10.900  0.00  0.00    -0.040 A 
ATOM     13  C   LIG    1       -5.249   6.010  11.036  0.00  0.00    +0.060 A 
ATOM     14  C   LIG    1       -5.755   5.754  12.293  0.00  0.00    +0.000 A 
ATOM     15  C   LIG    1       -5.057   6.157  13.418  0.00  0.00    +0.010 A 
ATOM     16  C   LIG    1       -3.846   6.812  13.289  0.00  0.00    -0.010 A 
ATOM     17  C   LIG    1       -3.326   7.068  12.037  0.00  0.00    +0.020 A 
ENDBRANCH   8  12
BRANCH   1  18
ATOM     18  C   LIG    1       -2.786   3.359   5.179  0.00  0.00    +0.110 C 
ATOM     19  C   LIG    1       -4.079   3.288   4.364  0.00  0.00    +0.110 C 
BRANCH  18  20
ATOM     20  S   LIG    1       -1.460   4.034   4.148  0.00  0.00    +0.070 S 
BRANCH  20  24
ATOM     21  C   LIG    1       -0.718   1.572   1.248  0.00  0.00    +0.190 A 
ATOM     22  N   LIG    1       -1.676   0.957   1.878  0.00  0.00    -0.250 NA
ATOM     23  N   LIG    1       -2.040   1.656   2.895  0.00  0.00    -0.270 NA
ATOM     24  C   LIG    1       -1.327   2.755   2.944  0.00  0.00    +0.130 A 
ATOM     25  O   LIG    1       -0.475   2.725   1.902  0.00  0.00    -0.200 OA
BRANCH  21  26
ATOM     26  C   LIG    1       -0.013   1.086   0.008  0.00  0.00    +0.300 C 
BRANCH  26  30
ATOM     27  C   LIG    1       -3.982   1.695  -2.907  0.00  0.00    +0.180 C 
ATOM     28  C   LIG    1       -2.539   1.842  -2.500  0.00  0.00    +0.050 A 
ATOM     29  N   LIG    1       -2.023   1.360  -1.420  0.00  0.00    -0.460 NA
ATOM     30  C   LIG    1       -0.742   1.585  -1.213  0.00  0.00    +0.060 A 
ATOM     31  C   LIG    1       -0.140   2.287  -2.177  0.00  0.00    -0.070 A 
ATOM     32  S   LIG    1       -1.345   2.666  -3.405  0.00  0.00    +0.140 S 
ENDBRANCH  26  30
ENDBRANCH  21  26
ENDBRANCH  20  24
ENDBRANCH  18  20
ENDBRANCH   1  18
TORSDOF 6
