REMARK  Name = ZINCqH0000036m6k.0
REMARK                            x       y       z     vdW  Elec       q    Type
REMARK                         _______ _______ _______ _____ _____    ______ ____
ROOT
ATOM      1  C   LIG    1        5.206   3.160   2.035  0.00  0.00    +0.530 C 
ATOM      2  N   LIG    1        5.245   3.290   3.376  0.00  0.00    -0.610 N 
ATOM      3  C   LIG    1        4.090   2.907   4.199  0.00  0.00    +0.270 C 
ATOM      4  C   LIG    1        3.702   4.084   5.091  0.00  0.00    +0.030 C 
ATOM      5  C   LIG    1        4.924   4.537   5.894  0.00  0.00    +0.080 C 
ATOM      6  C   LIG    1        6.025   4.997   4.936  0.00  0.00    +0.020 C 
ATOM      7  C   LIG    1        6.441   3.824   4.041  0.00  0.00    +0.280 C 
ATOM      8  O   LIG    1        6.131   3.560   1.359  0.00  0.00    -0.540 OA
ENDROOT
BRANCH   5   9
ATOM      9  C   LIG    1        4.536   5.678   6.798  0.00  0.00    +0.100 A 
ATOM     10  C   LIG    1        4.165   5.578   8.096  0.00  0.00    -0.120 A 
ATOM     11  C   LIG    1        3.890   6.866   8.566  0.00  0.00    +0.080 A 
ATOM     12  N   LIG    1        4.089   7.710   7.585  0.00  0.00    -0.290 NA
ATOM     13  C   LIG    1        3.441   7.221   9.960  0.00  0.00    +0.150 C 
ATOM     14  N   LIG    1        4.503   6.984   6.461  0.00  0.00    -0.470 N 
ATOM     15  H   LIG    1        4.724   7.355   5.592  0.00  0.00    +0.440 HD
ENDBRANCH   5   9
BRANCH   1  16
ATOM     16  C   LIG    1        4.014   2.516   1.374  0.00  0.00    -0.070 C 
ATOM     17  C   LIG    1        3.768   1.140   1.996  0.00  0.00    +0.040 C 
ATOM     18  C   LIG    1        2.780   3.396   1.580  0.00  0.00    +0.060 C 
BRANCH  16  19
ATOM     19  C   LIG    1        4.285   2.358  -0.123  0.00  0.00    +0.110 C 
BRANCH  19  25
ATOM     20  C   LIG    1        2.021   2.494  -1.194  0.00  0.00    +0.130 A 
ATOM     21  C   LIG    1        0.925   1.898  -1.801  0.00  0.00    -0.080 A 
ATOM     22  C   LIG    1        0.904   0.530  -1.996  0.00  0.00    +0.040 A 
ATOM     23  C   LIG    1        1.973  -0.244  -1.586  0.00  0.00    -0.040 A 
ATOM     24  C   LIG    1        3.066   0.347  -0.980  0.00  0.00    +0.050 A 
ATOM     25  C   LIG    1        3.093   1.714  -0.784  0.00  0.00    -0.110 A 
BRANCH  20  27
ATOM     26  C   LIG    1        0.907   4.578  -1.449  0.00  0.00    +0.240 C 
ATOM     27  O   LIG    1        2.044   3.839  -1.001  0.00  0.00    -0.310 OA
ENDBRANCH  20  27
ENDBRANCH  19  25
ENDBRANCH  16  19
ENDBRANCH   1  16
TORSDOF 5
