REMARK  Name = ZINCqH0000036m6k.1
REMARK                            x       y       z     vdW  Elec       q    Type
REMARK                         _______ _______ _______ _____ _____    ______ ____
ROOT
ATOM      1  C   LIG    1        5.292   3.105   2.115  0.00  0.00    +0.530 C 
ATOM      2  N   LIG    1        5.379   3.086   3.460  0.00  0.00    -0.610 N 
ATOM      3  C   LIG    1        4.251   2.618   4.276  0.00  0.00    +0.270 C 
ATOM      4  C   LIG    1        4.756   1.517   5.222  0.00  0.00    +0.030 C 
ATOM      5  C   LIG    1        5.939   2.052   6.032  0.00  0.00    +0.080 C 
ATOM      6  C   LIG    1        7.078   2.432   5.085  0.00  0.00    +0.030 C 
ATOM      7  C   LIG    1        6.602   3.538   4.137  0.00  0.00    +0.280 C 
ATOM      8  O   LIG    1        6.194   3.578   1.456  0.00  0.00    -0.540 OA
ENDROOT
BRANCH   5   9
ATOM      9  C   LIG    1        6.414   0.988   6.988  0.00  0.00    +0.090 A 
ATOM     10  N   LIG    1        6.891   1.194   8.189  0.00  0.00    -0.290 NA
ATOM     11  N   LIG    1        7.214  -0.048   8.750  0.00  0.00    -0.480 N 
ATOM     12  H   LIG    1        7.585  -0.196   9.634  0.00  0.00    +0.440 HD
ATOM     13  C   LIG    1        6.923  -1.003   7.841  0.00  0.00    +0.090 A 
ATOM     14  C   LIG    1        7.117  -2.487   8.018  0.00  0.00    +0.140 C 
ATOM     15  C   LIG    1        6.427  -0.389   6.743  0.00  0.00    -0.120 A 
ENDBRANCH   5   9
BRANCH   1  16
ATOM     16  C   LIG    1        4.075   2.539   1.430  0.00  0.00    -0.070 C 
ATOM     17  C   LIG    1        3.907   1.070   1.821  0.00  0.00    +0.040 C 
ATOM     18  C   LIG    1        2.835   3.327   1.861  0.00  0.00    +0.050 C 
BRANCH  16  19
ATOM     19  C   LIG    1        4.246   2.647  -0.086  0.00  0.00    +0.110 C 
BRANCH  19  25
ATOM     20  C   LIG    1        1.911   2.880  -0.973  0.00  0.00    +0.130 A 
ATOM     21  C   LIG    1        0.792   2.356  -1.603  0.00  0.00    -0.080 A 
ATOM     22  C   LIG    1        0.792   1.041  -2.028  0.00  0.00    +0.040 A 
ATOM     23  C   LIG    1        1.906   0.248  -1.824  0.00  0.00    -0.040 A 
ATOM     24  C   LIG    1        3.023   0.768  -1.196  0.00  0.00    +0.050 A 
ATOM     25  C   LIG    1        3.028   2.082  -0.771  0.00  0.00    -0.110 A 
BRANCH  20  27
ATOM     26  C   LIG    1        0.730   4.936  -0.796  0.00  0.00    +0.230 C 
ATOM     27  O   LIG    1        1.914   4.173  -0.554  0.00  0.00    -0.310 OA
ENDBRANCH  20  27
ENDBRANCH  19  25
ENDBRANCH  16  19
ENDBRANCH   1  16
TORSDOF 5
