REMARK  Name = ZINCtj00000vxGlW.0
REMARK                            x       y       z     vdW  Elec       q    Type
REMARK                         _______ _______ _______ _____ _____    ______ ____
ROOT
ATOM      1  C   LIG    1        1.967   1.263   3.842  0.00  0.00    +0.160 A 
ATOM      2  C   LIG    1        1.341   0.445   4.772  0.00  0.00    +0.060 A 
ATOM      3  C   LIG    1        1.990   0.114   5.946  0.00  0.00    +0.050 A 
ATOM      4  C   LIG    1        3.257   0.606   6.199  0.00  0.00    +0.020 A 
ATOM      5  C   LIG    1        3.881   1.426   5.277  0.00  0.00    -0.140 A 
ATOM      6  C   LIG    1        3.240   1.756   4.099  0.00  0.00    +0.000 A 
ENDROOT
BRANCH   1   8
ATOM      7  C   LIG    1        0.486   0.708   2.065  0.00  0.00    +0.530 C 
ATOM      8  N   LIG    1        1.315   1.596   2.649  0.00  0.00    -0.680 N 
ATOM      9  H   LIG    1        1.460   2.465   2.243  0.00  0.00    +0.420 HD
ATOM     10  O   LIG    1        0.378  -0.411   2.519  0.00  0.00    -0.500 OA
BRANCH   7  19
ATOM     11  C   LIG    1       -3.666  -1.380  -1.066  0.00  0.00    +0.360 C 
ATOM     12  N   LIG    1       -2.826  -0.298  -1.585  0.00  0.00    -0.360 N 
ATOM     13  N   LIG    1       -2.982   0.352  -2.820  0.00  0.00    -0.270 NA
ATOM     14  C   LIG    1       -2.041   1.261  -2.932  0.00  0.00    +0.200 A 
ATOM     15  C   LIG    1       -1.260   1.221  -1.782  0.00  0.00    +0.040 A 
ATOM     16  N   LIG    1       -0.133   1.995  -1.428  0.00  0.00    -0.740 N 
ATOM     17  H   LIG    1        0.111   2.798  -1.915  0.00  0.00    +0.410 HD
ATOM     18  C   LIG    1        0.653   1.513  -0.275  0.00  0.00    +0.290 C 
ATOM     19  C   LIG    1       -0.308   1.107   0.847  0.00  0.00    -0.010 C 
ATOM     20  C   LIG    1       -1.175  -0.075   0.388  0.00  0.00    +0.160 C 
ATOM     21  C   LIG    1       -1.762   0.253  -0.961  0.00  0.00    +0.010 A 
ENDBRANCH   7  19
ENDBRANCH   1   8
BRANCH   5  22
ATOM     22  C   LIG    1        5.262   1.960   5.558  0.00  0.00    +0.330 C 
BRANCH  22  23
ATOM     23  N   LIG    1        5.156   3.245   6.262  0.00  0.00    -0.380 N 
ATOM     24  C   LIG    1        4.524   4.234   5.380  0.00  0.00    +0.240 C 
ATOM     25  C   LIG    1        4.336   5.551   6.137  0.00  0.00    +0.070 C 
ATOM     26  C   LIG    1        5.703   6.071   6.591  0.00  0.00    +0.060 C 
ATOM     27  C   LIG    1        6.386   5.001   7.448  0.00  0.00    -0.010 C 
ATOM     28  C   LIG    1        6.497   3.705   6.644  0.00  0.00    +0.290 C 
ATOM     29  H   LIG    1        4.593   3.127   7.091  0.00  0.00    +0.420 HD
BRANCH  27  30
ATOM     30  C   LIG    1        7.764   5.472   7.836  0.00  0.00    +0.530 C 
ATOM     31  O   LIG    1        8.739   4.833   7.503  0.00  0.00    -0.530 OA
ATOM     32  N   LIG    1        7.912   6.603   8.555  0.00  0.00    -0.840 N 
ATOM     33  H   LIG    1        8.799   6.906   8.804  0.00  0.00    +0.420 HD
ATOM     34  H   LIG    1        7.132   7.114   8.822  0.00  0.00    +0.410 HD
ENDBRANCH  27  30
ENDBRANCH  22  23
ENDBRANCH   5  22
TORSDOF 5
