REMARK  Name = ZINCtj00000vxGlW.1
REMARK                            x       y       z     vdW  Elec       q    Type
REMARK                         _______ _______ _______ _____ _____    ______ ____
ROOT
ATOM      1  C   LIG    1        0.472  -0.772  -3.860  0.00  0.00    +0.160 A 
ATOM      2  C   LIG    1        0.992   0.120  -4.788  0.00  0.00    +0.060 A 
ATOM      3  C   LIG    1        1.516  -0.349  -5.977  0.00  0.00    +0.050 A 
ATOM      4  C   LIG    1        1.511  -1.705  -6.249  0.00  0.00    +0.010 A 
ATOM      5  C   LIG    1        0.988  -2.596  -5.329  0.00  0.00    -0.140 A 
ATOM      6  C   LIG    1        0.469  -2.134  -4.136  0.00  0.00    +0.020 A 
ENDROOT
BRANCH   1   8
ATOM      7  C   LIG    1        0.484   0.786  -2.062  0.00  0.00    +0.530 C 
ATOM      8  N   LIG    1       -0.053  -0.301  -2.652  0.00  0.00    -0.680 N 
ATOM      9  H   LIG    1       -0.804  -0.756  -2.239  0.00  0.00    +0.420 HD
ATOM     10  O   LIG    1        1.480   1.298  -2.526  0.00  0.00    -0.500 OA
BRANCH   7  19
ATOM     11  C   LIG    1        0.991   5.369   1.114  0.00  0.00    +0.360 C 
ATOM     12  N   LIG    1        0.293   4.189   1.631  0.00  0.00    -0.360 N 
ATOM     13  N   LIG    1       -0.345   4.084   2.877  0.00  0.00    -0.270 NA
ATOM     14  C   LIG    1       -0.853   2.879   2.984  0.00  0.00    +0.200 A 
ATOM     15  C   LIG    1       -0.557   2.179   1.818  0.00  0.00    +0.040 A 
ATOM     16  N   LIG    1       -0.876   0.850   1.457  0.00  0.00    -0.740 N 
ATOM     17  H   LIG    1       -1.526   0.326   1.951  0.00  0.00    +0.410 HD
ATOM     18  C   LIG    1       -0.165   0.307   0.284  0.00  0.00    +0.290 C 
ATOM     19  C   LIG    1       -0.154   1.364  -0.825  0.00  0.00    -0.010 C 
ATOM     20  C   LIG    1        0.642   2.593  -0.369  0.00  0.00    +0.160 C 
ATOM     21  C   LIG    1        0.149   3.006   0.994  0.00  0.00    +0.010 A 
ENDBRANCH   7  19
ENDBRANCH   1   8
BRANCH   5  22
ATOM     22  C   LIG    1        0.986  -4.073  -5.629  0.00  0.00    +0.330 C 
BRANCH  22  23
ATOM     23  N   LIG    1       -0.262  -4.431  -6.316  0.00  0.00    -0.380 N 
ATOM     24  C   LIG    1       -0.310  -3.761  -7.621  0.00  0.00    +0.240 C 
ATOM     25  C   LIG    1       -1.643  -4.065  -8.307  0.00  0.00    +0.050 C 
ATOM     26  C   LIG    1       -1.776  -5.578  -8.503  0.00  0.00    +0.070 C 
ATOM     27  C   LIG    1       -1.651  -6.272  -7.143  0.00  0.00    +0.010 C 
ATOM     28  C   LIG    1       -0.317  -5.886  -6.501  0.00  0.00    +0.290 C 
ATOM     29  H   LIG    1       -1.049  -4.134  -5.759  0.00  0.00    +0.430 HD
BRANCH  27  30
ATOM     30  C   LIG    1       -2.784  -5.839  -6.250  0.00  0.00    +0.520 C 
ATOM     31  O   LIG    1       -2.549  -5.276  -5.201  0.00  0.00    -0.560 OA
ATOM     32  N   LIG    1       -4.059  -6.077  -6.615  0.00  0.00    -0.830 N 
ATOM     33  H   LIG    1       -4.789  -5.798  -6.040  0.00  0.00    +0.420 HD
ATOM     34  H   LIG    1       -4.248  -6.527  -7.453  0.00  0.00    +0.410 HD
ENDBRANCH  27  30
ENDBRANCH  22  23
ENDBRANCH   5  22
TORSDOF 5
