REMARK  Name = ZINCrH000004lzU2.0
REMARK                            x       y       z     vdW  Elec       q    Type
REMARK                         _______ _______ _______ _____ _____    ______ ____
ROOT
ATOM      1  C   LIG    1        2.421  -0.246   0.082  0.00  0.00    +0.590 C 
ATOM      2  N   LIG    1        2.402   1.099  -0.014  0.00  0.00    -0.660 N 
ATOM      3  H   LIG    1        3.234   1.591  -0.087  0.00  0.00    +0.410 HD
ATOM      4  O   LIG    1        1.376  -0.870   0.089  0.00  0.00    -0.490 OA
ENDROOT
BRANCH   2   5
ATOM      5  C   LIG    1        1.181   1.784  -0.008  0.00  0.00    +0.150 A 
ATOM      6  C   LIG    1        1.087   3.028   0.601  0.00  0.00    +0.010 A 
ATOM      7  C   LIG    1       -0.118   3.707   0.614  0.00  0.00    +0.070 A 
ATOM      8  C   LIG    1       -1.231   3.150   0.008  0.00  0.00    +0.070 A 
ATOM      9  O   LIG    1       -2.421   3.810   0.007  0.00  0.00    -0.300 OA
ATOM     10  C   LIG    1       -3.262   3.615  -1.133  0.00  0.00    +0.300 C 
ATOM     11  C   LIG    1       -3.337   2.146  -1.462  0.00  0.00    +0.490 C 
ATOM     12  N   LIG    1       -2.279   1.347  -1.206  0.00  0.00    -0.660 N 
ATOM     13  H   LIG    1       -2.306   0.405  -1.435  0.00  0.00    +0.420 HD
ATOM     14  O   LIG    1       -4.345   1.683  -1.954  0.00  0.00    -0.510 OA
ATOM     15  C   LIG    1       -1.140   1.900  -0.603  0.00  0.00    +0.110 A 
ATOM     16  C   LIG    1        0.065   1.219  -0.612  0.00  0.00    +0.030 A 
ENDBRANCH   2   5
BRANCH   1  18
ATOM     17  C   LIG    1        3.829  -2.285   0.276  0.00  0.00    +0.010 A 
ATOM     18  C   LIG    1        3.702  -0.958   0.178  0.00  0.00    -0.220 A 
ATOM     19  S   LIG    1        5.277  -0.183   0.172  0.00  0.00    +0.150 S 
ATOM     20  C   LIG    1        6.096  -1.734   0.317  0.00  0.00    -0.100 A 
ATOM     21  C   LIG    1        7.459  -2.039   0.386  0.00  0.00    +0.040 A 
ATOM     22  C   LIG    1        7.875  -3.344   0.493  0.00  0.00    +0.090 A 
ATOM     23  C   LIG    1        6.944  -4.374   0.533  0.00  0.00    -0.010 A 
ATOM     24  C   LIG    1        5.601  -4.101   0.467  0.00  0.00    +0.160 A 
ATOM     25  F   LIG    1        4.707  -5.114   0.507  0.00  0.00    -0.120 F 
ATOM     26  C   LIG    1        5.147  -2.763   0.357  0.00  0.00    -0.110 A 
BRANCH  17  27
ATOM     27  C   LIG    1        2.637  -3.207   0.299  0.00  0.00    +0.240 C 
BRANCH  27  29
ATOM     28  C   LIG    1        1.185  -4.472  -1.128  0.00  0.00    +0.200 C 
ATOM     29  O   LIG    1        2.308  -3.592  -1.037  0.00  0.00    -0.380 OA
ENDBRANCH  27  29
ENDBRANCH  17  27
ENDBRANCH   1  18
TORSDOF 4
