REMARK  Name = ZINCrD000000BL9O.0
REMARK                            x       y       z     vdW  Elec       q    Type
REMARK                         _______ _______ _______ _____ _____    ______ ____
ROOT
ATOM      1  O   LIG    1        1.473   2.463  -2.435  0.00  0.00    -0.580 OA
ATOM      2  C   LIG    1        1.975   2.555  -1.331  0.00  0.00    +0.740 C 
ATOM      3  N   LIG    1        1.299   2.133  -0.245  0.00  0.00    -0.660 N 
ATOM      4  C   LIG    1        1.554   2.078   1.205  0.00  0.00    +0.280 C 
ATOM      5  C   LIG    1        0.045   2.127   1.409  0.00  0.00    -0.120 C 
ATOM      6  C   LIG    1       -0.632   1.466   2.606  0.00  0.00    +0.040 C 
ATOM      7  C   LIG    1       -0.746   2.879   3.208  0.00  0.00    +0.010 C 
ATOM      8  C   LIG    1       -0.681   3.420   1.768  0.00  0.00    +0.050 C 
ATOM      9  C   LIG    1       -0.019   1.526   0.010  0.00  0.00    +0.270 C 
ATOM     10  N   LIG    1        3.209   3.081  -1.195  0.00  0.00    -0.720 N 
ATOM     11  H   LIG    1        3.610   3.154  -0.315  0.00  0.00    +0.400 HD
ENDROOT
BRANCH  10  12
ATOM     12  C   LIG    1        3.945   3.540  -2.376  0.00  0.00    +0.280 C 
ATOM     13  C   LIG    1        5.068   2.587  -2.811  0.00  0.00    -0.040 C 
ATOM     14  C   LIG    1        4.974   1.181  -2.191  0.00  0.00    +0.010 C 
ATOM     15  C   LIG    1        5.547   1.369  -0.750  0.00  0.00    +0.190 C 
ATOM     16  O   LIG    1        5.867   2.751  -0.574  0.00  0.00    -0.360 OA
ATOM     17  C   LIG    1        6.001   3.376  -1.859  0.00  0.00    +0.170 C 
ATOM     18  C   LIG    1        5.043   4.556  -2.058  0.00  0.00    -0.090 C 
ATOM     19  C   LIG    1        4.798   5.412  -0.806  0.00  0.00    +0.040 C 
ATOM     20  C   LIG    1        5.587   6.718  -1.086  0.00  0.00    +0.020 C 
ATOM     21  C   LIG    1        5.369   6.933  -2.605  0.00  0.00    +0.020 C 
ATOM     22  C   LIG    1        5.408   5.508  -3.200  0.00  0.00    +0.040 C 
ENDBRANCH  10  12
BRANCH   9  23
ATOM     23  C   LIG    1        0.002  -0.004   0.002  0.00  0.00    -0.010 C 
ATOM     24  C   LIG    1        0.596  -0.501  -1.319  0.00  0.00    +0.010 C 
ATOM     25  C   LIG    1        0.541  -2.031  -1.351  0.00  0.00    +0.200 C 
ATOM     26  O   LIG    1       -0.813  -2.460  -1.189  0.00  0.00    -0.380 OA
ATOM     27  C   LIG    1       -1.405  -2.065   0.050  0.00  0.00    +0.210 C 
ATOM     28  C   LIG    1       -1.428  -0.537   0.139  0.00  0.00    +0.000 C 
ENDBRANCH   9  23
TORSDOF 2
