REMARK  Name = ZINCrD00000hQ4pG.0
REMARK                            x       y       z     vdW  Elec       q    Type
REMARK                         _______ _______ _______ _____ _____    ______ ____
ROOT
ATOM      1  N   LIG    1       -2.475   3.662   0.044  0.00  0.00    -0.470 N 
ATOM      2  C   LIG    1       -2.565   4.675  -1.017  0.00  0.00    +0.190 C 
ATOM      3  C   LIG    1       -3.964   5.298  -1.003  0.00  0.00    +0.250 C 
ATOM      4  O   LIG    1       -4.223   5.846   0.292  0.00  0.00    -0.370 OA
ATOM      5  C   LIG    1       -4.144   4.887   1.350  0.00  0.00    +0.270 C 
ATOM      6  C   LIG    1       -2.748   4.260   1.359  0.00  0.00    +0.260 C 
ENDROOT
BRANCH   1  10
ATOM      7  C   LIG    1        1.208   1.832   0.010  0.00  0.00    -0.100 A 
ATOM      8  C   LIG    1        1.046   3.158   0.357  0.00  0.00    +0.400 A 
ATOM      9  N   LIG    1       -0.150   3.715   0.363  0.00  0.00    -0.490 NA
ATOM     10  C   LIG    1       -1.235   3.033   0.029  0.00  0.00    +0.360 A 
ATOM     11  C   LIG    1       -1.145   1.692  -0.332  0.00  0.00    -0.110 A 
ATOM     12 BR   LIG    1       -2.698   0.720  -0.802  0.00  0.00    +0.040 Br
ATOM     13  C   LIG    1        0.096   1.080  -0.342  0.00  0.00    +0.200 A 
BRANCH   7  15
ATOM     14  O   LIG    1        3.527   1.883   0.324  0.00  0.00    -0.140 OA
ATOM     15  N   LIG    1        2.555   1.218   0.014  0.00  0.00    +0.030 N 
ATOM     16  O   LIG    1        2.692   0.047  -0.294  0.00  0.00    -0.140 OA
ENDBRANCH   7  15
ENDBRANCH   1  10
BRANCH   6  17
ATOM     17  C   LIG    1       -2.683   3.192   2.421  0.00  0.00    +0.140 A 
ATOM     18  N   LIG    1       -3.219   2.005   2.352  0.00  0.00    -0.230 NA
ATOM     19  N   LIG    1       -2.967   1.356   3.434  0.00  0.00    -0.270 NA
ATOM     20  C   LIG    1       -2.256   2.113   4.237  0.00  0.00    +0.220 A 
ATOM     21  O   LIG    1       -2.058   3.288   3.606  0.00  0.00    -0.210 OA
BRANCH  20  22
ATOM     22  C   LIG    1       -1.759   1.743   5.579  0.00  0.00    -0.040 A 
ATOM     23  C   LIG    1       -1.005   2.653   6.322  0.00  0.00    +0.050 A 
ATOM     24  C   LIG    1       -0.549   2.303   7.577  0.00  0.00    +0.020 A 
ATOM     25  C   LIG    1       -0.827   1.050   8.093  0.00  0.00    +0.040 A 
ATOM     26  C   LIG    1       -1.569   0.142   7.359  0.00  0.00    +0.020 A 
ATOM     27  C   LIG    1       -2.036   0.481   6.106  0.00  0.00    +0.080 A 
ENDBRANCH  20  22
ENDBRANCH   6  17
TORSDOF 4
