REMARK  Name = ZINCvU0000000CZr.0
REMARK                            x       y       z     vdW  Elec       q    Type
REMARK                         _______ _______ _______ _____ _____    ______ ____
ROOT
ATOM      1  C   LIG    1       -0.094   0.570   1.363  0.00  0.00    +0.280 C 
ATOM      2  C   LIG    1       -0.401   1.022  -0.081  0.00  0.00    +0.050 C 
ATOM      3  C   LIG    1       -1.248  -0.151  -0.639  0.00  0.00    +0.040 C 
ATOM      4  C   LIG    1       -0.586  -1.369   0.051  0.00  0.00    +0.250 C 
ATOM      5  N   LIG    1       -0.233  -0.893   1.401  0.00  0.00    -0.620 N 
ATOM      6  C   LIG    1       -0.068  -1.669   2.490  0.00  0.00    +0.530 C 
ATOM      7  O   LIG    1        0.222  -1.167   3.555  0.00  0.00    -0.510 OA
ENDROOT
BRANCH   1  11
ATOM      8  C   LIG    1        3.901   1.678   2.414  0.00  0.00    +0.170 A 
ATOM      9  C   LIG    1        3.642   0.423   1.882  0.00  0.00    -0.110 A 
ATOM     10  C   LIG    1        2.350   0.068   1.543  0.00  0.00    +0.100 A 
ATOM     11  C   LIG    1        1.313   0.961   1.733  0.00  0.00    -0.150 A 
ATOM     12  C   LIG    1        1.567   2.217   2.266  0.00  0.00    +0.180 A 
ATOM     13  C   LIG    1        2.862   2.576   2.607  0.00  0.00    -0.100 A 
BRANCH   8  15
ATOM     14  C   LIG    1        6.192   1.053   2.521  0.00  0.00    +0.250 C 
ATOM     15  O   LIG    1        5.172   2.027   2.747  0.00  0.00    -0.320 OA
ENDBRANCH   8  15
BRANCH  12  16
ATOM     16  O   LIG    1        0.547   3.097   2.448  0.00  0.00    -0.310 OA
ATOM     17  C   LIG    1        0.881   4.372   3.000  0.00  0.00    +0.250 C 
ENDBRANCH  12  16
ENDBRANCH   1  11
BRANCH   6  18
ATOM     18  C   LIG    1       -0.242  -3.163   2.384  0.00  0.00    +0.070 C 
BRANCH  18  19
ATOM     19  C   LIG    1        0.000  -3.803   3.752  0.00  0.00    +0.100 C 
BRANCH  19  20
ATOM     20  C   LIG    1       -0.054  -5.303   3.622  0.00  0.00    -0.070 A 
ATOM     21  C   LIG    1       -1.142  -5.906   3.018  0.00  0.00    +0.010 A 
ATOM     22  C   LIG    1       -1.188  -7.282   2.894  0.00  0.00    +0.000 A 
ATOM     23  C   LIG    1       -0.152  -8.056   3.382  0.00  0.00    +0.000 A 
ATOM     24  C   LIG    1        0.933  -7.453   3.990  0.00  0.00    +0.000 A 
ATOM     25  C   LIG    1        0.983  -6.077   4.110  0.00  0.00    +0.010 A 
ENDBRANCH  19  20
BRANCH  19  26
ATOM     26  C   LIG    1       -1.063  -3.344   4.717  0.00  0.00    -0.060 A 
ATOM     27  C   LIG    1       -0.703  -2.815   5.942  0.00  0.00    +0.030 A 
ATOM     28  C   LIG    1       -1.679  -2.390   6.825  0.00  0.00    +0.000 A 
ATOM     29  C   LIG    1       -3.014  -2.503   6.486  0.00  0.00    +0.000 A 
ATOM     30  C   LIG    1       -3.374  -3.037   5.263  0.00  0.00    +0.000 A 
ATOM     31  C   LIG    1       -2.399  -3.458   4.378  0.00  0.00    +0.000 A 
ENDBRANCH  19  26
ENDBRANCH  18  19
ENDBRANCH   6  18
TORSDOF 7
