REMARK  Name = ZINCrD0000072mek.0
REMARK                            x       y       z     vdW  Elec       q    Type
REMARK                         _______ _______ _______ _____ _____    ______ ____
ROOT
ATOM      1  O   LIG    1       -6.635   0.295  -0.234  0.00  0.00    -0.320 OA
ENDROOT
BRANCH   1   2
ATOM      2  C   LIG    1       -5.444  -0.324  -0.352  0.00  0.00    +0.510 C 
ATOM      3  O   LIG    1       -5.035  -1.033   0.546  0.00  0.00    -0.500 OA
BRANCH   2   4
ATOM      4  C   LIG    1       -4.637  -0.141  -1.572  0.00  0.00    -0.090 A 
ATOM      5  C   LIG    1       -5.108   0.676  -2.605  0.00  0.00    +0.090 A 
ATOM      6  C   LIG    1       -4.350   0.846  -3.742  0.00  0.00    +0.080 A 
ATOM      7  C   LIG    1       -3.122   0.208  -3.864  0.00  0.00    -0.100 A 
ATOM      8  S   LIG    1       -2.151   0.430  -5.321  0.00  0.00    -0.060 S 
ATOM      9  C   LIG    1       -0.462   0.271  -4.670  0.00  0.00    +0.150 C 
ATOM     10  C   LIG    1       -0.406  -0.908  -3.737  0.00  0.00    +0.520 C 
ATOM     11  N   LIG    1       -1.413  -1.264  -2.943  0.00  0.00    -0.660 N 
ATOM     12  H   LIG    1       -1.280  -2.048  -2.388  0.00  0.00    +0.420 HD
ATOM     13  O   LIG    1        0.611  -1.569  -3.708  0.00  0.00    -0.510 OA
ATOM     14  C   LIG    1       -2.642  -0.616  -2.842  0.00  0.00    +0.150 A 
ATOM     15  C   LIG    1       -3.401  -0.782  -1.694  0.00  0.00    +0.080 A 
ENDBRANCH   2   4
ENDBRANCH   1   2
BRANCH   1  16
ATOM     16  C   LIG    1       -7.375   0.069   0.995  0.00  0.00    +0.270 C 
BRANCH  16  19
ATOM     17  N   LIG    1       -9.528   0.776   1.987  0.00  0.00    -0.670 N 
ATOM     18  H   LIG    1       -9.335   0.198   2.742  0.00  0.00    +0.410 HD
ATOM     19  C   LIG    1       -8.672   0.836   0.948  0.00  0.00    +0.510 C 
ATOM     20  O   LIG    1       -8.945   1.507  -0.025  0.00  0.00    -0.490 OA
BRANCH  17  27
ATOM     21  C   LIG    1      -11.928   0.948   2.195  0.00  0.00    -0.090 A 
ATOM     22  C   LIG    1      -13.078   1.713   2.190  0.00  0.00    +0.020 A 
ATOM     23  C   LIG    1      -13.003   3.075   1.958  0.00  0.00    +0.020 A 
ATOM     24  C   LIG    1      -11.777   3.674   1.736  0.00  0.00    +0.020 A 
ATOM     25  C   LIG    1      -10.623   2.915   1.745  0.00  0.00    -0.070 A 
ATOM     26  C   LIG    1       -9.287   3.570   1.503  0.00  0.00    +0.090 C 
ATOM     27  C   LIG    1      -10.695   1.548   1.978  0.00  0.00    +0.140 A 
BRANCH  21  29
ATOM     28  C   LIG    1      -11.776  -0.821   3.926  0.00  0.00    +0.020 C 
ATOM     29  C   LIG    1      -12.012  -0.537   2.442  0.00  0.00    +0.060 C 
ENDBRANCH  21  29
ENDBRANCH  17  27
ENDBRANCH  16  19
ENDBRANCH   1  16
TORSDOF 6
