REMARK  Name = ZINCtV000002PNdh.0
REMARK                            x       y       z     vdW  Elec       q    Type
REMARK                         _______ _______ _______ _____ _____    ______ ____
ROOT
ATOM      1  C   LIG    1       -0.013   1.086   0.008  0.00  0.00    +0.200 C 
ENDROOT
BRANCH   1   2
ATOM      2  C   LIG    1       -0.718   1.572   1.248  0.00  0.00    -0.120 A 
ATOM      3  C   LIG    1       -0.511   2.861   1.700  0.00  0.00    +0.000 A 
ATOM      4  C   LIG    1       -1.161   3.308   2.836  0.00  0.00    +0.010 A 
ATOM      5  C   LIG    1       -2.012   2.463   3.523  0.00  0.00    +0.000 A 
ATOM      6  C   LIG    1       -2.215   1.172   3.073  0.00  0.00    +0.010 A 
ATOM      7  C   LIG    1       -1.568   0.726   1.936  0.00  0.00    +0.020 A 
ENDBRANCH   1   2
BRANCH   1   8
ATOM      8  N   LIG    1        1.365   1.594  -0.002  0.00  0.00    -0.660 NA
ATOM      9  H   LIG    1        1.404   2.542   0.341  0.00  0.00    +0.350 HD
BRANCH   8  10
ATOM     10  C   LIG    1        2.256   0.718   0.771  0.00  0.00    +0.270 C 
BRANCH  10  11
ATOM     11  C   LIG    1        3.657   1.271   0.738  0.00  0.00    +0.080 A 
ATOM     12  C   LIG    1        4.132   2.062   1.705  0.00  0.00    -0.060 A 
ATOM     13  S   LIG    1        5.794   2.489   1.303  0.00  0.00    +0.100 S 
ATOM     14  C   LIG    1        5.675   1.538  -0.176  0.00  0.00    +0.110 A 
ATOM     15  N   LIG    1        4.487   1.009  -0.246  0.00  0.00    -0.440 NA
BRANCH  14  16
ATOM     16  C   LIG    1        6.751   1.367  -1.175  0.00  0.00    -0.020 A 
ATOM     17  C   LIG    1        6.536   0.581  -2.308  0.00  0.00    +0.090 A 
ATOM     18  C   LIG    1        7.542   0.429  -3.240  0.00  0.00    +0.030 A 
ATOM     19  C   LIG    1        8.767   1.047  -3.047  0.00  0.00    -0.020 A 
ATOM     20  C   LIG    1        8.987   1.824  -1.923  0.00  0.00    +0.030 A 
ATOM     21 CL   LIG    1       10.030   0.846  -4.221  0.00  0.00    -0.060 Cl
ATOM     22  C   LIG    1        7.987   1.987  -0.987  0.00  0.00    +0.040 A 
ENDBRANCH  14  16
ENDBRANCH  10  11
ENDBRANCH   8  10
ENDBRANCH   1   8
BRANCH   1  23
ATOM     23  C   LIG    1       -0.753   1.593  -1.232  0.00  0.00    +0.290 C 
BRANCH  23  24
ATOM     24  C   LIG    1       -2.126   0.973  -1.285  0.00  0.00    -0.120 A 
ATOM     25  C   LIG    1       -3.170   1.546  -0.584  0.00  0.00    +0.010 A 
ATOM     26  C   LIG    1       -4.430   0.981  -0.637  0.00  0.00    +0.000 A 
ATOM     27  C   LIG    1       -4.644  -0.163  -1.383  0.00  0.00    +0.000 A 
ATOM     28  C   LIG    1       -3.598  -0.739  -2.081  0.00  0.00    +0.000 A 
ATOM     29  C   LIG    1       -2.339  -0.171  -2.031  0.00  0.00    +0.010 A 
ENDBRANCH  23  24
BRANCH  23  30
ATOM     30  O   LIG    1       -0.874   3.015  -1.165  0.00  0.00    -0.550 OA
ATOM     31  H   LIG    1       -1.361   3.333  -0.393  0.00  0.00    +0.370 HD
ENDBRANCH  23  30
ENDBRANCH   1  23
TORSDOF 8
