REMARK  Name = ZINCvU0000000Eai.0
REMARK                            x       y       z     vdW  Elec       q    Type
REMARK                         _______ _______ _______ _____ _____    ______ ____
ROOT
ATOM      1  C   LIG    1        4.016  -5.297   2.976  0.00  0.00    +0.190 C 
ATOM      2  C   LIG    1        3.728  -4.042   2.490  0.00  0.00    -0.230 C 
ENDROOT
BRANCH   1   8
ATOM      3  C   LIG    1        6.123  -7.656   6.828  0.00  0.00    +0.090 C 
ATOM      4  C   LIG    1        6.183  -6.625   5.731  0.00  0.00    -0.090 A 
ATOM      5  C   LIG    1        7.323  -5.856   5.567  0.00  0.00    +0.020 A 
ATOM      6  C   LIG    1        7.389  -4.905   4.563  0.00  0.00    +0.020 A 
ATOM      7  C   LIG    1        6.321  -4.721   3.712  0.00  0.00    +0.040 A 
ATOM      8  C   LIG    1        5.161  -5.490   3.873  0.00  0.00    -0.100 A 
ATOM      9  C   LIG    1        5.103  -6.449   4.893  0.00  0.00    +0.040 A 
ENDBRANCH   1   8
BRANCH   2  10
ATOM     10  C   LIG    1        2.688  -3.873   1.462  0.00  0.00    +0.580 C 
ATOM     11  N   LIG    1        2.331  -2.636   1.063  0.00  0.00    -0.720 N 
ATOM     12  H   LIG    1        2.808  -1.861   1.398  0.00  0.00    +0.400 HD
ATOM     13  O   LIG    1        2.151  -4.849   0.974  0.00  0.00    -0.530 OA
BRANCH  11  14
ATOM     14  C   LIG    1        1.222  -2.462   0.121  0.00  0.00    +0.290 C 
ATOM     15  C   LIG    1        1.723  -2.692  -1.306  0.00  0.00    +0.040 C 
BRANCH  14  16
ATOM     16  C   LIG    1        0.674  -1.064   0.243  0.00  0.00    -0.090 A 
ATOM     17  C   LIG    1       -0.688  -0.845   0.161  0.00  0.00    +0.020 A 
ATOM     18  C   LIG    1       -1.190   0.438   0.272  0.00  0.00    +0.020 A 
ATOM     19  C   LIG    1       -0.330   1.503   0.466  0.00  0.00    +0.000 A 
ATOM     20  C   LIG    1        1.033   1.284   0.548  0.00  0.00    +0.010 A 
ATOM     21  C   LIG    1        1.535   0.001   0.437  0.00  0.00    +0.010 A 
ENDBRANCH  14  16
ENDBRANCH  11  14
ENDBRANCH   2  10
BRANCH   2  22
ATOM     22  C   LIG    1        4.460  -2.870   2.996  0.00  0.00    +0.570 C 
ATOM     23  N   LIG    1        4.212  -2.406   4.237  0.00  0.00    -0.710 N 
ATOM     24  H   LIG    1        3.608  -2.887   4.823  0.00  0.00    +0.400 HD
ATOM     25  O   LIG    1        5.288  -2.321   2.295  0.00  0.00    -0.530 OA
BRANCH  23  26
ATOM     26  C   LIG    1        4.856  -1.174   4.700  0.00  0.00    +0.280 C 
ATOM     27  C   LIG    1        3.994   0.029   4.311  0.00  0.00    +0.030 C 
BRANCH  26  28
ATOM     28  C   LIG    1        5.008  -1.219   6.198  0.00  0.00    -0.090 A 
ATOM     29  C   LIG    1        4.003  -1.758   6.979  0.00  0.00    +0.010 A 
ATOM     30  C   LIG    1        4.144  -1.803   8.354  0.00  0.00    +0.010 A 
ATOM     31  C   LIG    1        5.287  -1.302   8.948  0.00  0.00    +0.000 A 
ATOM     32  C   LIG    1        6.290  -0.759   8.167  0.00  0.00    +0.010 A 
ATOM     33  C   LIG    1        6.151  -0.717   6.793  0.00  0.00    +0.010 A 
ENDBRANCH  26  28
ENDBRANCH  23  26
ENDBRANCH   2  22
TORSDOF 7
