REMARK  Name = ZINCqH0000008UG0.1
REMARK                            x       y       z     vdW  Elec       q    Type
REMARK                         _______ _______ _______ _____ _____    ______ ____
ROOT
ATOM      1  N   LIG    1        1.408   2.039  -0.015  0.00  0.00    -0.520 NA
ATOM      2  C   LIG    1        0.073   1.466  -0.232  0.00  0.00    +0.190 C 
ATOM      3  C   LIG    1        0.171  -0.061  -0.256  0.00  0.00    +0.050 C 
ATOM      4  C   LIG    1        0.747  -0.552   1.075  0.00  0.00    +0.100 C 
ATOM      5  C   LIG    1        2.115   0.098   1.300  0.00  0.00    +0.060 C 
ATOM      6  C   LIG    1        1.962   1.620   1.279  0.00  0.00    +0.180 C 
ENDROOT
BRANCH   4   7
ATOM      7  C   LIG    1        0.901  -2.050   1.036  0.00  0.00    +0.260 A 
ATOM      8  N   LIG    1        1.635  -2.699   0.182  0.00  0.00    -0.470 NA
ATOM      9  C   LIG    1        1.539  -4.030   0.444  0.00  0.00    +0.020 A 
ATOM     10  C   LIG    1        2.097  -5.171  -0.134  0.00  0.00    +0.080 A 
ATOM     11  C   LIG    1        1.790  -6.414   0.373  0.00  0.00    +0.020 A 
ATOM     12  C   LIG    1        0.930  -6.538   1.454  0.00  0.00    +0.050 A 
ATOM     13  C   LIG    1        0.371  -5.419   2.036  0.00  0.00    +0.050 A 
ATOM     14  C   LIG    1        0.670  -4.160   1.538  0.00  0.00    +0.010 A 
ATOM     15  O   LIG    1        0.296  -2.906   1.874  0.00  0.00    -0.220 OA
ENDBRANCH   4   7
BRANCH   1  17
ATOM     16  C   LIG    1        0.861   3.901  -1.509  0.00  0.00    +0.070 C 
ATOM     17  C   LIG    1        1.375   3.504  -0.124  0.00  0.00    +0.120 C 
BRANCH  17  18
ATOM     18  C   LIG    1        2.765   4.053   0.072  0.00  0.00    +0.510 C 
ATOM     19  N   LIG    1        2.935   5.318   0.506  0.00  0.00    -0.610 N 
ATOM     20  C   LIG    1        4.274   5.776   0.800  0.00  0.00    +0.290 C 
ATOM     21  C   LIG    1        4.622   5.472   2.272  0.00  0.00    +0.000 C 
ATOM     22  C   LIG    1        3.861   6.355   3.169  0.00  0.00    +0.000 C 
ATOM     23  C   LIG    1        2.348   6.176   3.092  0.00  0.00    +0.000 C 
ATOM     24  C   LIG    1        1.802   7.011   1.960  0.00  0.00    +0.020 C 
ATOM     25  C   LIG    1        1.745   6.176   0.667  0.00  0.00    +0.250 C 
ATOM     26  O   LIG    1        3.731   3.357  -0.160  0.00  0.00    -0.510 OA
ENDBRANCH  17  18
ENDBRANCH   1  17
TORSDOF 3
