REMARK  Name = ZINCvU0000000I8h.0
REMARK                            x       y       z     vdW  Elec       q    Type
REMARK                         _______ _______ _______ _____ _____    ______ ____
ROOT
ATOM      1  N   LIG    1        6.287  -0.440  -0.060  0.00  0.00    -0.400 N 
ATOM      2  C   LIG    1        6.982   0.735  -0.061  0.00  0.00    +0.030 A 
ATOM      3  C   LIG    1        6.108   1.758  -0.053  0.00  0.00    -0.010 A 
ATOM      4  C   LIG    1        4.768   1.164  -0.037  0.00  0.00    -0.150 A 
ATOM      5  C   LIG    1        8.483   0.865  -0.074  0.00  0.00    +0.120 C 
ATOM      6  C   LIG    1        4.949  -0.190  -0.046  0.00  0.00    +0.100 A 
ATOM      7  C   LIG    1        3.857  -1.228  -0.042  0.00  0.00    +0.160 C 
ENDROOT
BRANCH   1  11
ATOM      8  C   LIG    1        8.009  -4.239  -0.096  0.00  0.00    +0.140 A 
ATOM      9  C   LIG    1        8.175  -3.393  -1.182  0.00  0.00    +0.000 A 
ATOM     10  C   LIG    1        7.605  -2.135  -1.171  0.00  0.00    +0.070 A 
ATOM     11  C   LIG    1        6.866  -1.718  -0.072  0.00  0.00    +0.070 A 
ATOM     12  C   LIG    1        6.705  -2.563   1.017  0.00  0.00    +0.060 A 
ATOM     13  C   LIG    1        7.270  -3.823   1.002  0.00  0.00    -0.060 A 
BRANCH   8  14
ATOM     14  O   LIG    1        8.570  -5.477  -0.108  0.00  0.00    -0.310 OA
BRANCH  14  16
ATOM     15  C   LIG    1        9.061  -7.642   0.849  0.00  0.00    +0.070 C 
ATOM     16  C   LIG    1        8.359  -6.296   1.044  0.00  0.00    +0.170 C 
ENDBRANCH  14  16
ENDBRANCH   8  14
ENDBRANCH   1  11
BRANCH   4  17
ATOM     17  C   LIG    1        3.481   1.883  -0.021  0.00  0.00    +0.280 C 
ATOM     18  N   LIG    1        2.366   1.219  -0.014  0.00  0.00    -0.250 NA
BRANCH  18  19
ATOM     19  N   LIG    1        1.143   1.903   0.001  0.00  0.00    -0.580 N 
ATOM     20  H   LIG    1        1.130   2.873   0.007  0.00  0.00    +0.380 HD
ATOM     21  C   LIG    1       -0.014   1.213   0.009  0.00  0.00    +0.610 C 
ATOM     22  O   LIG    1        0.002  -0.004   0.002  0.00  0.00    -0.500 OA
BRANCH  21  23
ATOM     23  C   LIG    1       -1.293   1.929   0.019  0.00  0.00    -0.270 A 
ATOM     24  C   LIG    1       -2.524   1.347   0.016  0.00  0.00    +0.110 A 
ATOM     25  C   LIG    1       -3.574   2.246   0.031  0.00  0.00    -0.120 A 
ATOM     26  C   LIG    1       -3.187   3.542   0.036  0.00  0.00    -0.180 A 
ATOM     27  C   LIG    1       -4.141   4.721   0.047  0.00  0.00    +0.110 C 
ATOM     28  C   LIG    1       -5.533   4.231  -0.361  0.00  0.00    +0.030 C 
ATOM     29  C   LIG    1       -5.896   3.003   0.479  0.00  0.00    -0.020 C 
ATOM     30  C   LIG    1       -7.374   2.664   0.280  0.00  0.00    +0.030 C 
ATOM     31  C   LIG    1       -5.036   1.818   0.036  0.00  0.00    +0.110 C 
ATOM     32  S   LIG    1       -1.484   3.674   0.028  0.00  0.00    +0.190 S 
ENDBRANCH  21  23
ENDBRANCH  18  19
ENDBRANCH   4  17
TORSDOF 6
