REMARK  Name = ZINCtV00001bB3Om.0
REMARK                            x       y       z     vdW  Elec       q    Type
REMARK                         _______ _______ _______ _____ _____    ______ ____
ROOT
ATOM      1  C   LIG    1        0.599   0.184  -0.569  0.00  0.00    -0.040 A 
ATOM      2  C   LIG    1       -0.348  -0.799  -0.883  0.00  0.00    +0.090 A 
ATOM      3  C   LIG    1        0.065  -2.042  -1.273  0.00  0.00    +0.110 A 
ATOM      4  C   LIG    1        1.424  -2.331  -1.358  0.00  0.00    -0.090 A 
ATOM      5  C   LIG    1        2.370  -1.356  -1.047  0.00  0.00    +0.020 A 
ATOM      6  C   LIG    1        1.966  -0.110  -0.660  0.00  0.00    +0.140 A 
ENDROOT
BRANCH   5   7
ATOM      7  N   LIG    1        3.813  -1.670  -1.140  0.00  0.00    +0.020 N 
ATOM      8  O   LIG    1        4.174  -2.780  -1.488  0.00  0.00    -0.130 OA
ATOM      9  O   LIG    1        4.640  -0.818  -0.868  0.00  0.00    -0.160 OA
ENDBRANCH   5   7
BRANCH   1  11
ATOM     10  C   LIG    1        0.685   2.088   0.961  0.00  0.00    -0.070 C 
ATOM     11  C   LIG    1        0.161   1.521  -0.150  0.00  0.00    +0.150 C 
BRANCH  10  13
ATOM     12  O   LIG    1        1.597   0.116   1.665  0.00  0.00    -0.420 OA
ATOM     13  C   LIG    1        1.483   1.315   1.842  0.00  0.00    +0.410 C 
BRANCH  13  14
ATOM     14  C   LIG    1        2.175   1.965   2.975  0.00  0.00    -0.140 A 
ATOM     15  C   LIG    1        2.050   3.341   3.176  0.00  0.00    +0.110 A 
ATOM     16  C   LIG    1        2.694   3.942   4.237  0.00  0.00    +0.050 A 
ATOM     17  C   LIG    1        3.473   3.186   5.098  0.00  0.00    +0.010 A 
ATOM     18  C   LIG    1        3.607   1.820   4.901  0.00  0.00    -0.050 A 
ATOM     19 CL   LIG    1        4.585   0.881   5.984  0.00  0.00    -0.020 Cl
ATOM     20 CL   LIG    1        4.285   3.951   6.428  0.00  0.00    -0.020 Cl
ATOM     21  C   LIG    1        2.962   1.206   3.845  0.00  0.00    +0.030 A 
ATOM     22 CL   LIG    1        3.130  -0.504   3.599  0.00  0.00    +0.000 Cl
ENDBRANCH  13  14
ENDBRANCH  10  13
ENDBRANCH   1  11
BRANCH   4  23
ATOM     23  S   LIG    1        1.951  -3.936  -1.862  0.00  0.00    +0.170 S 
BRANCH  23  24
ATOM     24  C   LIG    1        2.328  -3.617  -3.553  0.00  0.00    +0.290 A 
ATOM     25  N   LIG    1        2.057  -2.424  -4.063  0.00  0.00    -0.530 NA
ATOM     26  C   LIG    1        2.331  -2.151  -5.327  0.00  0.00    +0.330 A 
ATOM     27  C   LIG    1        2.900  -3.133  -6.123  0.00  0.00    -0.090 A 
ATOM     28  C   LIG    1        3.166  -4.371  -5.560  0.00  0.00    +0.350 A 
ATOM     29  N   LIG    1        2.871  -4.577  -4.287  0.00  0.00    -0.500 NA
ENDBRANCH  23  24
ENDBRANCH   4  23
TORSDOF 6
