REMARK  Name = ZINCrD0000073Nj2.0
REMARK                            x       y       z     vdW  Elec       q    Type
REMARK                         _______ _______ _______ _____ _____    ______ ____
ROOT
ATOM      1  C   LIG    1        1.256   1.698   0.004  0.00  0.00    +0.300 C 
ENDROOT
BRANCH   1   4
ATOM      2  N   LIG    1        3.671   1.165  -0.032  0.00  0.00    -0.680 N 
ATOM      3  H   LIG    1        3.851   2.115   0.050  0.00  0.00    +0.420 HD
ATOM      4  C   LIG    1        2.400   0.718  -0.032  0.00  0.00    +0.520 C 
ATOM      5  O   LIG    1        2.176  -0.474  -0.061  0.00  0.00    -0.500 OA
BRANCH   2  11
ATOM      6  C   LIG    1        5.950   0.679  -0.666  0.00  0.00    -0.690 A 
ATOM      7  C   LIG    1        6.995  -0.218  -0.781  0.00  0.00    +0.150 A 
ATOM      8  C   LIG    1        6.827  -1.532  -0.383  0.00  0.00    -0.010 A 
ATOM      9  C   LIG    1        5.615  -1.952   0.131  0.00  0.00    +0.100 A 
ATOM     10  C   LIG    1        4.568  -1.059   0.254  0.00  0.00    +0.010 A 
ATOM     11  C   LIG    1        4.731   0.259  -0.150  0.00  0.00    +0.240 A 
BRANCH   6  13
ATOM     12  C   LIG    1        5.030   2.549  -2.575  0.00  0.00    -0.250 C 
ATOM     13  S   LIG    1        6.165   2.352  -1.174  0.00  0.00    +2.500 S 
ATOM     14  O   LIG    1        7.515   2.415  -1.612  0.00  0.00    -0.930 OA
ATOM     15  O   LIG    1        5.719   3.116  -0.061  0.00  0.00    -0.940 OA
ENDBRANCH   6  13
ENDBRANCH   2  11
ENDBRANCH   1   4
BRANCH   1  16
ATOM     16  N   LIG    1       -0.014   0.968  -0.003  0.00  0.00    -0.730 N 
ATOM     17  H   LIG    1       -0.016  -0.002  -0.029  0.00  0.00    +0.420 HD
BRANCH  16  18
ATOM     18  C   LIG    1       -1.225   1.670   0.020  0.00  0.00    +0.220 A 
ATOM     19  C   LIG    1       -1.227   3.049   0.165  0.00  0.00    -0.050 A 
ATOM     20  C   LIG    1       -2.426   3.740   0.187  0.00  0.00    -0.000 A 
ATOM     21  C   LIG    1       -3.623   3.060   0.066  0.00  0.00    -0.010 A 
ATOM     22  C   LIG    1       -3.630   1.684  -0.078  0.00  0.00    +0.030 A 
ATOM     23 CL   LIG    1       -2.426   5.467   0.368  0.00  0.00    -0.070 Cl
ATOM     24  C   LIG    1       -2.434   0.984  -0.107  0.00  0.00    +0.040 A 
BRANCH  24  25
ATOM     25  N   LIG    1       -2.438  -0.408  -0.259  0.00  0.00    -0.470 N 
ATOM     26  C   LIG    1       -3.826  -0.933  -0.313  0.00  0.00    +0.180 C 
ATOM     27  C   LIG    1       -3.656  -2.317  -0.990  0.00  0.00    +0.040 C 
ATOM     28  C   LIG    1       -2.553  -2.054  -2.040  0.00  0.00    +0.020 C 
ATOM     29  C   LIG    1       -1.807  -0.804  -1.536  0.00  0.00    +0.170 C 
ENDBRANCH  24  25
ENDBRANCH  16  18
ENDBRANCH   1  16
TORSDOF 6
