REMARK  Name = ZINCqH0000034G5e.0
REMARK                            x       y       z     vdW  Elec       q    Type
REMARK                         _______ _______ _______ _____ _____    ______ ____
ROOT
ATOM      1  C   LIG    1        1.125   1.879   0.020  0.00  0.00    +0.010 A 
ATOM      2  N   LIG    1       -0.015   1.258   0.031  0.00  0.00    -0.240 NA
ATOM      3  N   LIG    1        0.002  -0.004   0.018  0.00  0.00    -0.200 NA
ATOM      4  C   LIG    1        1.183  -0.566  -0.006  0.00  0.00    -0.070 A 
ATOM      5  S   LIG    1        2.387   0.722  -0.011  0.00  0.00    +0.250 S 
ENDROOT
BRANCH   4   6
ATOM      6  C   LIG    1        1.456  -2.013  -0.025  0.00  0.00    +0.610 C 
ATOM      7  N   LIG    1        0.435  -2.893  -0.018  0.00  0.00    -0.640 N 
ATOM      8  H   LIG    1       -0.477  -2.575   0.067  0.00  0.00    +0.420 HD
ATOM      9  O   LIG    1        2.604  -2.414  -0.046  0.00  0.00    -0.500 OA
BRANCH   7  10
ATOM     10  C   LIG    1        0.692  -4.263  -0.134  0.00  0.00    +0.130 A 
ATOM     11  C   LIG    1       -0.195  -5.081  -0.822  0.00  0.00    +0.030 A 
ATOM     12  C   LIG    1        0.062  -6.433  -0.939  0.00  0.00    +0.010 A 
ATOM     13  C   LIG    1        1.198  -6.975  -0.362  0.00  0.00    +0.090 A 
ATOM     14  C   LIG    1        2.081  -6.162   0.329  0.00  0.00    +0.010 A 
ATOM     15  F   LIG    1        1.446  -8.298  -0.473  0.00  0.00    -0.140 F 
ATOM     16  C   LIG    1        1.830  -4.809   0.445  0.00  0.00    +0.060 A 
ENDBRANCH   7  10
ENDBRANCH   4   6
BRANCH   1  17
ATOM     17  C   LIG    1        1.308   3.375   0.031  0.00  0.00    +0.320 C 
BRANCH  17  19
ATOM     18  C   LIG    1        2.601   3.342   2.078  0.00  0.00    +0.200 C 
ATOM     19  N   LIG    1        1.389   3.848   1.420  0.00  0.00    -0.530 NA
BRANCH  19  20
ATOM     20  C   LIG    1        1.329   5.314   1.481  0.00  0.00    +0.250 C 
BRANCH  20  21
ATOM     21  C   LIG    1        1.168   5.751   2.914  0.00  0.00    -0.120 A 
ATOM     22  C   LIG    1        2.241   6.290   3.598  0.00  0.00    +0.050 A 
ATOM     23  C   LIG    1        2.093   6.691   4.913  0.00  0.00    +0.000 A 
ATOM     24  C   LIG    1        0.871   6.553   5.545  0.00  0.00    +0.040 A 
ATOM     25  C   LIG    1       -0.203   6.014   4.863  0.00  0.00    -0.020 A 
ATOM     26  C   LIG    1       -0.058   5.618   3.545  0.00  0.00    +0.130 A 
ATOM     27  F   LIG    1       -1.110   5.098   2.876  0.00  0.00    -0.130 F 
ENDBRANCH  20  21
ENDBRANCH  19  20
ENDBRANCH  17  19
ENDBRANCH   1  17
TORSDOF 6
