REMARK  Name = ZINCrH000004sFBH.0
REMARK                            x       y       z     vdW  Elec       q    Type
REMARK                         _______ _______ _______ _____ _____    ______ ____
ROOT
ATOM      1  N   LIG    1       -1.109   4.842  -0.255  0.00  0.00    -0.650 N 
ATOM      2  H   LIG    1       -2.046   4.966  -0.038  0.00  0.00    +0.410 HD
ATOM      3  C   LIG    1       -0.371   5.886  -0.679  0.00  0.00    +0.510 C 
ATOM      4  O   LIG    1        0.780   5.716  -1.025  0.00  0.00    -0.510 OA
ENDROOT
BRANCH   1  11
ATOM      5  C   LIG    1        0.956   4.069   1.946  0.00  0.00    +0.170 C 
ATOM      6  C   LIG    1        0.413   3.187   0.851  0.00  0.00    +0.100 A 
ATOM      7  N   LIG    1        0.729   1.933   0.650  0.00  0.00    -0.280 NA
ATOM      8  N   LIG    1        0.012   1.470  -0.461  0.00  0.00    -0.320 N 
ATOM      9  C   LIG    1       -0.748   2.498  -0.926  0.00  0.00    +0.100 A 
ATOM     10  C   LIG    1       -1.676   2.454  -2.112  0.00  0.00    +0.160 C 
ATOM     11  C   LIG    1       -0.520   3.570  -0.125  0.00  0.00    -0.010 A 
BRANCH   8  12
ATOM     12  C   LIG    1        0.072   0.177  -1.000  0.00  0.00    +0.150 A 
ATOM     13  C   LIG    1       -1.068  -0.405  -1.538  0.00  0.00    +0.000 A 
ATOM     14  C   LIG    1       -1.005  -1.676  -2.074  0.00  0.00    +0.030 A 
ATOM     15  C   LIG    1        0.190  -2.373  -2.065  0.00  0.00    +0.010 A 
ATOM     16  C   LIG    1        1.325  -1.798  -1.525  0.00  0.00    +0.030 A 
ATOM     17  C   LIG    1        1.270  -0.525  -0.993  0.00  0.00    +0.020 A 
ENDBRANCH   8  12
ENDBRANCH   1  11
BRANCH   3  18
ATOM     18  C   LIG    1       -0.974   7.266  -0.726  0.00  0.00    +0.090 C 
BRANCH  18  19
ATOM     19  C   LIG    1        0.067   8.261  -1.241  0.00  0.00    +0.270 C 
ATOM     20  O   LIG    1        0.374   7.985  -2.635  0.00  0.00    -0.300 OA
ATOM     21  C   LIG    1        0.057   9.061  -3.375  0.00  0.00    +0.520 C 
ATOM     22  C   LIG    1       -0.485  10.129  -2.514  0.00  0.00    -0.190 A 
ATOM     23  C   LIG    1       -0.952  11.415  -2.788  0.00  0.00    +0.110 A 
ATOM     24  C   LIG    1       -1.411  12.211  -1.758  0.00  0.00    +0.020 A 
ATOM     25  C   LIG    1       -1.411  11.740  -0.458  0.00  0.00    +0.060 A 
ATOM     26  C   LIG    1       -0.950  10.464  -0.178  0.00  0.00    +0.050 A 
ATOM     27  O   LIG    1        0.197   9.143  -4.579  0.00  0.00    -0.450 OA
ATOM     28  C   LIG    1       -0.489   9.662  -1.195  0.00  0.00    -0.100 A 
ENDBRANCH  18  19
ENDBRANCH   3  18
TORSDOF 4
