REMARK  Name = ZINCpe000000YTSC.0
REMARK                            x       y       z     vdW  Elec       q    Type
REMARK                         _______ _______ _______ _____ _____    ______ ____
ROOT
ATOM      1  N   LIG    1       -0.018   1.465   0.010  0.00  0.00    -0.520 NA
ATOM      2  C   LIG    1        1.348   2.008   0.000  0.00  0.00    +0.190 C 
ATOM      3  C   LIG    1        2.103   1.504   1.232  0.00  0.00    +0.190 C 
ATOM      4  N   LIG    1        2.123   0.034   1.224  0.00  0.00    -0.540 NA
ATOM      5  C   LIG    1        0.757  -0.508   1.234  0.00  0.00    +0.190 C 
ATOM      6  C   LIG    1        0.002  -0.004   0.002  0.00  0.00    +0.190 C 
ENDROOT
BRANCH   1   7
ATOM      7  C   LIG    1       -0.800   1.987  -1.118  0.00  0.00    +0.220 C 
BRANCH   7   9
ATOM      8  O   LIG    1       -0.545   4.036   0.025  0.00  0.00    -0.510 OA
ATOM      9  C   LIG    1       -1.005   3.470  -0.944  0.00  0.00    +0.520 C 
ATOM     10  N   LIG    1       -1.700   4.167  -1.865  0.00  0.00    -0.730 N 
ATOM     11  H   LIG    1       -2.068   3.714  -2.640  0.00  0.00    +0.400 HD
BRANCH  10  12
ATOM     12  C   LIG    1       -1.900   5.609  -1.695  0.00  0.00    +0.270 C 
ATOM     13  C   LIG    1       -3.166   6.048  -2.451  0.00  0.00    +0.070 C 
ATOM     14  C   LIG    1       -3.133   7.597  -2.510  0.00  0.00    -0.310 C 
ATOM     15  S   LIG    1       -1.377   7.943  -2.907  0.00  0.00    +2.390 S 
ATOM     16  O   LIG    1       -0.916   9.020  -2.104  0.00  0.00    -0.930 OA
ATOM     17  O   LIG    1       -1.215   7.992  -4.318  0.00  0.00    -0.930 OA
ATOM     18  C   LIG    1       -0.691   6.371  -2.273  0.00  0.00    -0.320 C 
ENDBRANCH  10  12
ENDBRANCH   7   9
ENDBRANCH   1   7
BRANCH   4  19
ATOM     19  C   LIG    1        2.905  -0.488   2.352  0.00  0.00    +0.230 C 
BRANCH  19  20
ATOM     20  C   LIG    1        4.354  -0.112   2.176  0.00  0.00    -0.060 A 
ATOM     21  C   LIG    1        5.210  -0.959   1.498  0.00  0.00    +0.040 A 
ATOM     22  C   LIG    1        6.538  -0.612   1.331  0.00  0.00    +0.040 A 
ATOM     23  C   LIG    1        7.012   0.578   1.853  0.00  0.00    -0.090 A 
ATOM     24  C   LIG    1        6.156   1.423   2.536  0.00  0.00    +0.040 A 
ATOM     25 BR   LIG    1        8.830   1.049   1.632  0.00  0.00    -0.050 Br
ATOM     26  C   LIG    1        4.828   1.077   2.698  0.00  0.00    +0.020 A 
ENDBRANCH  19  20
ENDBRANCH   4  19
TORSDOF 5
