REMARK  Name = ZINCrD000006VnPm.0
REMARK                            x       y       z     vdW  Elec       q    Type
REMARK                         _______ _______ _______ _____ _____    ______ ____
ROOT
ATOM      1  C   LIG    1       -0.765   1.598  -3.711  0.00  0.00    +0.520 C 
ATOM      2  N   LIG    1       -0.312   1.286  -4.941  0.00  0.00    -0.620 N 
ATOM      3  C   LIG    1        0.895   0.464  -5.115  0.00  0.00    +0.290 C 
ATOM      4  C   LIG    1        0.560  -0.688  -6.075  0.00  0.00    +0.200 C 
ATOM      5  N   LIG    1        0.001  -0.137  -7.317  0.00  0.00    -0.490 N 
ATOM      6  C   LIG    1       -1.265   0.564  -7.066  0.00  0.00    +0.190 C 
ATOM      7  C   LIG    1       -1.008   1.762  -6.146  0.00  0.00    +0.300 C 
ATOM      8  O   LIG    1       -1.760   2.282  -3.587  0.00  0.00    -0.530 OA
ENDROOT
BRANCH   5   9
ATOM      9  C   LIG    1       -0.162  -1.135  -8.280  0.00  0.00    +0.170 A 
ATOM     10  C   LIG    1       -1.408  -1.353  -8.853  0.00  0.00    -0.020 A 
ATOM     11  C   LIG    1       -1.565  -2.338  -9.809  0.00  0.00    +0.140 A 
ATOM     12  C   LIG    1       -0.485  -3.115 -10.186  0.00  0.00    -0.070 A 
ATOM     13  C   LIG    1        0.756  -2.905  -9.613  0.00  0.00    +0.130 A 
ATOM     14  C   LIG    1        0.921  -1.918  -8.661  0.00  0.00    +0.010 A 
BRANCH  12  15
ATOM     15  N   LIG    1       -0.658  -4.173 -11.206  0.00  0.00    +0.030 N 
ATOM     16  O   LIG    1       -1.750  -4.360 -11.711  0.00  0.00    -0.160 OA
ATOM     17  O   LIG    1        0.292  -4.859 -11.539  0.00  0.00    -0.160 OA
ENDBRANCH  12  15
ENDBRANCH   5   9
BRANCH   1  18
ATOM     18  C   LIG    1       -0.037   1.099  -2.490  0.00  0.00    +0.060 C 
BRANCH  18  19
ATOM     19  C   LIG    1       -0.753   1.593  -1.232  0.00  0.00    +0.070 C 
BRANCH  19  20
ATOM     20  C   LIG    1       -0.013   1.086   0.008  0.00  0.00    +0.030 C 
BRANCH  20  22
ATOM     21  O   LIG    1       -1.716   2.257   1.150  0.00  0.00    -0.440 OA
ATOM     22  C   LIG    1       -0.718   1.572   1.248  0.00  0.00    +0.420 C 
BRANCH  22  23
ATOM     23  C   LIG    1       -0.219   1.230   2.524  0.00  0.00    -0.310 A 
ATOM     24  C   LIG    1       -0.769   1.610   3.722  0.00  0.00    +0.110 A 
ATOM     25  C   LIG    1       -0.078   1.137   4.809  0.00  0.00    -0.010 A 
ATOM     26  C   LIG    1        1.000   0.396   4.520  0.00  0.00    -0.050 A 
ATOM     27  S   LIG    1        1.204   0.244   2.833  0.00  0.00    +0.220 S 
ENDBRANCH  22  23
ENDBRANCH  20  22
ENDBRANCH  19  20
ENDBRANCH  18  19
ENDBRANCH   1  18
TORSDOF 7
