REMARK  Name = ZINCwl0000000fnl.1
REMARK                            x       y       z     vdW  Elec       q    Type
REMARK                         _______ _______ _______ _____ _____    ______ ____
ROOT
ATOM      1  C   LIG    1       -2.607   3.273   3.174  0.00  0.00    +0.380 A 
ATOM      2  N   LIG    1       -3.468   4.278   3.188  0.00  0.00    -0.540 NA
ATOM      3  C   LIG    1       -3.772   4.918   4.307  0.00  0.00    +0.340 A 
ATOM      4  C   LIG    1       -3.186   4.563   5.521  0.00  0.00    -0.040 A 
ATOM      5  C   LIG    1       -2.278   3.525   5.557  0.00  0.00    +0.170 A 
ATOM      6  C   LIG    1       -1.976   2.859   4.360  0.00  0.00    -0.080 A 
ENDROOT
BRANCH   3   7
ATOM      7  N   LIG    1       -4.684   5.961   4.270  0.00  0.00    -0.480 N 
ATOM      8  C   LIG    1       -5.796   5.721   5.201  0.00  0.00    +0.250 C 
ATOM      9  C   LIG    1       -6.747   6.920   5.174  0.00  0.00    +0.270 C 
ATOM     10  N   LIG    1       -7.260   7.107   3.810  0.00  0.00    -0.380 N 
ATOM     11  C   LIG    1       -6.140   7.370   2.897  0.00  0.00    +0.180 C 
ATOM     12  H   LIG    1       -7.745   6.274   3.516  0.00  0.00    +0.420 HD
ATOM     13  C   LIG    1       -5.184   6.175   2.905  0.00  0.00    +0.260 C 
BRANCH  11  14
ATOM     14  C   LIG    1       -6.677   7.583   1.480  0.00  0.00    +0.040 C 
ATOM     15  C   LIG    1       -5.519   7.934   0.543  0.00  0.00    +0.060 C 
ENDBRANCH  11  14
BRANCH  10  16
ATOM     16  C   LIG    1       -8.187   8.247   3.788  0.00  0.00    +0.230 C 
BRANCH  16  17
ATOM     17  C   LIG    1       -9.418   7.919   4.635  0.00  0.00    +0.200 C 
ATOM     18  C   LIG    1      -10.383   9.106   4.612  0.00  0.00    +0.050 C 
BRANCH  17  19
ATOM     19  O   LIG    1      -10.069   6.765   4.102  0.00  0.00    -0.560 OA
ATOM     20  H   LIG    1      -10.371   6.870   3.189  0.00  0.00    +0.390 HD
ENDBRANCH  17  19
ENDBRANCH  16  17
ENDBRANCH  10  16
ENDBRANCH   3   7
BRANCH   1  23
ATOM     21  C   LIG    1       -2.753   0.703   0.534  0.00  0.00    +0.170 C 
ATOM     22  C   LIG    1       -3.153   1.428   1.821  0.00  0.00    +0.200 C 
ATOM     23  N   LIG    1       -2.322   2.629   1.983  0.00  0.00    -0.480 N 
ATOM     24  C   LIG    1       -2.487   3.538   0.840  0.00  0.00    +0.210 C 
ATOM     25  C   LIG    1       -2.086   2.812  -0.447  0.00  0.00    +0.190 C 
ATOM     26  N   LIG    1       -2.918   1.612  -0.609  0.00  0.00    -0.530 NA
BRANCH  21  28
ATOM     27  C   LIG    1       -3.391  -1.522   1.476  0.00  0.00    +0.020 C 
ATOM     28  C   LIG    1       -3.644  -0.526   0.342  0.00  0.00    +0.020 C 
ENDBRANCH  21  28
BRANCH  26  29
ATOM     29  C   LIG    1       -2.615   0.928  -1.873  0.00  0.00    +0.200 C 
BRANCH  29  30
ATOM     30  C   LIG    1       -1.163   0.445  -1.857  0.00  0.00    +0.160 C 
ATOM     31  C   LIG    1       -0.793  -0.104  -3.236  0.00  0.00    +0.010 C 
BRANCH  30  32
ATOM     32  O   LIG    1       -1.014  -0.585  -0.878  0.00  0.00    -0.550 OA
ATOM     33  H   LIG    1       -1.501  -1.395  -1.082  0.00  0.00    +0.370 HD
ENDBRANCH  30  32
ENDBRANCH  29  30
ENDBRANCH  26  29
ENDBRANCH   1  23
BRANCH   6  34
ATOM     34  C   LIG    1       -1.041   1.775   4.346  0.00  0.00    +0.250 C 
ATOM     35  N   LIG    1       -0.298   0.915   4.336  0.00  0.00    -0.380 NA
ENDBRANCH   6  34
TORSDOF 11
