REMARK  Name = ZINCwl0000000fnl.2
REMARK                            x       y       z     vdW  Elec       q    Type
REMARK                         _______ _______ _______ _____ _____    ______ ____
ROOT
ATOM      1  C   LIG    1       -0.138  -0.278  -1.426  0.00  0.00    +0.370 A 
ATOM      2  N   LIG    1       -1.166  -0.903  -1.976  0.00  0.00    -0.480 NA
ATOM      3  C   LIG    1       -2.398  -0.759  -1.512  0.00  0.00    +0.330 A 
ATOM      4  C   LIG    1       -2.664   0.072  -0.425  0.00  0.00    -0.070 A 
ATOM      5  C   LIG    1       -1.626   0.750   0.180  0.00  0.00    +0.150 A 
ATOM      6  C   LIG    1       -0.330   0.577  -0.327  0.00  0.00    -0.040 A 
ENDROOT
BRANCH   3   7
ATOM      7  N   LIG    1       -3.440  -1.440  -2.120  0.00  0.00    -0.490 N 
ATOM      8  C   LIG    1       -4.490  -0.511  -2.563  0.00  0.00    +0.230 C 
ATOM      9  C   LIG    1       -5.591  -1.295  -3.280  0.00  0.00    +0.290 C 
ATOM     10  N   LIG    1       -6.154  -2.297  -2.365  0.00  0.00    -0.380 N 
ATOM     11  C   LIG    1       -5.100  -3.232  -1.950  0.00  0.00    +0.180 C 
ATOM     12  H   LIG    1       -6.889  -2.805  -2.834  0.00  0.00    +0.430 HD
ATOM     13  C   LIG    1       -3.994  -2.464  -1.222  0.00  0.00    +0.240 C 
BRANCH  11  14
ATOM     14  C   LIG    1       -5.692  -4.285  -1.012  0.00  0.00    +0.050 C 
ATOM     15  C   LIG    1       -6.709  -5.135  -1.776  0.00  0.00    +0.050 C 
ENDBRANCH  11  14
BRANCH  10  16
ATOM     16  C   LIG    1       -6.704  -1.624  -1.181  0.00  0.00    +0.210 C 
BRANCH  16  17
ATOM     17  C   LIG    1       -7.908  -0.773  -1.591  0.00  0.00    +0.210 C 
ATOM     18  C   LIG    1       -8.622  -0.262  -0.338  0.00  0.00    +0.050 C 
BRANCH  17  19
ATOM     19  O   LIG    1       -7.462   0.338  -2.371  0.00  0.00    -0.550 OA
ATOM     20  H   LIG    1       -6.845   0.921  -1.909  0.00  0.00    +0.390 HD
ENDBRANCH  17  19
ENDBRANCH  16  17
ENDBRANCH  10  16
ENDBRANCH   3   7
BRANCH   1  23
ATOM     21  C   LIG    1        3.044  -1.969  -2.208  0.00  0.00    +0.130 C 
ATOM     22  C   LIG    1        1.608  -1.831  -1.696  0.00  0.00    +0.210 C 
ATOM     23  N   LIG    1        1.134  -0.461  -1.940  0.00  0.00    -0.500 N 
ATOM     24  C   LIG    1        1.174  -0.141  -3.374  0.00  0.00    +0.220 C 
ATOM     25  C   LIG    1        2.610  -0.279  -3.885  0.00  0.00    +0.200 C 
ATOM     26  N   LIG    1        3.084  -1.649  -3.641  0.00  0.00    -0.530 NA
BRANCH  21  28
ATOM     27  C   LIG    1        3.436  -3.755  -0.505  0.00  0.00    +0.020 C 
ATOM     28  C   LIG    1        3.526  -3.405  -1.992  0.00  0.00    +0.020 C 
ENDBRANCH  21  28
BRANCH  26  29
ATOM     29  C   LIG    1        4.434  -1.843  -4.187  0.00  0.00    +0.150 C 
BRANCH  29  30
ATOM     30  C   LIG    1        4.359  -1.930  -5.713  0.00  0.00    +0.220 C 
ATOM     31  C   LIG    1        5.732  -2.312  -6.269  0.00  0.00    +0.010 C 
BRANCH  30  32
ATOM     32  O   LIG    1        3.966  -0.662  -6.243  0.00  0.00    -0.560 OA
ATOM     33  H   LIG    1        4.573   0.059  -6.028  0.00  0.00    +0.370 HD
ENDBRANCH  30  32
ENDBRANCH  29  30
ENDBRANCH  26  29
ENDBRANCH   1  23
BRANCH   6  34
ATOM     34  C   LIG    1        0.781   1.259   0.267  0.00  0.00    +0.250 C 
ATOM     35  N   LIG    1        1.661   1.800   0.738  0.00  0.00    -0.380 NA
ENDBRANCH   6  34
TORSDOF 11
