REMARK  Name = ZINCnE000001Q0MM.1
REMARK                            x       y       z     vdW  Elec       q    Type
REMARK                         _______ _______ _______ _____ _____    ______ ____
ROOT
ATOM      1  N   LIG    1       -4.807   1.800   0.057  0.00  0.00    -0.670 NA
ATOM      2  C   LIG    1       -5.746   2.767   0.070  0.00  0.00    +0.660 C 
ATOM      3  N   LIG    1       -7.053   2.437   0.081  0.00  0.00    -0.730 N 
ATOM      4  H   LIG    1       -7.317   1.504   0.079  0.00  0.00    +0.400 HD
ATOM      5  O   LIG    1       -5.414   3.936   0.073  0.00  0.00    -0.640 OA
ENDROOT
BRANCH   1  12
ATOM      6  C   LIG    1        2.410   3.961   0.000  0.00  0.00    +0.120 C 
ATOM      7  C   LIG    1        1.122   3.178   0.008  0.00  0.00    +0.080 A 
ATOM      8  C   LIG    1        1.164   1.794   0.001  0.00  0.00    -0.030 A 
ATOM      9  C   LIG    1       -0.013   1.076   0.008  0.00  0.00    +0.050 A 
ATOM     10  C   LIG    1       -1.237   1.778   0.018  0.00  0.00    +0.100 A 
ATOM     11  N   LIG    1       -2.493   1.293   0.033  0.00  0.00    -0.570 NA
ATOM     12  C   LIG    1       -3.464   2.139   0.046  0.00  0.00    +0.430 A 
ATOM     13  S   LIG    1       -2.845   3.784   0.049  0.00  0.00    +0.020 S 
ATOM     14  C   LIG    1       -1.190   3.177   0.030  0.00  0.00    -0.040 A 
ATOM     15  N   LIG    1       -0.026   3.818   0.022  0.00  0.00    -0.440 NA
ENDBRANCH   1  12
BRANCH   3  16
ATOM     16  C   LIG    1       -8.073   3.488   0.095  0.00  0.00    +0.270 C 
BRANCH  16  17
ATOM     17  C   LIG    1       -9.463   2.849   0.105  0.00  0.00    +0.130 C 
BRANCH  17  18
ATOM     18  C   LIG    1      -10.513   3.930   0.120  0.00  0.00    +0.060 A 
ATOM     19  N   LIG    1      -11.037   4.465  -0.931  0.00  0.00    -0.470 NA
ATOM     20  C   LIG    1      -11.946   5.400  -0.739  0.00  0.00    +0.060 A 
ATOM     21  C   LIG    1      -12.202   5.669   0.544  0.00  0.00    -0.240 A 
ATOM     22  C   LIG    1      -13.189   6.686   1.057  0.00  0.00    +0.150 C 
ATOM     23  C   LIG    1      -12.639   6.108  -1.875  0.00  0.00    +0.140 C 
ATOM     24  S   LIG    1      -11.187   4.620   1.532  0.00  0.00    +0.120 S 
ENDBRANCH  17  18
ENDBRANCH  16  17
ENDBRANCH   3  16
TORSDOF 4
