REMARK  Name = ZINCrg000000rUuI.0
REMARK                            x       y       z     vdW  Elec       q    Type
REMARK                         _______ _______ _______ _____ _____    ______ ____
ROOT
ATOM      1  C   LIG    1       -2.386   2.064   9.495  0.00  0.00    +0.120 C 
ATOM      2  C   LIG    1       -2.175   2.066   8.003  0.00  0.00    -0.110 A 
ATOM      3  C   LIG    1       -2.637   2.976   7.130  0.00  0.00    +0.050 A 
ATOM      4  N   LIG    1       -2.232   2.636   5.865  0.00  0.00    -0.390 N 
ATOM      5  C   LIG    1       -1.505   1.487   5.900  0.00  0.00    +0.310 A 
ATOM      6  C   LIG    1       -3.465   4.184   7.486  0.00  0.00    +0.150 C 
ATOM      7  C   LIG    1       -1.426   1.073   7.223  0.00  0.00    -0.090 A 
ENDROOT
BRANCH   4   8
ATOM      8  C   LIG    1       -2.528   3.365   4.704  0.00  0.00    +0.090 A 
ATOM      9  C   LIG    1       -1.984   4.629   4.519  0.00  0.00    +0.070 A 
ATOM     10  C   LIG    1       -2.272   5.343   3.373  0.00  0.00    +0.010 A 
ATOM     11  C   LIG    1       -3.111   4.803   2.413  0.00  0.00    +0.120 A 
ATOM     12  C   LIG    1       -3.659   3.545   2.597  0.00  0.00    +0.010 A 
ATOM     13  F   LIG    1       -3.396   5.506   1.294  0.00  0.00    -0.130 F 
ATOM     14  C   LIG    1       -3.369   2.826   3.740  0.00  0.00    +0.070 A 
ENDBRANCH   4   8
BRANCH   5  15
ATOM     15  N   LIG    1       -0.937   0.846   4.809  0.00  0.00    -0.670 N 
ATOM     16  H   LIG    1       -0.093   1.160   4.447  0.00  0.00    +0.420 HD
ATOM     17  C   LIG    1       -1.558  -0.212   4.251  0.00  0.00    +0.520 C 
ATOM     18  O   LIG    1       -2.575  -0.649   4.746  0.00  0.00    -0.490 OA
BRANCH  17  19
ATOM     19  C   LIG    1       -0.989  -0.852   3.011  0.00  0.00    +0.220 C 
BRANCH  19  20
ATOM     20  N   LIG    1       -1.842  -1.976   2.604  0.00  0.00    -0.480 NA
ATOM     21  C   LIG    1       -1.650  -3.148   3.500  0.00  0.00    +0.160 C 
ATOM     22  C   LIG    1       -2.148  -4.355   2.677  0.00  0.00    +0.190 C 
ATOM     23  C   LIG    1       -2.020  -3.915   1.204  0.00  0.00    +0.190 C 
ATOM     24  C   LIG    1       -1.454  -2.480   1.261  0.00  0.00    +0.150 C 
BRANCH  23  25
ATOM     25  O   LIG    1       -1.117  -4.776   0.506  0.00  0.00    -0.540 OA
ATOM     26  H   LIG    1       -0.963  -4.521  -0.414  0.00  0.00    +0.380 HD
ENDBRANCH  23  25
BRANCH  22  27
ATOM     27  O   LIG    1       -1.329  -5.499   2.927  0.00  0.00    -0.540 OA
ATOM     28  H   LIG    1       -1.370  -5.820   3.838  0.00  0.00    +0.380 HD
ENDBRANCH  22  27
ENDBRANCH  19  20
ENDBRANCH  17  19
ENDBRANCH   5  15
BRANCH   7  29
ATOM     29  C   LIG    1       -0.751  -0.086   7.724  0.00  0.00    +0.290 C 
ATOM     30  N   LIG    1       -0.215  -1.005   8.121  0.00  0.00    -0.430 NA
ENDBRANCH   7  29
TORSDOF 7
