REMARK  Name = ZINCrH000004qXDF.0
REMARK                            x       y       z     vdW  Elec       q    Type
REMARK                         _______ _______ _______ _____ _____    ______ ____
ROOT
ATOM      1  N   LIG    1       -0.739   0.834  -8.100  0.00  0.00    -0.640 N 
ATOM      2  H   LIG    1       -0.101   1.197  -8.733  0.00  0.00    +0.420 HD
ATOM      3  C   LIG    1       -0.449   0.822  -6.783  0.00  0.00    +0.510 C 
ATOM      4  O   LIG    1       -1.247   0.368  -5.991  0.00  0.00    -0.440 OA
ENDROOT
BRANCH   1   8
ATOM      5  C   LIG    1       -3.967  -0.472  -9.716  0.00  0.00    -0.200 A 
ATOM      6  C   LIG    1       -3.962  -0.618  -8.374  0.00  0.00    +0.260 A 
ATOM      7  N   LIG    1       -2.868  -0.185  -7.786  0.00  0.00    -0.470 NA
ATOM      8  C   LIG    1       -1.951   0.327  -8.548  0.00  0.00    +0.270 A 
ATOM      9  S   LIG    1       -2.444   0.280 -10.184  0.00  0.00    +0.140 S 
BRANCH   5  14
ATOM     10  C   LIG    1       -8.209  -2.033 -13.277  0.00  0.00    +0.090 C 
ATOM     11  C   LIG    1       -7.098  -1.624 -12.344  0.00  0.00    -0.080 A 
ATOM     12  C   LIG    1       -5.952  -1.040 -12.853  0.00  0.00    +0.020 A 
ATOM     13  C   LIG    1       -4.931  -0.663 -12.005  0.00  0.00    +0.010 A 
ATOM     14  C   LIG    1       -5.056  -0.873 -10.630  0.00  0.00    -0.010 A 
ATOM     15  C   LIG    1       -6.213  -1.468 -10.124  0.00  0.00    +0.030 A 
ATOM     16  C   LIG    1       -7.229  -1.834 -10.983  0.00  0.00    +0.020 A 
ENDBRANCH   5  14
ENDBRANCH   1   8
BRANCH   3  17
ATOM     17  C   LIG    1        0.866   1.373  -6.296  0.00  0.00    +0.180 C 
BRANCH  17  18
ATOM     18  C   LIG    1        0.941   1.242  -4.797  0.00  0.00    +0.090 A 
ATOM     19  C   LIG    1        1.944   0.618  -4.177  0.00  0.00    -0.080 A 
ATOM     20  S   LIG    1        1.649   0.698  -2.442  0.00  0.00    +0.140 S 
ATOM     21  C   LIG    1        0.197   1.558  -2.717  0.00  0.00    +0.010 A 
ATOM     22  N   LIG    1        0.019   1.736  -3.990  0.00  0.00    -0.420 NA
BRANCH  21  23
ATOM     23  S   LIG    1       -0.894   2.125  -1.456  0.00  0.00    +0.100 S 
BRANCH  23  24
ATOM     24  C   LIG    1       -0.019   1.526   0.010  0.00  0.00    -0.030 C 
ATOM     25  C   LIG    1        0.002  -0.004   0.002  0.00  0.00    +0.100 C 
BRANCH  24  26
ATOM     26  C   LIG    1       -0.724   2.012   1.250  0.00  0.00    +0.540 C 
ATOM     27  O   LIG    1       -1.905   2.284   1.209  0.00  0.00    -0.520 OA
ATOM     28  N   LIG    1       -0.042   2.143   2.405  0.00  0.00    -0.840 N 
ATOM     29  H   LIG    1       -0.496   2.456   3.204  0.00  0.00    +0.410 HD
ATOM     30  H   LIG    1        0.902   1.925   2.439  0.00  0.00    +0.400 HD
ENDBRANCH  24  26
ENDBRANCH  23  24
ENDBRANCH  21  23
ENDBRANCH  17  18
ENDBRANCH   3  17
TORSDOF 7
