REMARK  Name = ZINCvU0000000Jtc.0
REMARK                            x       y       z     vdW  Elec       q    Type
REMARK                         _______ _______ _______ _____ _____    ______ ____
ROOT
ATOM      1  N   LIG    1        4.005   0.560  -1.415  0.00  0.00    -0.610 N 
ATOM      2  C   LIG    1        4.186  -0.610  -2.059  0.00  0.00    +0.520 C 
ATOM      3  O   LIG    1        3.957  -1.657  -1.490  0.00  0.00    -0.480 OA
ENDROOT
BRANCH   1   4
ATOM      4  C   LIG    1        4.283   1.824  -2.102  0.00  0.00    +0.270 C 
BRANCH   4   6
ATOM      5  C   LIG    1        6.033   3.538  -2.591  0.00  0.00    +0.030 C 
ATOM      6  C   LIG    1        5.743   2.218  -1.874  0.00  0.00    +0.000 C 
ENDBRANCH   4   6
ENDBRANCH   1   4
BRANCH   2   7
ATOM      7  C   LIG    1        4.674  -0.619  -3.485  0.00  0.00    +0.230 C 
BRANCH   7   8
ATOM      8  O   LIG    1        4.786  -1.968  -3.942  0.00  0.00    -0.290 OA
BRANCH   8   9
ATOM      9  C   LIG    1        5.216  -2.153  -5.218  0.00  0.00    +0.130 A 
ATOM     10  C   LIG    1        5.342  -3.421  -5.709  0.00  0.00    -0.010 A 
ATOM     11  C   LIG    1        5.787  -3.615  -7.027  0.00  0.00    -0.010 A 
ATOM     12  C   LIG    1        5.928  -4.904  -7.567  0.00  0.00    +0.020 A 
ATOM     13  C   LIG    1        6.361  -5.054  -8.849  0.00  0.00    +0.020 A 
ATOM     14  C   LIG    1        6.668  -3.946  -9.636  0.00  0.00    -0.010 A 
ATOM     15  C   LIG    1        6.544  -2.682  -9.147  0.00  0.00    +0.030 A 
ATOM     16  C   LIG    1        6.099  -2.487  -7.829  0.00  0.00    -0.080 A 
ATOM     17  C   LIG    1        5.957  -1.196  -7.290  0.00  0.00    +0.070 A 
ATOM     18  C   LIG    1        5.519  -1.043  -6.012  0.00  0.00    -0.060 A 
ENDBRANCH   8   9
ENDBRANCH   7   8
ENDBRANCH   2   7
BRANCH   1  19
ATOM     19  C   LIG    1        3.531   0.568  -0.029  0.00  0.00    +0.480 C 
BRANCH  19  20
ATOM     20  C   LIG    1        2.025   0.616  -0.014  0.00  0.00    +0.140 A 
ATOM     21  N   LIG    1        1.222  -0.412  -0.012  0.00  0.00    -0.250 NA
ATOM     22  N   LIG    1        0.002  -0.004   0.002  0.00  0.00    -0.270 NA
ATOM     23  C   LIG    1       -0.016   1.308   0.009  0.00  0.00    +0.210 A 
ATOM     24  O   LIG    1        1.266   1.725  -0.001  0.00  0.00    -0.200 OA
BRANCH  23  25
ATOM     25  C   LIG    1       -1.218   2.169   0.020  0.00  0.00    -0.020 A 
ATOM     26  C   LIG    1       -2.490   1.596   0.024  0.00  0.00    +0.090 A 
ATOM     27  C   LIG    1       -3.608   2.405   0.034  0.00  0.00    +0.030 A 
ATOM     28  C   LIG    1       -3.470   3.781   0.039  0.00  0.00    +0.060 A 
ATOM     29  C   LIG    1       -2.212   4.357   0.035  0.00  0.00    +0.040 A 
ATOM     30  C   LIG    1       -1.085   3.559   0.032  0.00  0.00    -0.010 A 
ATOM     31 CL   LIG    1        0.493   4.283   0.035  0.00  0.00    -0.040 Cl
ENDBRANCH  23  25
ENDBRANCH  19  20
ENDBRANCH   1  19
TORSDOF 8
