REMARK  Name = ZINCvU0000000E4X.0
REMARK                            x       y       z     vdW  Elec       q    Type
REMARK                         _______ _______ _______ _____ _____    ______ ____
ROOT
ATOM      1  N   LIG    1        0.668   0.547   2.755  0.00  0.00    -0.680 N 
ATOM      2  H   LIG    1        1.130   0.100   2.029  0.00  0.00    +0.410 HD
ATOM      3  C   LIG    1       -0.388   1.343   2.494  0.00  0.00    +0.720 C 
ATOM      4  N   LIG    1       -0.754   1.579   1.219  0.00  0.00    -0.630 N 
ATOM      5  C   LIG    1       -0.095   1.035   0.023  0.00  0.00    +0.230 C 
ATOM      6  C   LIG    1       -0.870   1.552  -1.207  0.00  0.00    +0.040 C 
ATOM      7  C   LIG    1       -2.264   1.898  -0.619  0.00  0.00    -0.010 C 
ATOM      8  C   LIG    1       -1.886   2.425   0.787  0.00  0.00    +0.280 C 
ATOM      9  O   LIG    1       -1.009   1.848   3.409  0.00  0.00    -0.570 OA
ENDROOT
BRANCH   1  13
ATOM     10  C   LIG    1        1.949   0.006   6.683  0.00  0.00    -0.100 A 
ATOM     11  C   LIG    1        0.601   0.147   6.410  0.00  0.00    +0.050 A 
ATOM     12  C   LIG    1        0.173   0.327   5.109  0.00  0.00    +0.030 A 
ATOM     13  C   LIG    1        1.098   0.365   4.074  0.00  0.00    +0.170 A 
ATOM     14  C   LIG    1        2.451   0.218   4.351  0.00  0.00    -0.010 A 
ATOM     15  C   LIG    1        2.873   0.044   5.655  0.00  0.00    +0.030 A 
BRANCH  10  16
ATOM     16  C   LIG    1        2.412  -0.190   8.103  0.00  0.00    +0.230 C 
BRANCH  16  17
ATOM     17  C   LIG    1        2.610  -1.659   8.370  0.00  0.00    -0.080 A 
ATOM     18  C   LIG    1        3.444  -2.403   7.556  0.00  0.00    +0.020 A 
ATOM     19  C   LIG    1        3.629  -3.751   7.802  0.00  0.00    +0.000 A 
ATOM     20  C   LIG    1        2.973  -4.356   8.858  0.00  0.00    +0.010 A 
ATOM     21  C   LIG    1        2.135  -3.614   9.668  0.00  0.00    +0.010 A 
ATOM     22  C   LIG    1        1.953  -2.265   9.424  0.00  0.00    +0.030 A 
ENDBRANCH  16  17
BRANCH  16  24
ATOM     23  N   LIG    1        4.667   1.071   8.463  0.00  0.00    -0.420 NA
ATOM     24  C   LIG    1        3.685   0.522   8.307  0.00  0.00    +0.210 C 
ENDBRANCH  16  24
ENDBRANCH  10  16
ENDBRANCH   1  13
BRANCH   7  25
ATOM     25  C   LIG    1       -2.953   2.985  -1.446  0.00  0.00    +0.090 C 
BRANCH  25  26
ATOM     26  C   LIG    1       -4.348   3.207  -0.920  0.00  0.00    -0.070 A 
ATOM     27  C   LIG    1       -5.404   2.478  -1.435  0.00  0.00    -0.010 A 
ATOM     28  C   LIG    1       -6.684   2.675  -0.951  0.00  0.00    +0.030 A 
ATOM     29  C   LIG    1       -6.913   3.610   0.040  0.00  0.00    -0.020 A 
ATOM     30  C   LIG    1       -5.856   4.346   0.554  0.00  0.00    +0.110 A 
ATOM     31  C   LIG    1       -4.572   4.143   0.071  0.00  0.00    -0.010 A 
BRANCH  30  32
ATOM     32  O   LIG    1       -6.078   5.266   1.530  0.00  0.00    -0.500 OA
ATOM     33  H   LIG    1       -6.275   6.152   1.198  0.00  0.00    +0.390 HD
ENDBRANCH  30  32
ENDBRANCH  25  26
ENDBRANCH   7  25
TORSDOF 7
