REMARK  Name = ZINCrH000004nsBq.0
REMARK                            x       y       z     vdW  Elec       q    Type
REMARK                         _______ _______ _______ _____ _____    ______ ____
ROOT
ATOM      1  C   LIG    1       -1.760   4.206   0.041  0.00  0.00    +0.120 C 
ENDROOT
BRANCH   1   2
ATOM      2  C   LIG    1       -0.809   3.037   0.026  0.00  0.00    -0.160 A 
ATOM      3  C   LIG    1       -1.142   1.737   0.016  0.00  0.00    +0.230 A 
ATOM      4  N   LIG    1       -0.011   0.966   0.007  0.00  0.00    -0.590 N 
ATOM      5  H   LIG    1        0.002  -0.004   0.002  0.00  0.00    +0.420 HD
ATOM      6  C   LIG    1        1.105   1.772   0.001  0.00  0.00    +0.100 A 
ATOM      7  C   LIG    1        2.472   1.515  -0.014  0.00  0.00    -0.010 A 
ATOM      8  C   LIG    1        3.365   2.564  -0.017  0.00  0.00    +0.020 A 
ATOM      9  C   LIG    1        2.916   3.877  -0.005  0.00  0.00    -0.020 A 
ATOM     10  C   LIG    1        1.577   4.152   0.010  0.00  0.00    +0.050 A 
ATOM     11  C   LIG    1        0.654   3.105   0.013  0.00  0.00    -0.100 A 
ENDBRANCH   1   2
BRANCH   1  16
ATOM     12  C   LIG    1       -3.381   5.116   3.338  0.00  0.00    +0.110 A 
ATOM     13  C   LIG    1       -4.194   4.016   3.554  0.00  0.00    -0.070 A 
ATOM     14  C   LIG    1       -4.218   2.982   2.635  0.00  0.00    +0.050 A 
ATOM     15  C   LIG    1       -3.435   3.047   1.498  0.00  0.00    -0.010 A 
ATOM     16  C   LIG    1       -2.617   4.141   1.279  0.00  0.00    -0.050 A 
ATOM     17  C   LIG    1       -2.589   5.179   2.196  0.00  0.00    +0.070 A 
BRANCH  12  19
ATOM     18  C   LIG    1       -4.196   6.000   5.390  0.00  0.00    +0.240 C 
ATOM     19  O   LIG    1       -3.357   6.133   4.241  0.00  0.00    -0.310 OA
ENDBRANCH  12  19
BRANCH  17  20
ATOM     20  O   LIG    1       -1.789   6.258   1.980  0.00  0.00    -0.320 OA
ATOM     21  C   LIG    1       -2.355   7.349   1.251  0.00  0.00    +0.210 C 
ENDBRANCH  17  20
ENDBRANCH   1  16
BRANCH   1  22
ATOM     22  C   LIG    1       -2.654   4.152  -1.200  0.00  0.00    +0.270 C 
BRANCH  22  23
ATOM     23  N   LIG    1       -1.834   4.335  -2.401  0.00  0.00    -0.720 N 
ATOM     24  H   LIG    1       -0.876   4.464  -2.318  0.00  0.00    +0.400 HD
ATOM     25  C   LIG    1       -2.410   4.323  -3.619  0.00  0.00    +0.530 C 
ATOM     26  O   LIG    1       -3.608   4.162  -3.721  0.00  0.00    -0.520 OA
BRANCH  25  27
ATOM     27  C   LIG    1       -1.567   4.512  -4.853  0.00  0.00    +0.090 C 
BRANCH  27  28
ATOM     28  S   LIG    1       -2.626   4.448  -6.325  0.00  0.00    -0.180 S 
ATOM     29  C   LIG    1       -1.450   4.689  -7.684  0.00  0.00    +0.130 C 
ENDBRANCH  27  28
ENDBRANCH  25  27
ENDBRANCH  22  23
ENDBRANCH   1  22
TORSDOF 8
