REMARK  Name = ZINCvU00000009Xq.0
REMARK                            x       y       z     vdW  Elec       q    Type
REMARK                         _______ _______ _______ _____ _____    ______ ____
ROOT
ATOM      1  N   LIG    1       -8.581   3.654  -2.246  0.00  0.00    -0.480 N 
ATOM      2  C   LIG    1       -9.626   4.507  -2.342  0.00  0.00    +0.550 A 
ATOM      3  C   LIG    1       -9.421   5.888  -1.883  0.00  0.00    -0.200 A 
ATOM      4  C   LIG    1      -10.438   6.840  -1.942  0.00  0.00    +0.100 A 
ATOM      5  C   LIG    1      -10.195   8.121  -1.499  0.00  0.00    +0.000 A 
ATOM      6  C   LIG    1       -8.948   8.471  -0.995  0.00  0.00    +0.070 A 
ATOM      7  C   LIG    1       -7.931   7.547  -0.928  0.00  0.00    +0.030 A 
ATOM      8  C   LIG    1       -8.152   6.240  -1.371  0.00  0.00    +0.170 A 
ATOM      9  N   LIG    1       -7.179   5.300  -1.317  0.00  0.00    -0.530 NA
ATOM     10  O   LIG    1      -10.697   4.144  -2.793  0.00  0.00    -0.490 OA
ATOM     11  C   LIG    1       -7.384   4.076  -1.737  0.00  0.00    +0.360 A 
ENDROOT
BRANCH   1  18
ATOM     12  C   LIG    1       -7.973   3.033  -4.957  0.00  0.00    +0.100 C 
ATOM     13  C   LIG    1       -8.440   1.981  -3.985  0.00  0.00    -0.050 A 
ATOM     14  C   LIG    1       -8.583   0.672  -4.400  0.00  0.00    +0.020 A 
ATOM     15  C   LIG    1       -9.012  -0.295  -3.508  0.00  0.00    +0.040 A 
ATOM     16  C   LIG    1       -9.298   0.046  -2.199  0.00  0.00    +0.010 A 
ATOM     17  C   LIG    1       -9.151   1.353  -1.776  0.00  0.00    +0.050 A 
ATOM     18  C   LIG    1       -8.726   2.326  -2.670  0.00  0.00    +0.080 A 
ENDBRANCH   1  18
BRANCH  11  19
ATOM     19  S   LIG    1       -6.058   2.920  -1.636  0.00  0.00    +0.100 S 
BRANCH  19  20
ATOM     20  C   LIG    1       -4.774   3.975  -0.919  0.00  0.00    +0.100 C 
BRANCH  20  21
ATOM     21  C   LIG    1       -3.510   3.175  -0.737  0.00  0.00    +0.530 C 
ATOM     22  N   LIG    1       -2.413   3.758  -0.215  0.00  0.00    -0.670 N 
ATOM     23  H   LIG    1       -2.456   4.672   0.108  0.00  0.00    +0.410 HD
ATOM     24  O   LIG    1       -3.481   2.006  -1.060  0.00  0.00    -0.500 OA
BRANCH  22  25
ATOM     25  C   LIG    1       -1.212   3.045  -0.138  0.00  0.00    +0.130 A 
ATOM     26  C   LIG    1       -0.567   2.640  -1.300  0.00  0.00    -0.070 A 
ATOM     27  C   LIG    1        0.616   1.933  -1.220  0.00  0.00    +0.010 A 
ATOM     28  C   LIG    1        1.165   1.637   0.014  0.00  0.00    +0.020 A 
ATOM     29  C   LIG    1        0.529   2.043   1.172  0.00  0.00    +0.010 A 
ATOM     30  C   LIG    1       -1.162   2.967  -2.645  0.00  0.00    +0.090 C 
ATOM     31  C   LIG    1       -0.658   2.746   1.100  0.00  0.00    -0.080 A 
ATOM     32  C   LIG    1       -1.350   3.189   2.363  0.00  0.00    +0.080 C 
ENDBRANCH  22  25
ENDBRANCH  20  21
ENDBRANCH  19  20
ENDBRANCH  11  19
TORSDOF 5
