REMARK  Name = ZINCpe000000T6qf.0
REMARK                            x       y       z     vdW  Elec       q    Type
REMARK                         _______ _______ _______ _____ _____    ______ ____
ROOT
ATOM      1  N   LIG    1       -8.066  -6.494   2.125  0.00  0.00    -0.340 N 
ATOM      2  N   LIG    1       -6.897  -6.930   2.420  0.00  0.00    -0.220 NA
ATOM      3  C   LIG    1       -5.800  -6.328   2.038  0.00  0.00    +0.070 A 
ATOM      4  C   LIG    1       -4.470  -6.911   2.443  0.00  0.00    +0.150 C 
ATOM      5  C   LIG    1       -3.360  -6.327   1.567  0.00  0.00    +0.200 C 
ATOM      6  N   LIG    1       -3.474  -4.860   1.575  0.00  0.00    -0.510 NA
ATOM      7  C   LIG    1       -4.644  -4.435   0.798  0.00  0.00    +0.260 C 
ATOM      8  C   LIG    1       -5.874  -5.160   1.269  0.00  0.00    -0.020 A 
ATOM      9  C   LIG    1       -7.107  -4.669   0.940  0.00  0.00    -0.040 A 
ATOM     10  C   LIG    1       -8.241  -5.376   1.396  0.00  0.00    +0.480 A 
ATOM     11  O   LIG    1       -9.364  -4.978   1.133  0.00  0.00    -0.540 OA
ENDROOT
BRANCH   1  13
ATOM     12  C   LIG    1       -9.211  -8.653   2.028  0.00  0.00    +0.050 C 
ATOM     13  C   LIG    1       -9.242  -7.232   2.593  0.00  0.00    +0.250 C 
ATOM     14  C   LIG    1       -9.232  -7.291   4.122  0.00  0.00    +0.050 C 
ENDBRANCH   1  13
BRANCH   6  15
ATOM     15  C   LIG    1       -2.247  -4.234   1.063  0.00  0.00    +0.170 C 
ATOM     16  C   LIG    1       -1.858  -4.885  -0.266  0.00  0.00    +0.020 C 
BRANCH  15  17
ATOM     17  C   LIG    1       -1.133  -4.425   2.060  0.00  0.00    +0.520 C 
ATOM     18  N   LIG    1        0.018  -3.736   1.924  0.00  0.00    -0.730 N 
ATOM     19  H   LIG    1        0.129  -3.119   1.185  0.00  0.00    +0.400 HD
ATOM     20  O   LIG    1       -1.272  -5.197   2.985  0.00  0.00    -0.520 OA
BRANCH  18  21
ATOM     21  C   LIG    1        1.101  -3.921   2.894  0.00  0.00    +0.280 C 
BRANCH  21  22
ATOM     22  C   LIG    1        2.284  -3.030   2.512  0.00  0.00    +0.150 C 
ATOM     23  C   LIG    1        3.442  -3.211   3.526  0.00  0.00    +0.020 C 
ATOM     24  C   LIG    1        4.661  -2.794   2.658  0.00  0.00    +0.010 C 
ATOM     25  C   LIG    1        4.252  -3.296   1.256  0.00  0.00    +0.190 C 
ATOM     26  O   LIG    1        2.827  -3.438   1.246  0.00  0.00    -0.380 OA
ENDBRANCH  21  22
ENDBRANCH  18  21
ENDBRANCH  15  17
ENDBRANCH   6  15
TORSDOF 5
