REMARK  Name = ZINCrD0000071Kcy.0
REMARK                            x       y       z     vdW  Elec       q    Type
REMARK                         _______ _______ _______ _____ _____    ______ ____
ROOT
ATOM      1  O   LIG    1        1.097  -1.529   0.872  0.00  0.00    -0.310 OA
ENDROOT
BRANCH   1   2
ATOM      2  C   LIG    1        1.270  -0.150   0.453  0.00  0.00    +0.180 C 
ATOM      3  C   LIG    1        2.190  -0.099  -0.769  0.00  0.00    +0.080 C 
BRANCH   2   5
ATOM      4  N   LIG    1       -0.208   1.772  -0.040  0.00  0.00    -0.550 N 
ATOM      5  C   LIG    1       -0.071   0.438   0.097  0.00  0.00    +0.520 C 
ATOM      6  O   LIG    1       -1.028  -0.289  -0.068  0.00  0.00    -0.480 OA
BRANCH   4   7
ATOM      7  C   LIG    1       -1.434   2.313  -0.440  0.00  0.00    +0.150 A 
ATOM      8  C   LIG    1       -1.540   3.670  -0.715  0.00  0.00    -0.030 A 
ATOM      9  C   LIG    1       -2.751   4.200  -1.116  0.00  0.00    +0.030 A 
ATOM     10  C   LIG    1       -3.860   3.382  -1.233  0.00  0.00    -0.020 A 
ATOM     11  C   LIG    1       -3.760   2.031  -0.955  0.00  0.00    +0.030 A 
ATOM     12  C   LIG    1       -2.550   1.494  -0.558  0.00  0.00    +0.010 A 
ENDBRANCH   4   7
BRANCH   4  14
ATOM     13  C   LIG    1        1.614   3.018  -1.093  0.00  0.00    +0.030 C 
ATOM     14  C   LIG    1        0.930   2.656   0.227  0.00  0.00    +0.270 C 
ENDBRANCH   4  14
ENDBRANCH   2   5
ENDBRANCH   1   2
BRANCH   1  15
ATOM     15  C   LIG    1        1.979  -2.010   1.771  0.00  0.00    +0.530 C 
ATOM     16  O   LIG    1        2.867  -1.296   2.193  0.00  0.00    -0.500 OA
BRANCH  15  17
ATOM     17  C   LIG    1        1.865  -3.400   2.241  0.00  0.00    -0.260 A 
ATOM     18  C   LIG    1        2.762  -3.927   3.163  0.00  0.00    +0.270 A 
ATOM     19  C   LIG    1        2.600  -5.284   3.545  0.00  0.00    -0.180 A 
ATOM     20  C   LIG    1        3.322  -5.810   4.625  0.00  0.00    +0.110 A 
ATOM     21  C   LIG    1        3.112  -7.101   5.017  0.00  0.00    -0.010 A 
ATOM     22  C   LIG    1        2.196  -7.901   4.349  0.00  0.00    +0.110 A 
ATOM     23  C   LIG    1        1.491  -7.411   3.268  0.00  0.00    +0.010 A 
ATOM     24  C   LIG    1        1.695  -6.104   2.845  0.00  0.00    +0.160 A 
ATOM     25  O   LIG    1        1.031  -5.624   1.767  0.00  0.00    -0.270 OA
ATOM     26  C   LIG    1        0.800  -4.292   1.749  0.00  0.00    +0.520 A 
ATOM     27  O   LIG    1       -0.254  -3.844   1.339  0.00  0.00    -0.400 OA
ENDBRANCH  15  17
ENDBRANCH   1  15
TORSDOF 6
