REMARK  Name = ZINCpe00000MBswX.0
REMARK                            x       y       z     vdW  Elec       q    Type
REMARK                         _______ _______ _______ _____ _____    ______ ____
ROOT
ATOM      1  C   LIG    1       -1.730   0.666  -2.335  0.00  0.00    +0.560 C 
ATOM      2  N   LIG    1       -1.782   1.240  -1.117  0.00  0.00    -0.610 N 
ATOM      3  C   LIG    1       -1.764   0.420   0.109  0.00  0.00    +0.440 C 
ATOM      4  C   LIG    1       -2.799   1.000   1.044  0.00  0.00    +0.150 A 
ATOM      5  N   LIG    1       -3.265   0.504   2.147  0.00  0.00    -0.270 NA
ATOM      6  N   LIG    1       -4.133   1.314   2.650  0.00  0.00    -0.290 NA
ATOM      7  C   LIG    1       -4.256   2.364   1.878  0.00  0.00    +0.190 A 
ATOM      8  C   LIG    1       -5.164   3.544   2.110  0.00  0.00    +0.200 C 
ATOM      9  N   LIG    1       -3.418   2.191   0.837  0.00  0.00    -0.470 N 
ATOM     10  C   LIG    1       -3.189   3.074  -0.306  0.00  0.00    +0.320 C 
ATOM     11  C   LIG    1       -1.859   2.702  -0.972  0.00  0.00    +0.220 C 
ATOM     12  O   LIG    1       -1.814   1.353  -3.335  0.00  0.00    -0.480 OA
ENDROOT
BRANCH   1  17
ATOM     13  C   LIG    1       -1.102  -5.031  -2.803  0.00  0.00    +0.100 C 
ATOM     14  C   LIG    1       -1.267  -3.538  -2.681  0.00  0.00    -0.040 A 
ATOM     15  C   LIG    1       -0.752  -2.878  -1.581  0.00  0.00    +0.010 A 
ATOM     16  C   LIG    1       -0.895  -1.511  -1.465  0.00  0.00    +0.040 A 
ATOM     17  C   LIG    1       -1.569  -0.799  -2.456  0.00  0.00    -0.140 A 
ATOM     18  C   LIG    1       -2.088  -1.470  -3.567  0.00  0.00    -0.030 A 
ATOM     19  C   LIG    1       -2.844  -0.943  -4.767  0.00  0.00    +0.090 C 
ATOM     20  C   LIG    1       -3.514  -2.182  -5.399  0.00  0.00    +0.030 C 
ATOM     21  C   LIG    1       -2.577  -3.326  -4.955  0.00  0.00    +0.080 C 
ATOM     22  C   LIG    1       -1.934  -2.837  -3.674  0.00  0.00    -0.100 A 
ENDBRANCH   1  17
BRANCH  11  23
ATOM     23  C   LIG    1       -1.778   3.347  -2.332  0.00  0.00    +0.540 C 
ATOM     24  O   LIG    1       -2.747   3.346  -3.061  0.00  0.00    -0.510 OA
ATOM     25  N   LIG    1       -0.630   3.925  -2.736  0.00  0.00    -0.850 N 
ATOM     26  H   LIG    1       -0.578   4.340  -3.611  0.00  0.00    +0.410 HD
ATOM     27  H   LIG    1        0.145   3.925  -2.153  0.00  0.00    +0.400 HD
ENDBRANCH  11  23
TORSDOF 2
