REMARK  Name = ZINCpk00000ealGC.0
REMARK                            x       y       z     vdW  Elec       q    Type
REMARK                         _______ _______ _______ _____ _____    ______ ____
ROOT
ATOM      1  C   LIG    1       -6.865   2.503   0.113  0.00  0.00    +0.500 C 
ATOM      2  N   LIG    1       -5.704   1.881   0.402  0.00  0.00    -0.610 N 
ATOM      3  C   LIG    1       -5.424   1.413   1.766  0.00  0.00    +0.290 C 
ATOM      4  C   LIG    1       -4.077   1.987   2.217  0.00  0.00    +0.030 C 
ATOM      5  C   LIG    1       -3.002   1.617   1.193  0.00  0.00    +0.270 C 
ATOM      6  C   LIG    1       -3.357   2.228  -0.165  0.00  0.00    +0.020 C 
ATOM      7  C   LIG    1       -4.695   1.657  -0.643  0.00  0.00    +0.290 C 
ATOM      8  O   LIG    1       -7.718   2.620   0.967  0.00  0.00    -0.510 OA
ENDROOT
BRANCH   5   9
ATOM      9  N   LIG    1       -1.706   2.135   1.637  0.00  0.00    -0.550 N 
ATOM     10  C   LIG    1       -1.403   3.455   1.866  0.00  0.00    +0.490 A 
ATOM     11  N   LIG    1       -0.167   3.542   2.241  0.00  0.00    -0.280 NA
ATOM     12  N   LIG    1        0.371   2.248   2.270  0.00  0.00    -0.550 N 
ATOM     13  H   LIG    1        1.279   2.009   2.515  0.00  0.00    +0.460 HD
ATOM     14  C   LIG    1       -0.607   1.398   1.895  0.00  0.00    +0.650 A 
ATOM     15  O   LIG    1       -0.513   0.187   1.802  0.00  0.00    -0.550 OA
ENDBRANCH   5   9
BRANCH   1  16
ATOM     16  C   LIG    1       -7.102   3.051  -1.270  0.00  0.00    +0.150 C 
ATOM     17  C   LIG    1       -6.219   4.282  -1.489  0.00  0.00    +0.090 C 
BRANCH  16  18
ATOM     18  C   LIG    1       -8.551   3.441  -1.414  0.00  0.00    -0.150 A 
ATOM     19  C   LIG    1       -9.314   2.901  -2.432  0.00  0.00    +0.060 A 
ATOM     20  C   LIG    1      -10.645   3.253  -2.561  0.00  0.00    -0.010 A 
ATOM     21  C   LIG    1      -11.210   4.155  -1.679  0.00  0.00    +0.050 A 
ATOM     22  C   LIG    1      -10.448   4.701  -0.664  0.00  0.00    -0.020 A 
ATOM     23  C   LIG    1       -9.117   4.344  -0.530  0.00  0.00    +0.140 A 
ATOM     24  F   LIG    1       -8.370   4.878   0.462  0.00  0.00    -0.130 F 
ENDBRANCH  16  18
BRANCH  16  26
ATOM     25  C   LIG    1       -7.446   0.807  -2.037  0.00  0.00    +0.210 C 
ATOM     26  O   LIG    1       -6.778   2.054  -2.240  0.00  0.00    -0.360 OA
ENDBRANCH  16  26
ENDBRANCH   1  16
TORSDOF 4
