REMARK  Name = ZINCqH0000000qoF.0
REMARK                            x       y       z     vdW  Elec       q    Type
REMARK                         _______ _______ _______ _____ _____    ______ ____
ROOT
ATOM      1  C   LIG    1       -0.293  -5.925  -1.034  0.00  0.00    +0.590 C 
ATOM      2  N   LIG    1       -0.249  -6.125  -2.366  0.00  0.00    -0.730 N 
ATOM      3  H   LIG    1       -0.416  -5.387  -2.973  0.00  0.00    +0.400 HD
ATOM      4  O   LIG    1       -0.084  -6.851  -0.273  0.00  0.00    -0.520 OA
ENDROOT
BRANCH   1   8
ATOM      5  C   LIG    1       -1.129  -2.207  -0.066  0.00  0.00    -0.220 A 
ATOM      6  C   LIG    1       -0.958  -2.940   1.040  0.00  0.00    +0.020 A 
ATOM      7  C   LIG    1       -0.665  -4.265   0.823  0.00  0.00    +0.110 A 
ATOM      8  C   LIG    1       -0.592  -4.592  -0.502  0.00  0.00    -0.260 A 
ATOM      9  S   LIG    1       -0.916  -3.158  -1.467  0.00  0.00    +0.220 S 
BRANCH   5  10
ATOM     10  C   LIG    1       -1.460  -0.737  -0.074  0.00  0.00    +0.360 C 
BRANCH  10  13
ATOM     11  C   LIG    1        1.007   2.191  -0.090  0.00  0.00    +0.110 C 
ATOM     12  C   LIG    1       -0.269   1.389  -0.086  0.00  0.00    +0.510 C 
ATOM     13  N   LIG    1       -0.219   0.042  -0.079  0.00  0.00    -0.730 N 
ATOM     14  H   LIG    1        0.638  -0.411  -0.076  0.00  0.00    +0.400 HD
ATOM     15  O   LIG    1       -1.341   1.956  -0.094  0.00  0.00    -0.540 OA
ENDBRANCH  10  13
ENDBRANCH   5  10
ENDBRANCH   1   8
BRANCH   2  16
ATOM     16  C   LIG    1        0.050  -7.457  -2.897  0.00  0.00    +0.290 C 
BRANCH  16  17
ATOM     17  C   LIG    1       -0.083  -7.439  -4.422  0.00  0.00    -0.030 C 
ATOM     18  C   LIG    1       -1.486  -6.953  -4.823  0.00  0.00    +0.020 C 
ATOM     19  C   LIG    1       -2.142  -8.105  -5.613  0.00  0.00    +0.020 C 
ATOM     20  C   LIG    1       -1.392  -9.372  -5.131  0.00  0.00    +0.010 C 
ATOM     21  C   LIG    1        0.066  -8.869  -4.981  0.00  0.00    +0.040 C 
BRANCH  17  22
ATOM     22  C   LIG    1        0.967  -6.539  -5.021  0.00  0.00    -0.090 A 
ATOM     23  C   LIG    1        1.935  -5.974  -4.212  0.00  0.00    +0.050 A 
ATOM     24  C   LIG    1        2.901  -5.152  -4.761  0.00  0.00    -0.010 A 
ATOM     25  C   LIG    1        2.893  -4.886  -6.119  0.00  0.00    +0.100 A 
ATOM     26  C   LIG    1        1.919  -5.449  -6.928  0.00  0.00    -0.010 A 
ATOM     27  F   LIG    1        3.834  -4.079  -6.656  0.00  0.00    -0.140 F 
ATOM     28  C   LIG    1        0.957  -6.274  -6.377  0.00  0.00    +0.050 A 
ENDBRANCH  17  22
ENDBRANCH  16  17
ENDBRANCH   2  16
TORSDOF 6
