REMARK  Name = ZINCqH0000031DcA.0
REMARK                            x       y       z     vdW  Elec       q    Type
REMARK                         _______ _______ _______ _____ _____    ______ ____
ROOT
ATOM      1  C   LIG    1        1.030   3.512   0.009  0.00  0.00    +0.520 C 
ATOM      2  N   LIG    1        2.088   4.347   0.005  0.00  0.00    -0.670 N 
ATOM      3  H   LIG    1        2.988   3.991   0.069  0.00  0.00    +0.420 HD
ATOM      4  O   LIG    1       -0.097   3.960   0.014  0.00  0.00    -0.480 OA
ENDROOT
BRANCH   2   5
ATOM      5  C   LIG    1        1.887   5.729  -0.091  0.00  0.00    +0.150 A 
ATOM      6  C   LIG    1        2.795   6.517  -0.787  0.00  0.00    +0.080 A 
ATOM      7  C   LIG    1        2.592   7.880  -0.885  0.00  0.00    +0.070 A 
ATOM      8  C   LIG    1        1.491   8.461  -0.282  0.00  0.00    -0.000 A 
ATOM      9  C   LIG    1        0.588   7.680   0.418  0.00  0.00    -0.020 A 
ATOM     10 CL   LIG    1        1.242  10.175  -0.402  0.00  0.00    -0.000 Cl
ATOM     11  C   LIG    1        0.784   6.316   0.514  0.00  0.00    +0.130 A 
BRANCH   9  12
ATOM     12  N   LIG    1       -0.588   8.306   1.062  0.00  0.00    +0.020 N 
ATOM     13  O   LIG    1       -0.761   9.508   0.978  0.00  0.00    -0.130 OA
ATOM     14  O   LIG    1       -1.383   7.618   1.678  0.00  0.00    -0.150 OA
ENDBRANCH   9  12
ENDBRANCH   2   5
BRANCH   1  15
ATOM     15  C   LIG    1        1.248   2.021   0.008  0.00  0.00    +0.250 C 
BRANCH  15  16
ATOM     16  O   LIG    1       -0.016   1.355   0.013  0.00  0.00    -0.290 OA
BRANCH  16  20
ATOM     17  C   LIG    1        0.041  -2.771   0.011  0.00  0.00    -0.120 A 
ATOM     18  C   LIG    1       -1.167  -2.097   0.016  0.00  0.00    +0.060 A 
ATOM     19  C   LIG    1       -1.188  -0.716   0.016  0.00  0.00    -0.010 A 
ATOM     20  C   LIG    1        0.003  -0.004   0.012  0.00  0.00    +0.120 A 
ATOM     21  C   LIG    1        1.213  -0.683   0.001  0.00  0.00    -0.080 A 
ATOM     22  C   LIG    1        1.229  -2.064   0.006  0.00  0.00    +0.050 A 
BRANCH  17  23
ATOM     23  C   LIG    1        0.061  -4.277   0.010  0.00  0.00    +0.090 C 
BRANCH  23  24
ATOM     24  C   LIG    1        0.062  -4.787  -1.433  0.00  0.00    +0.030 C 
BRANCH  24  26
ATOM     25  C   LIG    1        0.088  -7.046  -2.739  0.00  0.00    +0.050 C 
ATOM     26  C   LIG    1        0.083  -6.294  -1.433  0.00  0.00    +0.350 C 
ATOM     27  O   LIG    1        0.096  -6.898  -0.388  0.00  0.00    -0.460 OA
ENDBRANCH  24  26
ENDBRANCH  23  24
ENDBRANCH  17  23
ENDBRANCH  16  20
ENDBRANCH  15  16
ENDBRANCH   1  15
TORSDOF 8
