REMARK  Name = ZINCpk00000ebL9g.0
REMARK                            x       y       z     vdW  Elec       q    Type
REMARK                         _______ _______ _______ _____ _____    ______ ____
ROOT
ATOM      1  C   LIG    1       -0.012   1.256  -2.348  0.00  0.00    +0.090 A 
ATOM      2  C   LIG    1       -0.623   0.522  -3.357  0.00  0.00    +0.050 A 
ATOM      3  C   LIG    1        0.078   0.217  -4.508  0.00  0.00    +0.040 A 
ATOM      4  C   LIG    1        1.389   0.632  -4.651  0.00  0.00    -0.110 A 
ATOM      5  C   LIG    1        2.002   1.357  -3.646  0.00  0.00    +0.040 A 
ATOM      6  C   LIG    1        1.306   1.671  -2.495  0.00  0.00    -0.030 A 
ENDROOT
BRANCH   1  10
ATOM      7  O   LIG    1       -0.470   1.020   2.302  0.00  0.00    -0.550 OA
ATOM      8  C   LIG    1       -0.712   1.568   1.247  0.00  0.00    +0.530 C 
ATOM      9  C   LIG    1       -0.013   1.086   0.008  0.00  0.00    +0.240 C 
ATOM     10  N   LIG    1       -0.719   1.571  -1.185  0.00  0.00    -0.500 N 
ATOM     11  C   LIG    1       -0.950   3.021  -1.085  0.00  0.00    +0.190 C 
ATOM     12  C   LIG    1       -1.977   3.279   0.020  0.00  0.00    +0.280 C 
ATOM     13  N   LIG    1       -1.587   2.577   1.239  0.00  0.00    -0.720 N 
ATOM     14  H   LIG    1       -1.983   2.855   2.080  0.00  0.00    +0.400 HD
ENDBRANCH   1  10
BRANCH   4  15
ATOM     15  C   LIG    1        2.152   0.292  -5.905  0.00  0.00    +0.320 C 
BRANCH  15  16
ATOM     16  N   LIG    1        2.834  -0.992  -5.729  0.00  0.00    -0.710 N 
ATOM     17  H   LIG    1        2.748  -1.477  -4.894  0.00  0.00    +0.410 HD
ATOM     18  C   LIG    1        3.583  -1.500  -6.729  0.00  0.00    +0.600 C 
ATOM     19  O   LIG    1        3.692  -0.893  -7.775  0.00  0.00    -0.520 OA
BRANCH  18  20
ATOM     20  C   LIG    1        4.274  -2.801  -6.550  0.00  0.00    -0.030 A 
ATOM     21  N   LIG    1        4.250  -3.565  -5.487  0.00  0.00    -0.330 NA
ATOM     22  O   LIG    1        4.913  -4.564  -5.646  0.00  0.00    +0.120 OA
ATOM     23  C   LIG    1        5.478  -4.599  -6.861  0.00  0.00    +0.010 A 
ATOM     24  C   LIG    1        5.091  -3.472  -7.502  0.00  0.00    +0.000 A 
BRANCH  23  25
ATOM     25  C   LIG    1        6.366  -5.686  -7.409  0.00  0.00    +0.050 C 
ATOM     26  C   LIG    1        6.501  -6.970  -6.587  0.00  0.00    +0.060 C 
ATOM     27  C   LIG    1        7.667  -5.981  -6.659  0.00  0.00    +0.050 C 
ENDBRANCH  23  25
ENDBRANCH  18  20
ENDBRANCH  15  16
ENDBRANCH   4  15
TORSDOF 5
