REMARK  Name = ZINCpe000000XEPU.0
REMARK                            x       y       z     vdW  Elec       q    Type
REMARK                         _______ _______ _______ _____ _____    ______ ____
ROOT
ATOM      1  C   LIG    1       -1.371  -3.732  -1.832  0.00  0.00    -0.090 A 
ATOM      2  C   LIG    1       -1.760  -5.044  -1.626  0.00  0.00    +0.020 A 
ATOM      3  C   LIG    1       -3.063  -5.426  -1.871  0.00  0.00    +0.040 A 
ATOM      4  C   LIG    1       -3.986  -4.489  -2.338  0.00  0.00    -0.120 A 
ATOM      5  C   LIG    1       -3.585  -3.169  -2.550  0.00  0.00    +0.080 A 
ATOM      6  C   LIG    1       -2.280  -2.799  -2.295  0.00  0.00    +0.050 A 
ENDROOT
BRANCH   4   7
ATOM      7  C   LIG    1       -5.382  -4.893  -2.609  0.00  0.00    +0.570 C 
ATOM      8  N   LIG    1       -5.964  -5.851  -1.861  0.00  0.00    -0.610 N 
ATOM      9  C   LIG    1       -5.272  -6.426  -0.696  0.00  0.00    +0.250 C 
ATOM     10  C   LIG    1       -6.231  -6.373   0.505  0.00  0.00    +0.230 C 
ATOM     11  O   LIG    1       -7.473  -6.980   0.141  0.00  0.00    -0.350 OA
ATOM     12  C   LIG    1       -8.163  -6.312  -0.918  0.00  0.00    +0.150 C 
ATOM     13  C   LIG    1       -7.306  -6.358  -2.188  0.00  0.00    +0.290 C 
ATOM     14  O   LIG    1       -6.006  -4.361  -3.506  0.00  0.00    -0.530 OA
BRANCH  12  15
ATOM     15  C   LIG    1       -9.479  -7.000  -1.174  0.00  0.00    +0.530 C 
ATOM     16  O   LIG    1       -9.758  -8.017  -0.576  0.00  0.00    -0.510 OA
ATOM     17  N   LIG    1      -10.346  -6.484  -2.068  0.00  0.00    -0.850 N 
ATOM     18  H   LIG    1      -11.194  -6.927  -2.233  0.00  0.00    +0.410 HD
ATOM     19  H   LIG    1      -10.123  -5.671  -2.546  0.00  0.00    +0.400 HD
ENDBRANCH  12  15
ENDBRANCH   4   7
BRANCH   1  20
ATOM     20  C   LIG    1        0.052  -3.321  -1.556  0.00  0.00    +0.380 C 
BRANCH  20  27
ATOM     21  C   LIG    1        0.743  -5.136   0.860  0.00  0.00    +0.140 C 
ATOM     22  C   LIG    1        0.472  -3.654   0.894  0.00  0.00    +0.090 A 
ATOM     23  C   LIG    1        0.484  -2.866   1.994  0.00  0.00    -0.120 A 
ATOM     24  C   LIG    1        0.181  -1.561   1.592  0.00  0.00    +0.080 A 
ATOM     25  N   LIG    1       -0.012  -1.566   0.298  0.00  0.00    -0.290 NA
ATOM     26  C   LIG    1        0.087  -0.357   2.495  0.00  0.00    +0.160 C 
ATOM     27  N   LIG    1        0.172  -2.875  -0.166  0.00  0.00    -0.370 N 
ENDBRANCH  20  27
ENDBRANCH   1  20
TORSDOF 4
