REMARK  Name = ZINCrD000000CQkP.1
REMARK                            x       y       z     vdW  Elec       q    Type
REMARK                         _______ _______ _______ _____ _____    ______ ____
ROOT
ATOM      1  C   LIG    1        1.808   6.769  -2.045  0.00  0.00    +0.170 A 
ATOM      2  C   LIG    1        0.493   6.664  -2.486  0.00  0.00    +0.020 A 
ATOM      3  C   LIG    1       -0.281   7.796  -2.624  0.00  0.00    +0.080 A 
ATOM      4  C   LIG    1        0.259   9.049  -2.332  0.00  0.00    -0.060 A 
ATOM      5  C   LIG    1        1.581   9.152  -1.896  0.00  0.00    +0.040 A 
ATOM      6  C   LIG    1        2.348   8.016  -1.754  0.00  0.00    -0.010 A 
ENDROOT
BRANCH   4   7
ATOM      7  C   LIG    1       -0.568  10.266  -2.485  0.00  0.00    +0.150 A 
ATOM      8  C   LIG    1       -1.869  10.315  -2.901  0.00  0.00    -0.040 A 
ATOM      9  C   LIG    1       -2.267  11.652  -2.905  0.00  0.00    -0.010 A 
ATOM     10  N   LIG    1       -1.260  12.388  -2.510  0.00  0.00    -0.230 NA
ATOM     11  N   LIG    1       -0.175  11.547  -2.232  0.00  0.00    -0.450 N 
ATOM     12  H   LIG    1        0.699  11.825  -1.918  0.00  0.00    +0.450 HD
BRANCH   9  13
ATOM     13  C   LIG    1       -3.629  12.162  -3.298  0.00  0.00    +0.560 C 
ATOM     14  F   LIG    1       -4.189  11.309  -4.255  0.00  0.00    -0.160 F 
ATOM     15  F   LIG    1       -3.508  13.449  -3.833  0.00  0.00    -0.170 F 
ATOM     16  F   LIG    1       -4.455  12.203  -2.169  0.00  0.00    -0.170 F 
ENDBRANCH   9  13
ENDBRANCH   4   7
BRANCH   1  18
ATOM     17  C   LIG    1        2.018   4.460  -1.518  0.00  0.00    +0.510 C 
ATOM     18  N   LIG    1        2.589   5.619  -1.901  0.00  0.00    -0.680 N 
ATOM     19  H   LIG    1        3.542   5.655  -2.077  0.00  0.00    +0.410 HD
ATOM     20  O   LIG    1        0.846   4.435  -1.206  0.00  0.00    -0.500 OA
BRANCH  17  21
ATOM     21  C   LIG    1        2.836   3.194  -1.477  0.00  0.00    +0.060 C 
BRANCH  21  25
ATOM     22  O   LIG    1       -0.850   2.158   0.742  0.00  0.00    -0.540 OA
ATOM     23  C   LIG    1        0.194   1.547   0.651  0.00  0.00    +0.520 C 
ATOM     24  C   LIG    1        1.489   2.296   0.421  0.00  0.00    +0.060 C 
ATOM     25  C   LIG    1        1.955   2.033  -1.012  0.00  0.00    +0.010 C 
ATOM     26  C   LIG    1        2.748   0.741  -1.091  0.00  0.00    +0.020 C 
ATOM     27  C   LIG    1        1.922  -0.503  -0.817  0.00  0.00    +0.010 C 
ATOM     28  C   LIG    1        1.456  -0.537   0.640  0.00  0.00    +0.280 C 
ATOM     29  N   LIG    1        0.196   0.217   0.748  0.00  0.00    -0.730 N 
ATOM     30  H   LIG    1       -0.638  -0.257   0.891  0.00  0.00    +0.400 HD
ENDBRANCH  21  25
ENDBRANCH  17  21
ENDBRANCH   1  18
TORSDOF 5
