REMARK  Name = ZINCrD000000CQkP.0
REMARK                            x       y       z     vdW  Elec       q    Type
REMARK                         _______ _______ _______ _____ _____    ______ ____
ROOT
ATOM      1  C   LIG    1        1.807   6.769  -2.045  0.00  0.00    +0.160 A 
ATOM      2  C   LIG    1        0.493   6.665  -2.486  0.00  0.00    +0.020 A 
ATOM      3  C   LIG    1       -0.281   7.798  -2.624  0.00  0.00    +0.060 A 
ATOM      4  C   LIG    1        0.259   9.049  -2.332  0.00  0.00    -0.040 A 
ATOM      5  C   LIG    1        1.579   9.152  -1.896  0.00  0.00    +0.060 A 
ATOM      6  C   LIG    1        2.348   8.016  -1.754  0.00  0.00    -0.020 A 
ENDROOT
BRANCH   4   7
ATOM      7  C   LIG    1       -0.570  10.270  -2.487  0.00  0.00    +0.130 A 
ATOM      8  N   LIG    1       -0.184  11.504  -2.241  0.00  0.00    -0.240 NA
ATOM      9  N   LIG    1       -1.259  12.359  -2.515  0.00  0.00    -0.440 N 
ATOM     10  H   LIG    1       -1.256  13.325  -2.424  0.00  0.00    +0.450 HD
ATOM     11  C   LIG    1       -2.303  11.605  -2.923  0.00  0.00    -0.010 A 
ATOM     12  C   LIG    1       -1.911  10.312  -2.916  0.00  0.00    -0.010 A 
BRANCH  11  13
ATOM     13  C   LIG    1       -3.665  12.116  -3.316  0.00  0.00    +0.540 C 
ATOM     14  F   LIG    1       -4.633  11.556  -2.476  0.00  0.00    -0.160 F 
ATOM     15  F   LIG    1       -3.933  11.757  -4.641  0.00  0.00    -0.160 F 
ATOM     16  F   LIG    1       -3.693  13.509  -3.195  0.00  0.00    -0.170 F 
ENDBRANCH  11  13
ENDBRANCH   4   7
BRANCH   1  18
ATOM     17  C   LIG    1        2.018   4.460  -1.518  0.00  0.00    +0.500 C 
ATOM     18  N   LIG    1        2.589   5.619  -1.901  0.00  0.00    -0.680 N 
ATOM     19  H   LIG    1        3.543   5.655  -2.077  0.00  0.00    +0.410 HD
ATOM     20  O   LIG    1        0.846   4.435  -1.207  0.00  0.00    -0.500 OA
BRANCH  17  21
ATOM     21  C   LIG    1        2.836   3.194  -1.478  0.00  0.00    +0.060 C 
BRANCH  21  25
ATOM     22  O   LIG    1       -0.851   2.157   0.740  0.00  0.00    -0.540 OA
ATOM     23  C   LIG    1        0.193   1.546   0.649  0.00  0.00    +0.520 C 
ATOM     24  C   LIG    1        1.488   2.296   0.420  0.00  0.00    +0.050 C 
ATOM     25  C   LIG    1        1.954   2.033  -1.013  0.00  0.00    +0.010 C 
ATOM     26  C   LIG    1        2.748   0.741  -1.093  0.00  0.00    +0.020 C 
ATOM     27  C   LIG    1        1.922  -0.503  -0.819  0.00  0.00    +0.010 C 
ATOM     28  C   LIG    1        1.455  -0.537   0.638  0.00  0.00    +0.280 C 
ATOM     29  N   LIG    1        0.195   0.216   0.746  0.00  0.00    -0.730 N 
ATOM     30  H   LIG    1       -0.639  -0.258   0.888  0.00  0.00    +0.400 HD
ENDBRANCH  21  25
ENDBRANCH  17  21
ENDBRANCH   1  18
TORSDOF 5
