REMARK  Name = ZINCpe000000YCgJ.0
REMARK                            x       y       z     vdW  Elec       q    Type
REMARK                         _______ _______ _______ _____ _____    ______ ____
ROOT
ATOM      1  C   LIG    1        5.610   6.315   0.538  0.00  0.00    +0.010 C 
ATOM      2  C   LIG    1        4.111   6.161   0.885  0.00  0.00    +0.100 C 
ATOM      3  C   LIG    1        3.808   4.710   0.582  0.00  0.00    +0.520 C 
ATOM      4  N   LIG    1        4.951   4.010   0.480  0.00  0.00    -0.550 N 
ATOM      5  O   LIG    1        2.695   4.246   0.450  0.00  0.00    -0.510 OA
ATOM      6  C   LIG    1        6.122   4.865   0.708  0.00  0.00    +0.320 C 
ENDROOT
BRANCH   4   7
ATOM      7  C   LIG    1        5.016   2.641   0.197  0.00  0.00    +0.170 A 
ATOM      8  C   LIG    1        6.247   2.026   0.013  0.00  0.00    -0.020 A 
ATOM      9  C   LIG    1        6.306   0.675  -0.265  0.00  0.00    +0.040 A 
ATOM     10  C   LIG    1        5.142  -0.070  -0.361  0.00  0.00    -0.120 A 
ATOM     11  C   LIG    1        4.942  -1.542  -0.651  0.00  0.00    +0.070 C 
ATOM     12  C   LIG    1        3.501  -1.853  -0.195  0.00  0.00    +0.030 C 
ATOM     13  C   LIG    1        2.807  -0.481  -0.332  0.00  0.00    +0.080 C 
ATOM     14  C   LIG    1        3.914   0.540  -0.177  0.00  0.00    -0.070 A 
ATOM     15  C   LIG    1        3.851   1.894   0.102  0.00  0.00    +0.010 A 
ENDBRANCH   4   7
BRANCH   1  20
ATOM     16  C   LIG    1        6.211  10.507  -0.872  0.00  0.00    -0.010 C 
ATOM     17  C   LIG    1        6.763  10.059  -2.251  0.00  0.00    +0.060 C 
ATOM     18  C   LIG    1        6.008   8.725  -2.470  0.00  0.00    +0.270 C 
ATOM     19  N   LIG    1        5.932   8.111  -1.132  0.00  0.00    -0.620 N 
ATOM     20  C   LIG    1        5.790   6.794  -0.879  0.00  0.00    +0.540 C 
ATOM     21  O   LIG    1        5.806   5.996  -1.792  0.00  0.00    -0.520 OA
ATOM     22  C   LIG    1        6.031   9.172  -0.120  0.00  0.00    +0.280 C 
BRANCH  16  26
ATOM     23  N   LIG    1        7.569  12.569  -0.718  0.00  0.00    -0.850 N 
ATOM     24  H   LIG    1        8.206  13.142  -0.262  0.00  0.00    +0.410 HD
ATOM     25  H   LIG    1        7.196  12.841  -1.571  0.00  0.00    +0.400 HD
ATOM     26  C   LIG    1        7.201  11.396  -0.165  0.00  0.00    +0.530 C 
ATOM     27  O   LIG    1        7.668  11.056   0.902  0.00  0.00    -0.540 OA
ENDBRANCH  16  26
ENDBRANCH   1  20
TORSDOF 3
