REMARK  Name = ZINCvU0000000Ftp.0
REMARK                            x       y       z     vdW  Elec       q    Type
REMARK                         _______ _______ _______ _____ _____    ______ ____
ROOT
ATOM      1  C   LIG    1       -0.690   1.358   0.009  0.00  0.00    +0.200 A 
ATOM      2  C   LIG    1       -1.937   1.902  -0.124  0.00  0.00    +0.050 A 
ATOM      3  O   LIG    1       -1.784   3.246  -0.103  0.00  0.00    -0.180 OA
ATOM      4  C   LIG    1       -0.472   3.506   0.032  0.00  0.00    +0.260 A 
ATOM      5  N   LIG    1        0.184   2.371   0.099  0.00  0.00    -0.460 NA
ENDROOT
BRANCH   1  12
ATOM      6  O   LIG    1       -0.734  -0.085   2.226  0.00  0.00    -0.520 OA
ATOM      7  C   LIG    1       -0.425  -0.677   1.205  0.00  0.00    +0.660 A 
ATOM      8  N   LIG    1       -0.141  -1.976   1.262  0.00  0.00    -0.590 NA
ATOM      9  C   LIG    1        0.203  -2.643   0.168  0.00  0.00    +0.500 A 
ATOM     10  C   LIG    1        0.264  -1.970  -1.069  0.00  0.00    -0.120 A 
ATOM     11  C   LIG    1       -0.033  -0.649  -1.112  0.00  0.00    +0.380 A 
ATOM     12  N   LIG    1       -0.382  -0.006   0.039  0.00  0.00    -0.460 N 
BRANCH   9  13
ATOM     13  N   LIG    1        0.499  -3.987   0.240  0.00  0.00    -0.630 N 
ATOM     14  H   LIG    1        0.675  -4.489  -0.571  0.00  0.00    +0.420 HD
BRANCH  13  15
ATOM     15  C   LIG    1        0.547  -4.626   1.483  0.00  0.00    +0.140 A 
ATOM     16  C   LIG    1        1.000  -3.939   2.602  0.00  0.00    +0.040 A 
ATOM     17  C   LIG    1        1.041  -4.572   3.829  0.00  0.00    +0.030 A 
ATOM     18  C   LIG    1        0.642  -5.891   3.941  0.00  0.00    -0.010 A 
ATOM     19  C   LIG    1        0.196  -6.580   2.828  0.00  0.00    +0.030 A 
ATOM     20  C   LIG    1        0.147  -5.951   1.599  0.00  0.00    -0.020 A 
ENDBRANCH  13  15
ENDBRANCH   9  13
ENDBRANCH   1  12
BRANCH   4  21
ATOM     21  C   LIG    1        0.133   4.852   0.094  0.00  0.00    -0.030 A 
ATOM     22  C   LIG    1       -0.673   5.989   0.005  0.00  0.00    +0.050 A 
ATOM     23  C   LIG    1       -0.102   7.243   0.069  0.00  0.00    +0.010 A 
ATOM     24  C   LIG    1        1.268   7.376   0.209  0.00  0.00    +0.040 A 
ATOM     25  C   LIG    1        2.074   6.254   0.292  0.00  0.00    +0.010 A 
ATOM     26  C   LIG    1        1.515   4.994   0.235  0.00  0.00    +0.070 A 
ENDBRANCH   4  21
BRANCH   2  27
ATOM     27  C   LIG    1       -3.208   1.164  -0.261  0.00  0.00    -0.030 A 
ATOM     28  C   LIG    1       -3.201  -0.227  -0.387  0.00  0.00    +0.030 A 
ATOM     29  C   LIG    1       -4.393  -0.911  -0.509  0.00  0.00    +0.020 A 
ATOM     30  C   LIG    1       -5.592  -0.220  -0.519  0.00  0.00    +0.030 A 
ATOM     31  C   LIG    1       -5.606   1.158  -0.400  0.00  0.00    +0.020 A 
ATOM     32  C   LIG    1       -4.423   1.855  -0.271  0.00  0.00    +0.040 A 
ENDBRANCH   2  27
TORSDOF 5
