REMARK  Name = ZINCrg000000rM1n.0
REMARK                            x       y       z     vdW  Elec       q    Type
REMARK                         _______ _______ _______ _____ _____    ______ ____
ROOT
ATOM      1  N   LIG    1       -1.589   7.971  -1.165  0.00  0.00    -0.370 N 
ATOM      2  C   LIG    1       -0.338   7.563  -0.828  0.00  0.00    +0.200 A 
ATOM      3  C   LIG    1       -0.360   6.208  -0.735  0.00  0.00    +0.010 A 
ATOM      4  C   LIG    1       -1.663   5.779  -1.030  0.00  0.00    +0.260 A 
ATOM      5  N   LIG    1       -2.397   6.832  -1.280  0.00  0.00    -0.250 NA
ENDROOT
BRANCH   3   6
ATOM      6  N   LIG    1        0.731   5.382  -0.407  0.00  0.00    -0.640 N 
ATOM      7  H   LIG    1        1.598   5.775  -0.223  0.00  0.00    +0.410 HD
ATOM      8  C   LIG    1        0.570   4.045  -0.349  0.00  0.00    +0.510 C 
ATOM      9  O   LIG    1       -0.515   3.554  -0.579  0.00  0.00    -0.470 OA
BRANCH   8  10
ATOM     10  C   LIG    1        1.739   3.160   0.002  0.00  0.00    +0.180 C 
ATOM     11  C   LIG    1        2.853   3.355  -1.028  0.00  0.00    +0.080 C 
ATOM     12  C   LIG    1        2.259   3.531   1.393  0.00  0.00    +0.070 C 
BRANCH  10  13
ATOM     13  N   LIG    1        1.309   1.760  -0.001  0.00  0.00    -0.370 N 
ATOM     14  C   LIG    1        2.119   0.681  -0.015  0.00  0.00    +0.220 A 
ATOM     15  C   LIG    1        1.337  -0.423  -0.013  0.00  0.00    -0.120 A 
ATOM     16  C   LIG    1        0.002  -0.004   0.002  0.00  0.00    +0.210 A 
ATOM     17  N   LIG    1       -0.016   1.304   0.009  0.00  0.00    -0.240 NA
ENDBRANCH  10  13
ENDBRANCH   8  10
ENDBRANCH   3   6
BRANCH   1  18
ATOM     18  C   LIG    1       -2.018   9.357  -1.371  0.00  0.00    +0.370 C 
BRANCH  18  26
ATOM     19  C   LIG    1       -2.480  14.313  -2.276  0.00  0.00    +0.070 C 
ATOM     20  C   LIG    1       -2.404  13.017  -3.085  0.00  0.00    +0.130 C 
ATOM     21  C   LIG    1       -3.033  11.871  -2.277  0.00  0.00    +0.250 C 
ATOM     22  N   LIG    1       -3.113  10.686  -3.146  0.00  0.00    -0.620 N 
ATOM     23  C   LIG    1       -3.727  10.843  -4.474  0.00  0.00    +0.260 C 
ATOM     24  C   LIG    1       -3.069  12.037  -5.173  0.00  0.00    +0.140 C 
ATOM     25  C   LIG    1       -3.817  12.345  -6.472  0.00  0.00    +0.080 C 
ATOM     26  C   LIG    1       -2.643   9.492  -2.735  0.00  0.00    +0.500 C 
ATOM     27  O   LIG    1       -2.722   8.526  -3.464  0.00  0.00    -0.500 OA
ATOM     28  O   LIG    1       -3.123  13.176  -4.310  0.00  0.00    -0.370 OA
ENDBRANCH  18  26
ENDBRANCH   1  18
TORSDOF 5
