REMARK  Name = ZINCqH0000000sc3.0
REMARK                            x       y       z     vdW  Elec       q    Type
REMARK                         _______ _______ _______ _____ _____    ______ ____
ROOT
ATOM      1  C   LIG    1       -2.349   1.106  -0.107  0.00  0.00    +0.160 A 
ATOM      2  C   LIG    1       -2.286  -0.281  -0.106  0.00  0.00    +0.060 A 
ATOM      3  C   LIG    1       -3.452  -1.032  -0.171  0.00  0.00    +0.160 A 
ATOM      4  C   LIG    1       -4.683  -0.399  -0.248  0.00  0.00    +0.000 A 
ATOM      5  C   LIG    1       -4.750   0.994  -0.255  0.00  0.00    -0.100 A 
ATOM      6  C   LIG    1       -3.577   1.746  -0.183  0.00  0.00    +0.040 A 
ENDROOT
BRANCH   1   9
ATOM      7  C   LIG    1        1.185   2.152   0.654  0.00  0.00    +0.110 C 
ATOM      8  C   LIG    1       -0.122   1.403   0.675  0.00  0.00    +0.500 C 
ATOM      9  N   LIG    1       -1.172   1.859  -0.036  0.00  0.00    -0.680 N 
ATOM     10  H   LIG    1       -1.111   2.709  -0.499  0.00  0.00    +0.410 HD
ATOM     11  O   LIG    1       -0.228   0.387   1.329  0.00  0.00    -0.500 OA
ENDBRANCH   1   9
BRANCH   3  12
ATOM     12  N   LIG    1       -3.384  -2.430  -0.165  0.00  0.00    -0.680 N 
ATOM     13  H   LIG    1       -4.011  -2.949  -0.692  0.00  0.00    +0.410 HD
ATOM     14  C   LIG    1       -2.447  -3.056   0.575  0.00  0.00    +0.500 C 
ATOM     15  O   LIG    1       -1.611  -2.408   1.169  0.00  0.00    -0.500 OA
ATOM     16  C   LIG    1       -2.439  -4.560   0.664  0.00  0.00    +0.110 C 
ENDBRANCH   3  12
BRANCH   5  17
ATOM     17  C   LIG    1       -6.061   1.673  -0.337  0.00  0.00    +0.570 C 
ATOM     18  N   LIG    1       -7.194   0.945  -0.405  0.00  0.00    -0.720 N 
ATOM     19  H   LIG    1       -7.149  -0.024  -0.401  0.00  0.00    +0.400 HD
ATOM     20  O   LIG    1       -6.118   2.887  -0.343  0.00  0.00    -0.530 OA
BRANCH  18  21
ATOM     21  C   LIG    1       -8.493   1.618  -0.487  0.00  0.00    +0.290 C 
ATOM     22  C   LIG    1       -8.976   1.966   0.922  0.00  0.00    +0.040 C 
BRANCH  21  23
ATOM     23  C   LIG    1       -9.491   0.703  -1.148  0.00  0.00    -0.080 A 
ATOM     24  C   LIG    1       -9.309  -0.666  -1.104  0.00  0.00    +0.020 A 
ATOM     25  C   LIG    1      -10.225  -1.505  -1.711  0.00  0.00    +0.020 A 
ATOM     26  C   LIG    1      -11.323  -0.975  -2.362  0.00  0.00    +0.030 A 
ATOM     27  C   LIG    1      -11.506   0.394  -2.408  0.00  0.00    +0.040 A 
ATOM     28  C   LIG    1      -10.593   1.234  -1.795  0.00  0.00    -0.030 A 
ATOM     29 CL   LIG    1      -10.826   2.954  -1.845  0.00  0.00    -0.060 Cl
ENDBRANCH  21  23
ENDBRANCH  18  21
ENDBRANCH   5  17
TORSDOF 5
