REMARK  Name = ZINCpk00000xIhNX.0
REMARK                            x       y       z     vdW  Elec       q    Type
REMARK                         _______ _______ _______ _____ _____    ______ ____
ROOT
ATOM      1  C   LIG    1       -0.767  -4.029   0.028  0.00  0.00    +0.530 A 
ATOM      2  N   LIG    1       -0.576  -2.713   0.089  0.00  0.00    -0.600 NA
ATOM      3  C   LIG    1       -1.604  -1.877   0.071  0.00  0.00    +0.640 A 
ATOM      4  N   LIG    1       -2.852  -2.310  -0.020  0.00  0.00    -0.610 NA
ATOM      5  C   LIG    1       -3.119  -3.612  -0.091  0.00  0.00    +0.470 A 
ATOM      6  C   LIG    1       -2.065  -4.521  -0.068  0.00  0.00    -0.240 A 
ENDROOT
BRANCH   5   7
ATOM      7  N   LIG    1       -4.428  -4.057  -0.186  0.00  0.00    -0.500 N 
ATOM      8  C   LIG    1       -5.065  -3.561  -1.415  0.00  0.00    +0.180 C 
ATOM      9  C   LIG    1       -6.486  -4.122  -1.509  0.00  0.00    +0.250 C 
ATOM     10  O   LIG    1       -7.217  -3.757  -0.335  0.00  0.00    -0.380 OA
ATOM     11  C   LIG    1       -6.625  -4.225   0.880  0.00  0.00    +0.250 C 
ATOM     12  C   LIG    1       -5.205  -3.664   0.999  0.00  0.00    +0.180 C 
ENDBRANCH   5   7
BRANCH   1  13
ATOM     13  N   LIG    1        0.313  -4.897   0.054  0.00  0.00    -0.820 N 
ATOM     14  H   LIG    1        1.215  -4.547   0.121  0.00  0.00    +0.420 HD
ATOM     15  H   LIG    1        0.167  -5.855   0.004  0.00  0.00    +0.420 HD
ENDBRANCH   1  13
BRANCH   6  16
ATOM     16  N   LIG    1       -2.320  -5.978  -0.144  0.00  0.00    +0.050 N 
ATOM     17  O   LIG    1       -2.486  -6.621   0.876  0.00  0.00    -0.140 OA
ATOM     18  O   LIG    1       -2.363  -6.533  -1.228  0.00  0.00    -0.140 OA
ENDBRANCH   6  16
BRANCH   3  19
ATOM     19  N   LIG    1       -1.366  -0.516   0.142  0.00  0.00    -0.680 N 
ATOM     20  H   LIG    1       -2.109   0.108   0.126  0.00  0.00    +0.420 HD
BRANCH  19  21
ATOM     21  C   LIG    1        0.008  -0.016   0.243  0.00  0.00    +0.300 C 
BRANCH  21  22
ATOM     22  C   LIG    1       -0.009   1.512   0.307  0.00  0.00    +0.070 C 
BRANCH  22  23
ATOM     23  C   LIG    1        1.404   2.026   0.411  0.00  0.00    -0.090 A 
ATOM     24  C   LIG    1        1.981   2.216   1.653  0.00  0.00    +0.010 A 
ATOM     25  C   LIG    1        3.279   2.683   1.748  0.00  0.00    +0.000 A 
ATOM     26  C   LIG    1        3.996   2.969   0.601  0.00  0.00    +0.000 A 
ATOM     27  C   LIG    1        3.417   2.784  -0.641  0.00  0.00    +0.000 A 
ATOM     28  C   LIG    1        2.121   2.312  -0.736  0.00  0.00    +0.010 A 
ENDBRANCH  22  23
ENDBRANCH  21  22
ENDBRANCH  19  21
ENDBRANCH   3  19
TORSDOF 7
