REMARK  Name = ZINCpk00000Fd70c.0
REMARK                            x       y       z     vdW  Elec       q    Type
REMARK                         _______ _______ _______ _____ _____    ______ ____
ROOT
ATOM      1  N   LIG    1        7.157  -0.415  -1.061  0.00  0.00    -0.490 N 
ATOM      2  C   LIG    1        7.035   1.043  -1.192  0.00  0.00    +0.190 C 
ATOM      3  C   LIG    1        6.170   1.584  -0.048  0.00  0.00    +0.300 C 
ATOM      4  N   LIG    1        4.895   0.851  -0.040  0.00  0.00    -0.620 N 
ATOM      5  C   LIG    1        4.937  -0.620  -0.042  0.00  0.00    +0.280 C 
ATOM      6  C   LIG    1        3.719   1.508  -0.025  0.00  0.00    +0.520 C 
ATOM      7  O   LIG    1        3.702   2.721  -0.019  0.00  0.00    -0.530 OA
ATOM      8  C   LIG    1        5.851  -1.074  -1.192  0.00  0.00    +0.190 C 
ENDROOT
BRANCH   1  14
ATOM      9  C   LIG    1        9.519  -4.270  -2.990  0.00  0.00    +0.090 C 
ATOM     10  C   LIG    1        9.235  -2.790  -2.945  0.00  0.00    -0.060 A 
ATOM     11  C   LIG    1        9.879  -1.937  -3.821  0.00  0.00    -0.020 A 
ATOM     12  C   LIG    1        9.621  -0.578  -3.784  0.00  0.00    +0.030 A 
ATOM     13  C   LIG    1        8.719  -0.070  -2.869  0.00  0.00    -0.050 A 
ATOM     14  C   LIG    1        8.070  -0.926  -1.988  0.00  0.00    +0.110 A 
ATOM     15  C   LIG    1        8.335  -2.288  -2.025  0.00  0.00    -0.020 A 
ENDBRANCH   1  14
BRANCH   6  16
ATOM     16  C   LIG    1        2.424   0.737  -0.017  0.00  0.00    +0.050 C 
BRANCH  16  17
ATOM     17  C   LIG    1        1.248   1.716  -0.001  0.00  0.00    +0.290 C 
BRANCH  17  18
ATOM     18  N   LIG    1       -0.011   0.966   0.007  0.00  0.00    -0.720 N 
ATOM     19  H   LIG    1        0.002  -0.004   0.002  0.00  0.00    +0.410 HD
ATOM     20  C   LIG    1       -1.187   1.624   0.017  0.00  0.00    +0.610 C 
ATOM     21  O   LIG    1       -1.204   2.841   0.023  0.00  0.00    -0.510 OA
BRANCH  20  22
ATOM     22  C   LIG    1       -2.448   0.873   0.018  0.00  0.00    -0.120 A 
ATOM     23  C   LIG    1       -3.707   1.396   0.027  0.00  0.00    +0.260 A 
ATOM     24  N   LIG    1       -4.567   0.373   0.025  0.00  0.00    -0.490 NA
ATOM     25  C   LIG    1       -3.894  -0.747   0.016  0.00  0.00    +0.470 A 
ATOM     26  O   LIG    1       -2.586  -0.473   0.006  0.00  0.00    -0.190 OA
ENDBRANCH  20  22
ENDBRANCH  17  18
ENDBRANCH  16  17
ENDBRANCH   6  16
TORSDOF 5
