REMARK  Name = ZINCpk00000ebHYQ.0
REMARK                            x       y       z     vdW  Elec       q    Type
REMARK                         _______ _______ _______ _____ _____    ______ ____
ROOT
ATOM      1  C   LIG    1       -2.660   4.765   2.253  0.00  0.00    +0.030 C 
ATOM      2  C   LIG    1       -2.065   5.870   1.376  0.00  0.00    +0.050 C 
ATOM      3  C   LIG    1       -1.457   5.250   0.115  0.00  0.00    +0.030 C 
ATOM      4  C   LIG    1       -0.327   4.290   0.517  0.00  0.00    +0.270 C 
ATOM      5  N   LIG    1       -0.863   3.311   1.472  0.00  0.00    -0.610 N 
ATOM      6  C   LIG    1       -0.724   1.989   1.250  0.00  0.00    +0.520 C 
ATOM      7  O   LIG    1       -1.166   1.190   2.049  0.00  0.00    -0.520 OA
ATOM      8  C   LIG    1       -1.548   3.800   2.676  0.00  0.00    +0.310 C 
ENDROOT
BRANCH   1  10
ATOM      9  O   LIG    1       -3.263   6.577   3.634  0.00  0.00    -0.480 OA
ATOM     10  C   LIG    1       -3.286   5.379   3.478  0.00  0.00    +0.470 C 
BRANCH  10  11
ATOM     11  O   LIG    1       -3.871   4.595   4.398  0.00  0.00    -0.330 OA
BRANCH  11  12
ATOM     12  C   LIG    1       -4.454   5.254   5.552  0.00  0.00    +0.160 C 
ATOM     13  C   LIG    1       -5.633   4.424   6.108  0.00  0.00    +0.070 C 
ATOM     14  C   LIG    1       -5.351   4.435   7.627  0.00  0.00    +0.270 C 
ATOM     15  O   LIG    1       -3.905   4.600   7.728  0.00  0.00    -0.340 OA
ATOM     16  C   LIG    1       -3.453   5.315   6.685  0.00  0.00    +0.470 C 
ATOM     17  O   LIG    1       -2.404   5.916   6.654  0.00  0.00    -0.430 OA
ENDBRANCH  11  12
ENDBRANCH  10  11
ENDBRANCH   1  10
BRANCH   6  18
ATOM     18  C   LIG    1       -0.018   1.503   0.010  0.00  0.00    +0.120 C 
BRANCH  18  19
ATOM     19  C   LIG    1        0.002  -0.004   0.002  0.00  0.00    -0.080 A 
ATOM     20  C   LIG    1        1.057  -0.684   0.582  0.00  0.00    +0.050 A 
ATOM     21  C   LIG    1        1.074  -2.066   0.579  0.00  0.00    -0.010 A 
ATOM     22  C   LIG    1        0.040  -2.769  -0.014  0.00  0.00    +0.100 A 
ATOM     23  C   LIG    1       -1.013  -2.087  -0.599  0.00  0.00    -0.010 A 
ATOM     24  F   LIG    1        0.058  -4.120  -0.021  0.00  0.00    -0.140 F 
ATOM     25  C   LIG    1       -1.031  -0.706  -0.591  0.00  0.00    +0.050 A 
ENDBRANCH  18  19
ENDBRANCH   6  18
TORSDOF 5
