REMARK  Name = ZINCpe000000ZvIg.0
REMARK                            x       y       z     vdW  Elec       q    Type
REMARK                         _______ _______ _______ _____ _____    ______ ____
ROOT
ATOM      1  O   LIG    1        3.800  -2.054  -4.196  0.00  0.00    -0.530 OA
ATOM      2  C   LIG    1        2.945  -2.612  -3.537  0.00  0.00    +0.570 C 
ATOM      3  N   LIG    1        2.161  -1.897  -2.707  0.00  0.00    -0.590 N 
ATOM      4  C   LIG    1        1.148  -2.564  -1.876  0.00  0.00    +0.280 C 
ATOM      5  C   LIG    1       -0.216  -1.921  -2.156  0.00  0.00    +0.280 C 
ATOM      6  N   LIG    1       -0.075  -0.461  -2.066  0.00  0.00    -0.610 N 
ATOM      7  C   LIG    1        0.933   0.206  -2.901  0.00  0.00    +0.270 C 
ATOM      8  C   LIG    1       -0.861   0.254  -1.236  0.00  0.00    +0.520 C 
ATOM      9  O   LIG    1       -1.702  -0.306  -0.566  0.00  0.00    -0.530 OA
ATOM     10  C   LIG    1        2.302  -0.437  -2.617  0.00  0.00    +0.280 C 
ENDROOT
BRANCH   8  11
ATOM     11  C   LIG    1       -0.693   1.748  -1.141  0.00  0.00    +0.000 C 
ATOM     12  C   LIG    1       -1.317   2.249   0.163  0.00  0.00    +0.060 C 
ATOM     13  C   LIG    1       -0.898   3.703   0.412  0.00  0.00    +0.140 C 
ATOM     14  C   LIG    1       -1.180   4.495  -0.841  0.00  0.00    +0.080 A 
ATOM     15  N   LIG    1       -1.263   5.787  -0.977  0.00  0.00    -0.290 NA
ATOM     16  N   LIG    1       -1.545   6.067  -2.323  0.00  0.00    -0.480 N 
ATOM     17  H   LIG    1       -1.661   6.949  -2.710  0.00  0.00    +0.440 HD
ATOM     18  C   LIG    1       -1.627   4.891  -2.986  0.00  0.00    +0.250 A 
ATOM     19  C   LIG    1       -1.405   3.906  -2.096  0.00  0.00    -0.240 A 
ATOM     20  C   LIG    1       -1.386   2.416  -2.335  0.00  0.00    +0.120 C 
ENDBRANCH   8  11
BRANCH   2  21
ATOM     21  C   LIG    1        2.766  -4.079  -3.647  0.00  0.00    +0.080 A 
ATOM     22  C   LIG    1        3.183  -4.742  -4.798  0.00  0.00    +0.040 A 
ATOM     23  C   LIG    1        3.009  -6.114  -4.886  0.00  0.00    +0.070 A 
ATOM     24  C   LIG    1        2.424  -6.776  -3.818  0.00  0.00    -0.010 A 
ATOM     25  C   LIG    1        2.033  -6.052  -2.703  0.00  0.00    +0.270 A 
ATOM     26  N   LIG    1        2.214  -4.751  -2.644  0.00  0.00    -0.450 NA
ENDBRANCH   2  21
TORSDOF 2
