REMARK  Name = ZINCc70000002iO6.0
REMARK                            x       y       z     vdW  Elec       q    Type
REMARK                         _______ _______ _______ _____ _____    ______ ____
ROOT
ATOM      1  S   LIG    1       -2.733   0.849   0.020  0.00  0.00    +2.710 S 
ATOM      2  O   LIG    1       -2.441  -0.427  -0.533  0.00  0.00    -0.950 OA
ATOM      3  O   LIG    1       -3.720   1.720  -0.515  0.00  0.00    -0.960 OA
ENDROOT
BRANCH   1   8
ATOM      4  C   LIG    1        2.451   3.937  -0.001  0.00  0.00    +0.090 C 
ATOM      5  C   LIG    1        1.156   3.165   0.008  0.00  0.00    -0.030 A 
ATOM      6  C   LIG    1        1.175   1.783   0.000  0.00  0.00    -0.010 A 
ATOM      7  C   LIG    1       -0.013   1.076   0.008  0.00  0.00    +0.120 A 
ATOM      8  C   LIG    1       -1.219   1.751   0.017  0.00  0.00    -0.670 A 
ATOM      9  C   LIG    1       -1.238   3.133   0.030  0.00  0.00    +0.130 A 
ATOM     10  C   LIG    1       -0.050   3.840   0.023  0.00  0.00    -0.010 A 
ENDBRANCH   1   8
BRANCH   1  11
ATOM     11  N   LIG    1       -3.146   0.590   1.602  0.00  0.00    -0.970 NA
ATOM     12  H   LIG    1       -3.241  -0.316   1.937  0.00  0.00    +0.410 HD
BRANCH  11  13
ATOM     13  N   LIG    1       -3.355   1.651   2.436  0.00  0.00    -0.590 NA
ATOM     14  H   LIG    1       -3.599   1.339   3.364  0.00  0.00    +0.360 HD
ATOM     15  H   LIG    1       -4.061   2.269   2.065  0.00  0.00    +0.340 HD
ENDBRANCH  11  13
ENDBRANCH   1  11
TORSDOF 3
