REMARK  Name = ZINCrD0000072pgU.0
REMARK                            x       y       z     vdW  Elec       q    Type
REMARK                         _______ _______ _______ _____ _____    ______ ____
ROOT
ATOM      1  C   LIG    1        1.745   4.224   0.008  0.00  0.00    +0.510 C 
ATOM      2  N   LIG    1        2.395   3.044  -0.005  0.00  0.00    -0.630 N 
ATOM      3  H   LIG    1        3.365   3.025  -0.015  0.00  0.00    +0.420 HD
ATOM      4  O   LIG    1        0.532   4.248   0.020  0.00  0.00    -0.470 OA
ENDROOT
BRANCH   2   5
ATOM      5  C   LIG    1        1.677   1.856  -0.004  0.00  0.00    +0.050 A 
ATOM      6  C   LIG    1        2.238   0.610  -0.016  0.00  0.00    -0.100 A 
ATOM      7  C   LIG    1        1.260  -0.462  -0.012  0.00  0.00    -0.040 A 
ATOM      8  C   LIG    1        0.002  -0.004   0.002  0.00  0.00    -0.240 A 
ATOM      9  C   LIG    1       -1.230  -0.889   0.009  0.00  0.00    +0.120 C 
ATOM     10  C   LIG    1       -0.822  -2.302  -0.417  0.00  0.00    -0.010 C 
ATOM     11  C   LIG    1        0.388  -2.745   0.411  0.00  0.00    +0.030 C 
ATOM     12  C   LIG    1       -1.988  -3.264  -0.179  0.00  0.00    +0.030 C 
ATOM     13  C   LIG    1        1.615  -1.940  -0.023  0.00  0.00    +0.100 C 
ATOM     14  S   LIG    1       -0.022   1.752   0.012  0.00  0.00    +0.320 S 
BRANCH   6  15
ATOM     15  C   LIG    1        3.652   0.384  -0.031  0.00  0.00    +0.270 C 
ATOM     16  N   LIG    1        4.774   0.205  -0.042  0.00  0.00    -0.420 NA
ENDBRANCH   6  15
ENDBRANCH   2   5
BRANCH   1  17
ATOM     17  C   LIG    1        2.524   5.514   0.006  0.00  0.00    +0.290 C 
BRANCH  17  18
ATOM     18  O   LIG    1        1.602   6.636   0.021  0.00  0.00    -0.320 OA
BRANCH  18  19
ATOM     19  C   LIG    1        2.142   7.871   0.022  0.00  0.00    +0.560 C 
ATOM     20  O   LIG    1        3.350   8.006   0.011  0.00  0.00    -0.480 OA
BRANCH  19  26
ATOM     21  C   LIG    1        0.713   9.800  -1.104  0.00  0.00    +0.070 A 
ATOM     22  N   LIG    1        0.009  10.759  -0.579  0.00  0.00    -0.340 NA
ATOM     23  O   LIG    1        0.032  10.737   0.627  0.00  0.00    +0.100 OA
ATOM     24  C   LIG    1        0.766   9.737   1.120  0.00  0.00    +0.050 A 
ATOM     25  C   LIG    1        0.998   9.418   2.575  0.00  0.00    +0.200 C 
ATOM     26  C   LIG    1        1.268   9.056   0.037  0.00  0.00    -0.250 A 
BRANCH  21  28
ATOM     27  C   LIG    1       -0.175   8.560  -3.059  0.00  0.00    +0.040 C 
ATOM     28  C   LIG    1        0.917   9.514  -2.569  0.00  0.00    +0.130 C 
ENDBRANCH  21  28
ENDBRANCH  19  26
ENDBRANCH  18  19
ENDBRANCH  17  18
ENDBRANCH   1  17
TORSDOF 7
