REMARK  Name = ZINCrg00000fSFI8.0
REMARK                            x       y       z     vdW  Elec       q    Type
REMARK                         _______ _______ _______ _____ _____    ______ ____
ROOT
ATOM      1  O   LIG    1       -0.868   3.370  -1.732  0.00  0.00    -0.510 OA
ATOM      2  C   LIG    1        0.219   3.742  -2.129  0.00  0.00    +0.550 C 
ATOM      3  N   LIG    1        1.297   3.649  -1.326  0.00  0.00    -0.720 N 
ATOM      4  H   LIG    1        2.165   3.945  -1.642  0.00  0.00    +0.400 HD
ENDROOT
BRANCH   2   5
ATOM      5  C   LIG    1        0.358   4.297  -3.492  0.00  0.00    -0.120 A 
ATOM      6  C   LIG    1        1.604   4.730  -3.949  0.00  0.00    +0.040 A 
ATOM      7  C   LIG    1        1.729   5.242  -5.224  0.00  0.00    +0.030 A 
ATOM      8  C   LIG    1        0.620   5.336  -6.046  0.00  0.00    -0.100 A 
ATOM      9  C   LIG    1       -0.619   4.914  -5.597  0.00  0.00    +0.050 A 
ATOM     10  C   LIG    1       -0.756   4.395  -4.326  0.00  0.00    +0.080 A 
BRANCH   8  11
ATOM     11  C   LIG    1        0.762   5.902  -7.435  0.00  0.00    +0.390 C 
BRANCH  11  12
ATOM     12  N   LIG    1        0.553   7.352  -7.396  0.00  0.00    -0.290 N 
ATOM     13  C   LIG    1        1.417   8.290  -7.851  0.00  0.00    +0.140 A 
ATOM     14  C   LIG    1        0.829   9.487  -7.620  0.00  0.00    +0.140 A 
ATOM     15  N   LIG    1       -0.346   9.227  -7.036  0.00  0.00    -0.270 NA
ATOM     16  N   LIG    1       -0.479   7.953  -6.917  0.00  0.00    -0.080 NA
ENDBRANCH  11  12
ENDBRANCH   8  11
ENDBRANCH   2   5
BRANCH   3  17
ATOM     17  C   LIG    1        1.159   3.099   0.025  0.00  0.00    +0.260 C 
ATOM     18  C   LIG    1        2.334   3.562   0.922  0.00  0.00    +0.050 C 
ATOM     19  C   LIG    1        2.376   2.471   2.020  0.00  0.00    +0.000 C 
ATOM     20  C   LIG    1        2.061   1.161   1.266  0.00  0.00    +0.000 C 
ATOM     21  C   LIG    1        1.286   1.562  -0.002  0.00  0.00    +0.150 C 
BRANCH  21  22
ATOM     22  O   LIG    1       -0.011   0.963   0.007  0.00  0.00    -0.550 OA
ATOM     23  H   LIG    1        0.002  -0.004   0.002  0.00  0.00    +0.380 HD
ENDBRANCH  21  22
BRANCH  19  24
ATOM     24  C   LIG    1        3.766   2.404   2.656  0.00  0.00    +0.330 C 
BRANCH  24  25
ATOM     25  N   LIG    1        3.749   1.452   3.769  0.00  0.00    -0.370 N 
ATOM     26  C   LIG    1        4.566   0.389   3.917  0.00  0.00    +0.220 A 
ATOM     27  C   LIG    1        4.232  -0.231   5.073  0.00  0.00    -0.120 A 
ATOM     28  C   LIG    1        3.167   0.473   5.646  0.00  0.00    +0.220 A 
ATOM     29  N   LIG    1        2.877   1.482   4.865  0.00  0.00    -0.290 NA
ENDBRANCH  24  25
ENDBRANCH  19  24
ENDBRANCH   3  17
TORSDOF 7
