REMARK  Name = ZINCpk000000mCTa.0
REMARK                            x       y       z     vdW  Elec       q    Type
REMARK                         _______ _______ _______ _____ _____    ______ ____
ROOT
ATOM      1  C   LIG    1       -0.618  -1.774  -7.537  0.00  0.00    -0.110 A 
ATOM      2  C   LIG    1       -0.779  -0.441  -7.792  0.00  0.00    +0.310 A 
ATOM      3  N   LIG    1       -1.825  -0.026  -7.050  0.00  0.00    -0.350 N 
ATOM      4  N   LIG    1       -2.290  -1.143  -6.343  0.00  0.00    -0.050 NA
ATOM      5  N   LIG    1       -1.559  -2.156  -6.658  0.00  0.00    -0.200 NA
ENDROOT
BRANCH   1   8
ATOM      6  N   LIG    1        0.465  -3.951  -7.797  0.00  0.00    -0.710 N 
ATOM      7  H   LIG    1       -0.174  -4.316  -7.164  0.00  0.00    +0.410 HD
ATOM      8  C   LIG    1        0.412  -2.647  -8.133  0.00  0.00    +0.610 C 
ATOM      9  O   LIG    1        1.212  -2.190  -8.926  0.00  0.00    -0.530 OA
BRANCH   6  10
ATOM     10  C   LIG    1        1.487  -4.818  -8.388  0.00  0.00    +0.370 C 
ATOM     11  C   LIG    1        2.780  -4.708  -7.577  0.00  0.00    +0.040 C 
BRANCH  10  13
ATOM     12  C   LIG    1        0.640  -7.325  -8.361  0.00  0.00    +0.060 C 
ATOM     13  C   LIG    1        1.016  -6.213  -8.373  0.00  0.00    -0.210 C 
ENDBRANCH  10  13
ENDBRANCH   6  10
ENDBRANCH   1   8
BRANCH   3  14
ATOM     14  C   LIG    1       -2.372   1.332  -6.995  0.00  0.00    +0.340 C 
BRANCH  14  15
ATOM     15  C   LIG    1       -3.864   1.295  -7.333  0.00  0.00    +0.250 C 
ATOM     16  C   LIG    1       -4.059   0.872  -8.804  0.00  0.00    +0.040 C 
ATOM     17  C   LIG    1       -5.240   1.764  -9.269  0.00  0.00    +0.040 C 
ATOM     18  C   LIG    1       -4.963   3.076  -8.493  0.00  0.00    +0.270 C 
ATOM     19  N   LIG    1       -4.444   2.638  -7.184  0.00  0.00    -0.600 N 
ATOM     20  C   LIG    1       -4.492   3.351  -6.042  0.00  0.00    +0.670 C 
ATOM     21  O   LIG    1       -3.951   2.929  -5.039  0.00  0.00    -0.560 OA
BRANCH  20  22
ATOM     22  O   LIG    1       -5.138   4.532  -6.011  0.00  0.00    -0.360 OA
BRANCH  22  23
ATOM     23  C   LIG    1       -5.149   5.245  -4.747  0.00  0.00    +0.140 C 
ATOM     24  C   LIG    1       -5.822   4.380  -3.679  0.00  0.00    +0.040 C 
ATOM     25  C   LIG    1       -5.925   6.554  -4.906  0.00  0.00    +0.080 C 
ATOM     26  C   LIG    1       -3.712   5.553  -4.322  0.00  0.00    +0.040 C 
ENDBRANCH  22  23
ENDBRANCH  20  22
ENDBRANCH  14  15
ENDBRANCH   3  14
TORSDOF 7
