REMARK  Name = ZINCbu0000001gIA.1
REMARK                            x       y       z     vdW  Elec       q    Type
REMARK                         _______ _______ _______ _____ _____    ______ ____
ROOT
ATOM      1  C   LIG    1        1.089   3.612   0.011  0.00  0.00    +0.180 C 
ATOM      2  C   LIG    1        1.133   2.106   0.003  0.00  0.00    +0.090 A 
ATOM      3  C   LIG    1       -0.017   1.405   0.010  0.00  0.00    +0.110 A 
ATOM      4  C   LIG    1        0.002  -0.004   0.002  0.00  0.00    -0.060 A 
ATOM      5  C   LIG    1        1.192  -0.663  -0.013  0.00  0.00    +0.130 A 
ATOM      6  C   LIG    1        2.389   0.081  -0.020  0.00  0.00    +0.070 A 
ATOM      7  C   LIG    1        3.725  -0.263  -0.035  0.00  0.00    +0.270 C 
ATOM      8  N   LIG    1        4.433   0.868  -0.035  0.00  0.00    -0.440 N 
ATOM      9  C   LIG    1        3.626   1.899  -0.022  0.00  0.00    +0.490 C 
ATOM     10  H   LIG    1        5.401   0.919  -0.044  0.00  0.00    +0.470 HD
ATOM     11 BR   LIG    1       -1.621  -0.975   0.013  0.00  0.00    +0.030 Br
ATOM     12  N   LIG    1        2.342   1.461  -0.013  0.00  0.00    -0.330 N 
ENDROOT
TORSDOF 0
