REMARK  Name = ZINCrD000000AkNV.0
REMARK                            x       y       z     vdW  Elec       q    Type
REMARK                         _______ _______ _______ _____ _____    ______ ____
ROOT
ATOM      1  O   LIG    1        3.708   2.432  -2.007  0.00  0.00    -0.520 OA
ATOM      2  C   LIG    1        4.270   2.577  -0.942  0.00  0.00    +0.510 C 
ATOM      3  N   LIG    1        5.442   3.240  -0.883  0.00  0.00    -0.620 N 
ATOM      4  C   LIG    1        6.223   3.493   0.336  0.00  0.00    +0.250 C 
ATOM      5  C   LIG    1        7.469   4.304  -0.078  0.00  0.00    +0.040 C 
ATOM      6  C   LIG    1        7.029   4.955  -1.415  0.00  0.00    +0.040 C 
ATOM      7  C   LIG    1        6.149   3.838  -2.030  0.00  0.00    +0.260 C 
ENDROOT
BRANCH   6   8
ATOM      8  C   LIG    1        8.219   5.249  -2.292  0.00  0.00    -0.050 A 
ATOM      9  C   LIG    1        8.396   6.516  -2.815  0.00  0.00    +0.010 A 
ATOM     10  C   LIG    1        9.488   6.787  -3.618  0.00  0.00    +0.050 A 
ATOM     11  C   LIG    1       10.404   5.791  -3.899  0.00  0.00    -0.010 A 
ATOM     12  C   LIG    1       10.228   4.521  -3.376  0.00  0.00    +0.100 A 
ATOM     13  F   LIG    1       11.123   3.547  -3.650  0.00  0.00    -0.140 F 
ATOM     14  C   LIG    1        9.137   4.252  -2.567  0.00  0.00    -0.010 A 
ENDBRANCH   6   8
BRANCH   2  15
ATOM     15  C   LIG    1        3.658   2.016   0.316  0.00  0.00    +0.340 C 
BRANCH  15  16
ATOM     16  N   LIG    1        2.397   1.346  -0.012  0.00  0.00    -0.540 N 
ATOM     17  C   LIG    1        2.380   0.034  -0.332  0.00  0.00    +0.500 C 
ATOM     18  C   LIG    1        1.078  -0.629  -0.704  0.00  0.00    +0.310 C 
ATOM     19  O   LIG    1        0.002  -0.004   0.002  0.00  0.00    -0.300 OA
ATOM     20  C   LIG    1       -0.016   1.356   0.009  0.00  0.00    +0.090 A 
ATOM     21  C   LIG    1       -1.216   2.045   0.019  0.00  0.00    +0.070 A 
ATOM     22  C   LIG    1       -1.215   3.429   0.032  0.00  0.00    -0.090 A 
ATOM     23  C   LIG    1       -0.020   4.125   0.022  0.00  0.00    +0.060 A 
ATOM     24  C   LIG    1        1.183   3.442   0.008  0.00  0.00    +0.030 A 
ATOM     25 BR   LIG    1       -2.854   4.372   0.053  0.00  0.00    -0.030 Br
ATOM     26  O   LIG    1        3.408  -0.609  -0.319  0.00  0.00    -0.500 OA
ATOM     27  C   LIG    1        1.188   2.058   0.002  0.00  0.00    +0.120 A 
ENDBRANCH  15  16
ENDBRANCH   2  15
TORSDOF 3
