REMARK  Name = ZINCrH00000No4Gq.0
REMARK                            x       y       z     vdW  Elec       q    Type
REMARK                         _______ _______ _______ _____ _____    ______ ____
ROOT
ATOM      1  C   LIG    1       -0.942  -1.933  -2.186  0.00  0.00    +0.560 C 
ATOM      2  N   LIG    1       -1.179  -1.954  -0.859  0.00  0.00    -0.610 N 
ATOM      3  C   LIG    1       -1.367  -3.165  -0.039  0.00  0.00    +0.250 C 
ATOM      4  C   LIG    1       -2.191  -2.692   1.184  0.00  0.00    +0.040 C 
ATOM      5  C   LIG    1       -1.593  -1.282   1.436  0.00  0.00    +0.050 C 
ATOM      6  C   LIG    1       -1.293  -0.774   0.010  0.00  0.00    +0.270 C 
ATOM      7  O   LIG    1       -0.803  -0.870  -2.762  0.00  0.00    -0.530 OA
ENDROOT
BRANCH   6   8
ATOM      8  C   LIG    1        0.002  -0.004   0.002  0.00  0.00    -0.080 A 
ATOM      9  C   LIG    1        1.207  -0.681  -0.013  0.00  0.00    +0.030 A 
ATOM     10  C   LIG    1        2.397   0.022  -0.019  0.00  0.00    +0.020 A 
ATOM     11  C   LIG    1        2.386   1.408  -0.011  0.00  0.00    +0.050 A 
ATOM     12  O   LIG    1        3.566   2.086  -0.013  0.00  0.00    -0.310 OA
ATOM     13  C   LIG    1        3.513   3.469  -0.382  0.00  0.00    +0.220 C 
ATOM     14  C   LIG    1        2.347   4.123   0.372  0.00  0.00    +0.220 C 
ATOM     15  O   LIG    1        1.139   3.450   0.002  0.00  0.00    -0.310 OA
ATOM     16  C   LIG    1        1.174   2.089   0.002  0.00  0.00    +0.050 A 
ATOM     17  C   LIG    1       -0.017   1.378   0.010  0.00  0.00    +0.030 A 
ENDBRANCH   6   8
BRANCH   1  19
ATOM     18  C   LIG    1       -0.614  -3.168  -4.261  0.00  0.00    +0.110 C 
ATOM     19  C   LIG    1       -0.851  -3.189  -2.934  0.00  0.00    -0.060 C 
BRANCH  18  25
ATOM     20  C   LIG    1       -0.280  -4.412  -6.402  0.00  0.00    -0.010 A 
ATOM     21  C   LIG    1       -0.191  -5.617  -7.098  0.00  0.00    +0.070 A 
ATOM     22  C   LIG    1       -0.351  -6.814  -6.430  0.00  0.00    +0.030 A 
ATOM     23  C   LIG    1       -0.595  -6.831  -5.067  0.00  0.00    +0.050 A 
ATOM     24  C   LIG    1       -0.681  -5.651  -4.356  0.00  0.00    +0.040 A 
ATOM     25  C   LIG    1       -0.523  -4.429  -5.013  0.00  0.00    -0.030 A 
BRANCH  20  27
ATOM     26  N   LIG    1        0.005  -2.180  -7.639  0.00  0.00    -0.400 NA
ATOM     27  C   LIG    1       -0.121  -3.168  -7.092  0.00  0.00    +0.240 C 
ENDBRANCH  20  27
ENDBRANCH  18  25
ENDBRANCH   1  19
TORSDOF 4
