REMARK  Name = ZINCrH000004joDP.0
REMARK                            x       y       z     vdW  Elec       q    Type
REMARK                         _______ _______ _______ _____ _____    ______ ____
ROOT
ATOM      1  C   LIG    1        2.353  -4.805  -0.046  0.00  0.00    +0.000 C 
ATOM      2  C   LIG    1        1.558  -4.657  -1.345  0.00  0.00    +0.100 C 
ENDROOT
BRANCH   1   3
ATOM      3  C   LIG    1        2.875  -6.214   0.066  0.00  0.00    +0.420 C 
ATOM      4  O   LIG    1        3.997  -6.477  -0.311  0.00  0.00    -0.430 OA
BRANCH   3   5
ATOM      5  C   LIG    1        2.024  -7.270   0.630  0.00  0.00    -0.160 A 
ATOM      6  C   LIG    1        0.730  -6.968   1.071  0.00  0.00    +0.090 A 
ATOM      7  C   LIG    1       -0.070  -7.959   1.596  0.00  0.00    +0.030 A 
ATOM      8  C   LIG    1        0.408  -9.257   1.699  0.00  0.00    +0.120 A 
ATOM      9  O   LIG    1       -0.372 -10.239   2.219  0.00  0.00    -0.300 OA
ATOM     10  C   LIG    1       -0.197 -11.553   1.681  0.00  0.00    +0.310 C 
ATOM     11  C   LIG    1        1.274 -11.875   1.601  0.00  0.00    +0.490 C 
ATOM     12  N   LIG    1        2.166 -10.884   1.382  0.00  0.00    -0.660 N 
ATOM     13  H   LIG    1        3.112 -11.082   1.305  0.00  0.00    +0.420 HD
ATOM     14  O   LIG    1        1.654 -13.019   1.733  0.00  0.00    -0.500 OA
ATOM     15  C   LIG    1        1.702  -9.566   1.267  0.00  0.00    +0.080 A 
ATOM     16  C   LIG    1        2.507  -8.581   0.735  0.00  0.00    +0.090 A 
ENDBRANCH   3   5
ENDBRANCH   1   3
BRANCH   1  17
ATOM     17  S   LIG    1        3.743  -3.646  -0.053  0.00  0.00    +0.040 S 
BRANCH  17  26
ATOM     18  N   LIG    1        3.446  -0.880  -0.036  0.00  0.00    -0.470 N 
ATOM     19  C   LIG    1        2.421   0.053  -0.021  0.00  0.00    +0.060 A 
ATOM     20  C   LIG    1        2.384   1.439  -0.012  0.00  0.00    +0.010 A 
ATOM     21  C   LIG    1        1.168   2.093   0.002  0.00  0.00    +0.030 A 
ATOM     22  C   LIG    1       -0.017   1.373   0.010  0.00  0.00    +0.010 A 
ATOM     23  C   LIG    1        0.002  -0.004   0.002  0.00  0.00    +0.060 A 
ATOM     24  C   LIG    1        1.224  -0.681  -0.013  0.00  0.00    +0.060 A 
ATOM     25  N   LIG    1        1.561  -1.997  -0.024  0.00  0.00    -0.490 NA
ATOM     26  C   LIG    1        2.866  -2.117  -0.037  0.00  0.00    +0.250 A 
BRANCH  18  28
ATOM     27  C   LIG    1        5.369  -0.486  -1.495  0.00  0.00    +0.040 C 
ATOM     28  C   LIG    1        4.882  -0.593  -0.048  0.00  0.00    +0.300 C 
ENDBRANCH  18  28
ENDBRANCH  17  26
ENDBRANCH   1  17
TORSDOF 5
