REMARK  Name = ZINCnE00000hdbCp.0
REMARK                            x       y       z     vdW  Elec       q    Type
REMARK                         _______ _______ _______ _____ _____    ______ ____
ROOT
ATOM      1  C   LIG    1        4.328   2.659   1.232  0.00  0.00    +0.040 C 
ATOM      2  C   LIG    1        3.446   2.597  -0.016  0.00  0.00    +0.220 C 
ATOM      3  C   LIG    1        2.611   1.306  -0.015  0.00  0.00    +0.100 C 
ATOM      4  C   LIG    1        1.175   1.781   0.000  0.00  0.00    -0.140 A 
ATOM      5  C   LIG    1       -0.013   1.076   0.008  0.00  0.00    +0.050 A 
ATOM      6  C   LIG    1       -1.220   1.749   0.017  0.00  0.00    -0.020 A 
ATOM      7  C   LIG    1       -1.236   3.132   0.031  0.00  0.00    +0.050 A 
ATOM      8  C   LIG    1       -0.053   3.840   0.023  0.00  0.00    -0.020 A 
ATOM      9  C   LIG    1        1.169   3.167   0.008  0.00  0.00    +0.150 A 
ATOM     10  N   LIG    1        2.467   3.688  -0.001  0.00  0.00    -0.550 N 
ATOM     11  C   LIG    1        2.773   5.000   0.003  0.00  0.00    +0.550 C 
ATOM     12  O   LIG    1        3.934   5.352  -0.007  0.00  0.00    -0.490 OA
ENDROOT
BRANCH  11  13
ATOM     13  C   LIG    1        1.674   6.030   0.018  0.00  0.00    -0.020 C 
BRANCH  13  14
ATOM     14  S   LIG    1        2.400   7.688   0.020  0.00  0.00    +0.110 S 
BRANCH  14  15
ATOM     15  C   LIG    1        0.934   8.665   0.039  0.00  0.00    -0.090 A 
ATOM     16  C   LIG    1       -0.315   8.052   0.048  0.00  0.00    -0.050 A 
ATOM     17  C   LIG    1       -1.461   8.819   0.063  0.00  0.00    +0.000 A 
ATOM     18  C   LIG    1       -1.381  10.203   0.069  0.00  0.00    -0.030 A 
ATOM     19  C   LIG    1       -0.155  10.830   0.061  0.00  0.00    +0.060 A 
ATOM     20  C   LIG    1        1.019  10.069   0.051  0.00  0.00    -0.120 A 
BRANCH  20  21
ATOM     21  C   LIG    1        2.331  10.731   0.048  0.00  0.00    +0.520 C 
ATOM     22  O   LIG    1        3.354  10.060   0.035  0.00  0.00    -0.650 OA
ATOM     23  O   LIG    1        2.400  11.952   0.059  0.00  0.00    -0.680 OA
ENDBRANCH  20  21
ENDBRANCH  14  15
ENDBRANCH  13  14
ENDBRANCH  11  13
TORSDOF 4
