REMARK  Name = ZINCpe000000WgLI.0
REMARK                            x       y       z     vdW  Elec       q    Type
REMARK                         _______ _______ _______ _____ _____    ______ ____
ROOT
ATOM      1  C   LIG    1       -1.187   1.624   0.017  0.00  0.00    +0.560 C 
ATOM      2  N   LIG    1       -0.011   0.966   0.007  0.00  0.00    -0.730 N 
ATOM      3  H   LIG    1        0.002  -0.004   0.002  0.00  0.00    +0.400 HD
ATOM      4  O   LIG    1       -1.204   2.839   0.023  0.00  0.00    -0.530 OA
ENDROOT
BRANCH   1   7
ATOM      5  C   LIG    1       -4.862   0.831   0.029  0.00  0.00    +0.120 A 
ATOM      6  C   LIG    1       -3.677   1.546   0.028  0.00  0.00    -0.010 A 
ATOM      7  C   LIG    1       -2.458   0.867   0.018  0.00  0.00    -0.100 A 
ATOM      8  C   LIG    1       -2.442  -0.528   0.005  0.00  0.00    +0.010 A 
ATOM      9  C   LIG    1       -3.629  -1.231   0.012  0.00  0.00    +0.050 A 
ATOM     10  C   LIG    1       -4.836  -0.558   0.021  0.00  0.00    -0.090 A 
ATOM     11  C   LIG    1       -6.129  -1.333   0.022  0.00  0.00    +0.100 C 
BRANCH   5  13
ATOM     12  C   LIG    1       -6.004   2.916   0.045  0.00  0.00    +0.240 C 
ATOM     13  O   LIG    1       -6.052   1.488   0.038  0.00  0.00    -0.310 OA
ENDBRANCH   5  13
ENDBRANCH   1   7
BRANCH   2  14
ATOM     14  C   LIG    1        1.248   1.716  -0.001  0.00  0.00    +0.290 C 
BRANCH  14  15
ATOM     15  C   LIG    1        2.424   0.737  -0.017  0.00  0.00    +0.050 C 
BRANCH  15  16
ATOM     16  C   LIG    1        3.719   1.508  -0.025  0.00  0.00    +0.520 C 
ATOM     17  N   LIG    1        4.895   0.851  -0.040  0.00  0.00    -0.620 N 
ATOM     18  C   LIG    1        4.930  -0.619  -0.042  0.00  0.00    +0.270 C 
ATOM     19  C   LIG    1        5.759  -1.083  -1.252  0.00  0.00    +0.270 C 
ATOM     20  N   LIG    1        7.029  -0.344  -1.260  0.00  0.00    -0.620 N 
ATOM     21  C   LIG    1        6.994   1.125  -1.252  0.00  0.00    +0.280 C 
ATOM     22  C   LIG    1        8.206  -1.002  -1.274  0.00  0.00    +0.510 C 
ATOM     23  O   LIG    1        9.248  -0.381  -1.280  0.00  0.00    -0.540 OA
ATOM     24  C   LIG    1        8.226  -2.509  -1.282  0.00  0.00    +0.100 C 
ATOM     25  C   LIG    1        6.165   1.589  -0.048  0.00  0.00    +0.280 C 
ATOM     26  O   LIG    1        3.702   2.721  -0.019  0.00  0.00    -0.530 OA
ENDBRANCH  15  16
ENDBRANCH  14  15
ENDBRANCH   2  14
TORSDOF 5
