REMARK  Name = ZINCqH0000003sia.0
REMARK                            x       y       z     vdW  Elec       q    Type
REMARK                         _______ _______ _______ _____ _____    ______ ____
ROOT
ATOM      1  C   LIG    1        0.370   9.560   0.556  0.00  0.00    -0.140 A 
ATOM      2  C   LIG    1        0.382   9.572   1.958  0.00  0.00    +0.100 A 
ATOM      3  C   LIG    1        0.436   8.403   2.659  0.00  0.00    +0.010 A 
ATOM      4  C   LIG    1        0.478   7.186   1.986  0.00  0.00    +0.080 A 
ATOM      5  C   LIG    1        0.466   7.156   0.579  0.00  0.00    +0.030 A 
ATOM      6  N   LIG    1        0.520   5.849   0.211  0.00  0.00    -0.480 NA
ATOM      7  C   LIG    1        0.555   5.099   1.274  0.00  0.00    +0.290 A 
ATOM      8  N   LIG    1        0.534   5.872   2.394  0.00  0.00    -0.470 N 
ATOM      9  C   LIG    1        0.412   8.352  -0.134  0.00  0.00    +0.170 A 
ENDROOT
BRANCH   1  10
ATOM     10  C   LIG    1        0.313  10.832  -0.190  0.00  0.00    +0.520 C 
ATOM     11  O   LIG    1        0.302  10.824  -1.405  0.00  0.00    -0.510 OA
BRANCH  10  12
ATOM     12  O   LIG    1        0.273  12.002   0.476  0.00  0.00    -0.350 OA
BRANCH  12  14
ATOM     13  C   LIG    1        0.177  14.433   0.602  0.00  0.00    +0.070 C 
ATOM     14  C   LIG    1        0.217  13.214  -0.322  0.00  0.00    +0.200 C 
ENDBRANCH  12  14
ENDBRANCH  10  12
ENDBRANCH   1  10
BRANCH   8  15
ATOM     15  C   LIG    1        0.565   5.393   3.778  0.00  0.00    +0.300 C 
ATOM     16  C   LIG    1        2.018   5.284   4.247  0.00  0.00    +0.030 C 
ENDBRANCH   8  15
BRANCH   7  17
ATOM     17  C   LIG    1        0.615   3.593   1.265  0.00  0.00    +0.310 C 
BRANCH  17  18
ATOM     18  N   LIG    1       -0.749   3.048   1.275  0.00  0.00    -0.660 NA
ATOM     19  H   LIG    1       -1.287   3.407   0.500  0.00  0.00    +0.350 HD
BRANCH  18  20
ATOM     20  C   LIG    1       -0.729   1.579   1.267  0.00  0.00    +0.200 C 
ATOM     21  C   LIG    1        0.011   1.072   2.506  0.00  0.00    +0.080 C 
ATOM     22  C   LIG    1       -0.013   1.086   0.008  0.00  0.00    +0.020 C 
BRANCH  20  23
ATOM     23  C   LIG    1       -2.143   1.058   1.278  0.00  0.00    +0.050 A 
ATOM     24  N   LIG    1       -3.036   1.362   2.158  0.00  0.00    -0.450 NA
ATOM     25  C   LIG    1       -4.228   0.819   2.017  0.00  0.00    +0.220 A 
ATOM     26  C   LIG    1       -4.344   0.003   0.965  0.00  0.00    -0.080 A 
ATOM     27  S   LIG    1       -2.793  -0.029   0.129  0.00  0.00    +0.130 S 
ENDBRANCH  20  23
ENDBRANCH  18  20
ENDBRANCH  17  18
ENDBRANCH   7  17
TORSDOF 8
