REMARK  Name = ZINCrH000004o1Du.2
REMARK                            x       y       z     vdW  Elec       q    Type
REMARK                         _______ _______ _______ _____ _____    ______ ____
ROOT
ATOM      1  C   LIG    1        5.331   1.473  -3.100  0.00  0.00    +0.520 C 
ATOM      2  N   LIG    1        5.247   1.444  -4.445  0.00  0.00    -0.670 N 
ATOM      3  H   LIG    1        4.745   0.741  -4.884  0.00  0.00    +0.410 HD
ATOM      4  O   LIG    1        6.036   2.295  -2.554  0.00  0.00    -0.500 OA
ENDROOT
BRANCH   2   5
ATOM      5  C   LIG    1        5.887   2.430  -5.208  0.00  0.00    +0.120 A 
ATOM      6  C   LIG    1        5.994   3.726  -4.720  0.00  0.00    +0.050 A 
ATOM      7  C   LIG    1        6.629   4.696  -5.469  0.00  0.00    -0.020 A 
ATOM      8  C   LIG    1        7.152   4.378  -6.716  0.00  0.00    +0.090 A 
ATOM      9  C   LIG    1        7.041   3.084  -7.206  0.00  0.00    +0.010 A 
ATOM     10  C   LIG    1        6.410   2.113  -6.455  0.00  0.00    +0.010 A 
BRANCH   8  11
ATOM     11  N   LIG    1        7.792   5.362  -7.477  0.00  0.00    -0.490 N 
ATOM     12  C   LIG    1        9.160   4.953  -7.825  0.00  0.00    +0.160 C 
ATOM     13  C   LIG    1        9.801   6.029  -8.706  0.00  0.00    +0.220 C 
ATOM     14  O   LIG    1        9.769   7.282  -8.018  0.00  0.00    -0.380 OA
ATOM     15  C   LIG    1        8.451   7.712  -7.665  0.00  0.00    +0.220 C 
ATOM     16  C   LIG    1        7.797   6.653  -6.773  0.00  0.00    +0.160 C 
ENDBRANCH   8  11
ENDBRANCH   2   5
BRANCH   1  18
ATOM     17  C   LIG    1        3.053   0.657  -2.557  0.00  0.00    +0.060 C 
ATOM     18  C   LIG    1        4.547   0.485  -2.275  0.00  0.00    +0.130 C 
BRANCH  18  19
ATOM     19  N   LIG    1        4.807   0.723  -0.849  0.00  0.00    -0.480 NA
ATOM     20  C   LIG    1        6.230   0.458  -0.515  0.00  0.00    +0.170 C 
ATOM     21  C   LIG    1        6.234   0.217   1.010  0.00  0.00    +0.030 C 
ATOM     22  C   LIG    1        4.799  -0.239   1.347  0.00  0.00    +0.040 C 
ATOM     23  C   LIG    1        4.049  -0.234  -0.002  0.00  0.00    +0.200 C 
BRANCH  23  24
ATOM     24  C   LIG    1        2.631   0.239   0.186  0.00  0.00    -0.160 A 
ATOM     25  C   LIG    1        1.557  -0.550   0.241  0.00  0.00    -0.010 A 
ATOM     26  C   LIG    1        0.355   0.112   0.420  0.00  0.00    +0.000 A 
ATOM     27  C   LIG    1        0.452   1.439   0.511  0.00  0.00    -0.070 A 
ATOM     28  S   LIG    1        2.138   1.918   0.366  0.00  0.00    +0.150 S 
ENDBRANCH  23  24
ENDBRANCH  18  19
ENDBRANCH   1  18
TORSDOF 5
