REMARK  Name = ZINCpk00000KfL2S.0
REMARK                            x       y       z     vdW  Elec       q    Type
REMARK                         _______ _______ _______ _____ _____    ______ ____
ROOT
ATOM      1  N   LIG    1       -0.579   1.511   1.086  0.00  0.00    -0.510 NA
ATOM      2  C   LIG    1       -1.931   0.938   1.184  0.00  0.00    +0.240 C 
ATOM      3  C   LIG    1       -1.821  -0.587   1.126  0.00  0.00    +0.080 C 
ATOM      4  C   LIG    1       -0.792  -1.063   2.116  0.00  0.00    +0.180 A 
ATOM      5  N   LIG    1       -0.776  -2.344   2.470  0.00  0.00    -0.520 NA
ATOM      6  C   LIG    1        0.110  -2.800   3.331  0.00  0.00    +0.510 A 
ATOM      7  N   LIG    1        1.016  -2.015   3.878  0.00  0.00    -0.550 NA
ATOM      8  C   LIG    1        1.062  -0.722   3.574  0.00  0.00    +0.350 A 
ATOM      9  C   LIG    1        0.134  -0.207   2.664  0.00  0.00    -0.190 A 
ATOM     10  C   LIG    1        0.173   1.256   2.320  0.00  0.00    +0.310 C 
ENDROOT
BRANCH   8  11
ATOM     11  N   LIG    1        2.015   0.102   4.150  0.00  0.00    -0.480 N 
ATOM     12  C   LIG    1        3.373  -0.334   3.794  0.00  0.00    +0.160 C 
ATOM     13  C   LIG    1        4.391   0.637   4.400  0.00  0.00    +0.230 C 
ATOM     14  O   LIG    1        4.196   0.701   5.815  0.00  0.00    -0.380 OA
ATOM     15  C   LIG    1        2.884   1.123   6.198  0.00  0.00    +0.230 C 
ATOM     16  C   LIG    1        1.852   0.157   5.610  0.00  0.00    +0.170 C 
ENDBRANCH   8  11
BRANCH   1  17
ATOM     17  C   LIG    1        0.134   0.980  -0.084  0.00  0.00    +0.150 C 
BRANCH  17  18
ATOM     18  C   LIG    1       -0.557   1.458  -1.362  0.00  0.00    +0.270 C 
BRANCH  18  19
ATOM     19  C   LIG    1        0.098   0.816  -2.558  0.00  0.00    -0.120 A 
ATOM     20  C   LIG    1        1.282   1.328  -3.055  0.00  0.00    +0.010 A 
ATOM     21  C   LIG    1        1.886   0.737  -4.149  0.00  0.00    +0.000 A 
ATOM     22  C   LIG    1        1.301  -0.361  -4.752  0.00  0.00    +0.000 A 
ATOM     23  C   LIG    1        0.114  -0.870  -4.258  0.00  0.00    +0.000 A 
ATOM     24  C   LIG    1       -0.488  -0.281  -3.161  0.00  0.00    +0.010 A 
ENDBRANCH  18  19
BRANCH  18  25
ATOM     25  O   LIG    1       -0.444   2.879  -1.463  0.00  0.00    -0.540 OA
ATOM     26  H   LIG    1        0.468   3.200  -1.494  0.00  0.00    +0.370 HD
ENDBRANCH  18  25
ENDBRANCH  17  18
ENDBRANCH   1  17
TORSDOF 5
