REMARK  Name = ZINCpk000000oXJL.0
REMARK                            x       y       z     vdW  Elec       q    Type
REMARK                         _______ _______ _______ _____ _____    ______ ____
ROOT
ATOM      1  N   LIG    1        7.322   1.631  -0.060  0.00  0.00    -0.720 N 
ATOM      2  H   LIG    1        7.515   0.680  -0.068  0.00  0.00    +0.410 HD
ATOM      3  C   LIG    1        6.043   2.058  -0.045  0.00  0.00    +0.510 C 
ATOM      4  O   LIG    1        5.801   3.246  -0.036  0.00  0.00    -0.530 OA
ENDROOT
BRANCH   1   9
ATOM      5  C   LIG    1       12.201   3.501  -1.392  0.00  0.00    +0.650 C 
ATOM      6  N   LIG    1       10.989   3.523  -0.802  0.00  0.00    -0.600 N 
ATOM      7  C   LIG    1       10.807   2.986   0.554  0.00  0.00    +0.310 C 
ATOM      8  C   LIG    1        9.673   1.958   0.529  0.00  0.00    +0.030 C 
ATOM      9  C   LIG    1        8.418   2.602  -0.066  0.00  0.00    +0.240 C 
ATOM     10  C   LIG    1        8.702   3.043  -1.503  0.00  0.00    +0.000 C 
ATOM     11  C   LIG    1        9.826   4.084  -1.502  0.00  0.00    +0.300 C 
ATOM     12  O   LIG    1       13.155   3.034  -0.803  0.00  0.00    -0.570 OA
BRANCH   5  13
ATOM     13  O   LIG    1       12.353   3.995  -2.635  0.00  0.00    -0.370 OA
BRANCH  13  15
ATOM     14  C   LIG    1       13.662   4.543  -4.614  0.00  0.00    +0.070 C 
ATOM     15  C   LIG    1       13.686   3.939  -3.209  0.00  0.00    +0.220 C 
ENDBRANCH  13  15
ENDBRANCH   5  13
ENDBRANCH   1   9
BRANCH   3  16
ATOM     16  C   LIG    1        4.915   1.059  -0.040  0.00  0.00    +0.300 C 
BRANCH  16  17
ATOM     17  N   LIG    1        3.634   1.769  -0.024  0.00  0.00    -0.720 N 
ATOM     18  H   LIG    1        3.617   2.739  -0.018  0.00  0.00    +0.410 HD
ATOM     19  C   LIG    1        2.479   1.075  -0.016  0.00  0.00    +0.560 C 
ATOM     20  O   LIG    1        2.500  -0.141  -0.024  0.00  0.00    -0.540 OA
BRANCH  19  21
ATOM     21  C   LIG    1        1.186   1.792   0.000  0.00  0.00    -0.150 A 
ATOM     22  C   LIG    1       -0.013   1.076   0.008  0.00  0.00    +0.090 A 
ATOM     23  C   LIG    1       -1.216   1.751   0.017  0.00  0.00    +0.000 A 
ATOM     24  C   LIG    1       -1.236   3.134   0.031  0.00  0.00    -0.060 A 
ATOM     25  C   LIG    1       -0.052   3.850   0.023  0.00  0.00    +0.000 A 
ATOM     26  C   LIG    1       -2.554   3.865   0.048  0.00  0.00    +0.100 C 
ATOM     27  C   LIG    1        1.158   3.187   0.008  0.00  0.00    +0.050 A 
ENDBRANCH  19  21
ENDBRANCH  16  17
ENDBRANCH   3  16
TORSDOF 6
