REMARK  Name = ZINCpk00000y6uAp.0
REMARK                            x       y       z     vdW  Elec       q    Type
REMARK                         _______ _______ _______ _____ _____    ______ ____
ROOT
ATOM      1  N   LIG    1        2.383   1.151  -0.032  0.00  0.00    -0.480 N 
ATOM      2  C   LIG    1        3.475   2.110   0.127  0.00  0.00    +0.220 C 
ATOM      3  C   LIG    1        4.576   1.475   0.947  0.00  0.00    +0.040 C 
ATOM      4  C   LIG    1        5.600   0.811   0.011  0.00  0.00    +0.260 C 
ATOM      5  N   LIG    1        4.933   0.131  -1.117  0.00  0.00    -0.610 N 
ATOM      6  C   LIG    1        3.725  -0.651  -0.951  0.00  0.00    +0.310 C 
ATOM      7  C   LIG    1        5.468   0.243  -2.349  0.00  0.00    +0.510 C 
ATOM      8  O   LIG    1        4.987  -0.372  -3.277  0.00  0.00    -0.510 OA
ATOM      9  C   LIG    1        2.486   0.259  -1.125  0.00  0.00    +0.190 C 
ENDROOT
BRANCH   1  14
ATOM     10  C   LIG    1       -2.470   3.917  -0.013  0.00  0.00    +0.140 C 
ATOM     11  C   LIG    1       -1.189   3.124  -0.018  0.00  0.00    +0.040 A 
ATOM     12  C   LIG    1       -1.231   1.737  -0.019  0.00  0.00    +0.060 A 
ATOM     13  C   LIG    1       -0.028   1.049  -0.019  0.00  0.00    +0.020 A 
ATOM     14  C   LIG    1        1.150   1.794  -0.028  0.00  0.00    +0.250 A 
ATOM     15  N   LIG    1        1.090   3.118  -0.031  0.00  0.00    -0.280 NA
ATOM     16  N   LIG    1       -0.028   3.749  -0.026  0.00  0.00    -0.220 NA
ENDBRANCH   1  14
BRANCH   7  17
ATOM     17  C   LIG    1        6.664   1.132  -2.573  0.00  0.00    +0.150 C 
ATOM     18  C   LIG    1        7.895   0.507  -1.914  0.00  0.00    +0.040 C 
BRANCH  17  19
ATOM     19  O   LIG    1        6.896   1.274  -3.976  0.00  0.00    -0.350 OA
BRANCH  19  20
ATOM     20  C   LIG    1        7.487   2.522  -4.345  0.00  0.00    +0.180 C 
BRANCH  20  21
ATOM     21  C   LIG    1        7.688   2.563  -5.861  0.00  0.00    +0.160 C 
ATOM     22  C   LIG    1        8.244   3.943  -6.292  0.00  0.00    +0.020 C 
ATOM     23  C   LIG    1        8.955   3.571  -7.622  0.00  0.00    +0.000 C 
ATOM     24  C   LIG    1        9.473   2.146  -7.331  0.00  0.00    +0.190 C 
ATOM     25  O   LIG    1        8.690   1.613  -6.256  0.00  0.00    -0.370 OA
ENDBRANCH  20  21
ENDBRANCH  19  20
ENDBRANCH  17  19
ENDBRANCH   7  17
TORSDOF 5
