REMARK  Name = ZINCzw0000000djB.0
REMARK                            x       y       z     vdW  Elec       q    Type
REMARK                         _______ _______ _______ _____ _____    ______ ____
ROOT
ATOM      1  N   LIG    1       -0.728   1.574  -1.174  0.00  0.00    -0.710 N 
ATOM      2  H   LIG    1       -0.441   2.392  -1.611  0.00  0.00    +0.400 HD
ATOM      3  C   LIG    1       -1.783   0.888  -1.654  0.00  0.00    +0.530 C 
ATOM      4  O   LIG    1       -2.141  -0.134  -1.108  0.00  0.00    -0.490 OA
ENDROOT
BRANCH   1  12
ATOM      5  C   LIG    1        1.421   1.618  -0.003  0.00  0.00    +0.300 C 
ATOM      6  N   LIG    1        1.432   3.057   0.230  0.00  0.00    -0.710 N 
ATOM      7  H   LIG    1        2.225   3.553  -0.028  0.00  0.00    +0.410 HD
ATOM      8  C   LIG    1        0.421   3.735   0.774  0.00  0.00    +0.520 C 
ATOM      9  C   LIG    1       -0.881   3.102   1.174  0.00  0.00    +0.070 C 
ATOM     10  C   LIG    1       -0.712   1.584   1.279  0.00  0.00    +0.040 C 
ATOM     11  O   LIG    1        0.560   4.926   0.957  0.00  0.00    -0.540 OA
ATOM     12  C   LIG    1       -0.013   1.086   0.008  0.00  0.00    +0.260 C 
BRANCH   5  17
ATOM     13  N   LIG    1        2.821   0.258  -1.639  0.00  0.00    -0.350 N 
ATOM     14  N   LIG    1        3.201   0.365  -2.984  0.00  0.00    -0.270 NA
ATOM     15  C   LIG    1        2.676   1.459  -3.471  0.00  0.00    +0.230 A 
ATOM     16  C   LIG    1        1.941   2.081  -2.457  0.00  0.00    -0.120 A 
ATOM     17  C   LIG    1        2.051   1.325  -1.340  0.00  0.00    +0.060 A 
BRANCH  13  19
ATOM     18  C   LIG    1        2.148  -1.935  -0.794  0.00  0.00    +0.040 C 
ATOM     19  C   LIG    1        3.194  -0.821  -0.722  0.00  0.00    +0.320 C 
ENDBRANCH  13  19
ENDBRANCH   5  17
ENDBRANCH   1  12
BRANCH   3  20
ATOM     20  C   LIG    1       -2.518   1.390  -2.870  0.00  0.00    +0.010 C 
ATOM     21  C   LIG    1       -3.184   2.759  -2.582  0.00  0.00    +0.280 C 
ATOM     22  N   LIG    1       -4.295   2.811  -3.566  0.00  0.00    -0.390 N 
ATOM     23  C   LIG    1       -4.851   1.442  -3.619  0.00  0.00    +0.280 C 
ATOM     24  H   LIG    1       -3.944   3.081  -4.473  0.00  0.00    +0.430 HD
ATOM     25  C   LIG    1       -3.723   0.478  -3.197  0.00  0.00    +0.110 C 
BRANCH  25  26
ATOM     26  C   LIG    1       -3.379  -0.458  -4.327  0.00  0.00    +0.120 A 
ATOM     27  C   LIG    1       -3.530  -0.035  -5.634  0.00  0.00    -0.050 A 
ATOM     28  C   LIG    1       -3.206  -0.902  -6.667  0.00  0.00    +0.080 A 
ATOM     29  C   LIG    1       -2.750  -2.171  -6.344  0.00  0.00    -0.020 A 
ATOM     30  C   LIG    1       -2.630  -2.525  -5.014  0.00  0.00    +0.280 A 
ATOM     31  N   LIG    1       -2.942  -1.673  -4.058  0.00  0.00    -0.460 NA
ENDBRANCH  25  26
BRANCH  22  32
ATOM     32  C   LIG    1       -5.324   3.759  -3.118  0.00  0.00    +0.330 C 
BRANCH  32  33
ATOM     33  C   LIG    1       -4.761   5.157  -3.136  0.00  0.00    -0.160 A 
ATOM     34  C   LIG    1       -4.140   5.666  -2.011  0.00  0.00    +0.040 A 
ATOM     35  C   LIG    1       -3.619   6.947  -2.029  0.00  0.00    +0.030 A 
ATOM     36  C   LIG    1       -3.729   7.722  -3.168  0.00  0.00    +0.060 A 
ATOM     37  C   LIG    1       -4.356   7.215  -4.291  0.00  0.00    +0.030 A 
ATOM     38  C   LIG    1       -4.872   5.932  -4.275  0.00  0.00    +0.040 A 
ENDBRANCH  32  33
ENDBRANCH  22  32
ENDBRANCH   3  20
TORSDOF 7
