REMARK  Name = ZINCzw0000000djB.1
REMARK                            x       y       z     vdW  Elec       q    Type
REMARK                         _______ _______ _______ _____ _____    ______ ____
ROOT
ATOM      1  N   LIG    1       -1.043   3.150   1.054  0.00  0.00    -0.710 N 
ATOM      2  H   LIG    1       -1.843   3.555   0.684  0.00  0.00    +0.400 HD
ATOM      3  C   LIG    1       -0.038   3.928   1.502  0.00  0.00    +0.510 C 
ATOM      4  O   LIG    1        0.961   3.421   1.966  0.00  0.00    -0.510 OA
ENDROOT
BRANCH   1  12
ATOM      5  C   LIG    1       -2.326   1.068   1.147  0.00  0.00    +0.310 C 
ATOM      6  N   LIG    1       -2.981   1.242  -0.143  0.00  0.00    -0.710 N 
ATOM      7  H   LIG    1       -3.946   1.151  -0.179  0.00  0.00    +0.410 HD
ATOM      8  C   LIG    1       -2.337   1.519  -1.277  0.00  0.00    +0.520 C 
ATOM      9  C   LIG    1       -0.852   1.734  -1.357  0.00  0.00    +0.070 C 
ATOM     10  C   LIG    1       -0.177   1.171  -0.103  0.00  0.00    +0.040 C 
ATOM     11  O   LIG    1       -2.984   1.602  -2.300  0.00  0.00    -0.530 OA
ATOM     12  C   LIG    1       -0.929   1.691   1.128  0.00  0.00    +0.260 C 
BRANCH   5  17
ATOM     13  N   LIG    1       -3.305   1.304   3.488  0.00  0.00    -0.350 N 
ATOM     14  N   LIG    1       -4.144   2.209   4.151  0.00  0.00    -0.270 NA
ATOM     15  C   LIG    1       -4.480   3.150   3.306  0.00  0.00    +0.240 A 
ATOM     16  C   LIG    1       -3.862   2.878   2.081  0.00  0.00    -0.120 A 
ATOM     17  C   LIG    1       -3.150   1.736   2.218  0.00  0.00    +0.060 A 
BRANCH  13  19
ATOM     18  C   LIG    1       -1.341   0.457   4.675  0.00  0.00    +0.040 C 
ATOM     19  C   LIG    1       -2.701   0.103   4.069  0.00  0.00    +0.320 C 
ENDBRANCH  13  19
ENDBRANCH   5  17
ENDBRANCH   1  12
BRANCH   3  20
ATOM     20  C   LIG    1       -0.155   5.428   1.426  0.00  0.00    +0.020 C 
ATOM     21  C   LIG    1       -0.296   5.882  -0.043  0.00  0.00    +0.290 C 
ATOM     22  N   LIG    1        1.088   6.218  -0.465  0.00  0.00    -0.390 N 
ATOM     23  C   LIG    1        1.677   6.893   0.720  0.00  0.00    +0.300 C 
ATOM     24  H   LIG    1        1.603   5.380  -0.686  0.00  0.00    +0.430 HD
ATOM     25  C   LIG    1        1.143   6.093   1.928  0.00  0.00    +0.110 C 
BRANCH  25  26
ATOM     26  C   LIG    1        0.845   7.020   3.079  0.00  0.00    +0.120 A 
ATOM     27  C   LIG    1       -0.327   7.752   3.080  0.00  0.00    -0.040 A 
ATOM     28  C   LIG    1       -0.594   8.598   4.146  0.00  0.00    +0.080 A 
ATOM     29  C   LIG    1        0.337   8.684   5.169  0.00  0.00    -0.010 A 
ATOM     30  C   LIG    1        1.490   7.925   5.096  0.00  0.00    +0.280 A 
ATOM     31  N   LIG    1        1.708   7.127   4.070  0.00  0.00    -0.470 NA
ENDBRANCH  25  26
BRANCH  22  32
ATOM     32  C   LIG    1        1.066   7.130  -1.617  0.00  0.00    +0.330 C 
BRANCH  32  33
ATOM     33  C   LIG    1        0.492   6.415  -2.813  0.00  0.00    -0.170 A 
ATOM     34  C   LIG    1        1.328   5.727  -3.673  0.00  0.00    +0.040 A 
ATOM     35  C   LIG    1        0.801   5.067  -4.768  0.00  0.00    +0.030 A 
ATOM     36  C   LIG    1       -0.560   5.104  -5.007  0.00  0.00    +0.060 A 
ATOM     37  C   LIG    1       -1.395   5.795  -4.150  0.00  0.00    +0.030 A 
ATOM     38  C   LIG    1       -0.869   6.451  -3.052  0.00  0.00    +0.030 A 
ENDBRANCH  32  33
ENDBRANCH  22  32
ENDBRANCH   3  20
TORSDOF 7
