REMARK  Name = ZINCpe00000MJMa5.0
REMARK                            x       y       z     vdW  Elec       q    Type
REMARK                         _______ _______ _______ _____ _____    ______ ____
ROOT
ATOM      1  C   LIG    1       -4.970   3.847   0.068  0.00  0.00    +0.290 C 
ENDROOT
BRANCH   1   5
ATOM      2  C   LIG    1       -9.892   2.690   0.220  0.00  0.00    -0.300 A 
ATOM      3  C   LIG    1       -8.554   2.566  -0.072  0.00  0.00    +0.160 A 
ATOM      4  C   LIG    1       -7.451   3.552   0.216  0.00  0.00    +0.160 C 
ATOM      5  C   LIG    1       -6.108   2.824   0.074  0.00  0.00    -0.020 C 
ATOM      6  C   LIG    1       -6.099   2.041  -1.242  0.00  0.00    +0.040 C 
ATOM      7  C   LIG    1       -7.084   0.871  -1.150  0.00  0.00    +0.320 C 
ATOM      8  N   LIG    1       -8.377   1.377  -0.679  0.00  0.00    -0.360 N 
ATOM      9  N   LIG    1       -9.617   0.742  -0.771  0.00  0.00    -0.290 NA
ATOM     10  C   LIG    1      -10.528   1.513  -0.239  0.00  0.00    +0.270 A 
BRANCH   2  14
ATOM     11  N   LIG    1      -11.870   3.819   1.110  0.00  0.00    -0.850 N 
ATOM     12  H   LIG    1      -12.296   4.572   1.548  0.00  0.00    +0.410 HD
ATOM     13  H   LIG    1      -12.399   3.055   0.832  0.00  0.00    +0.400 HD
ATOM     14  C   LIG    1      -10.540   3.834   0.887  0.00  0.00    +0.600 C 
ATOM     15  O   LIG    1       -9.876   4.792   1.235  0.00  0.00    -0.550 OA
ENDBRANCH   2  14
ENDBRANCH   1   5
BRANCH   1  16
ATOM     16  N   LIG    1       -3.683   3.146   0.053  0.00  0.00    -0.730 N 
ATOM     17  H   LIG    1       -3.659   2.176   0.048  0.00  0.00    +0.400 HD
ATOM     18  C   LIG    1       -2.533   3.848   0.045  0.00  0.00    +0.570 C 
ATOM     19  O   LIG    1       -2.563   5.063   0.052  0.00  0.00    -0.530 OA
BRANCH  18  20
ATOM     20  C   LIG    1       -1.236   3.141   0.030  0.00  0.00    -0.150 A 
ATOM     21  C   LIG    1       -1.204   1.740   0.017  0.00  0.00    +0.060 A 
ATOM     22  C   LIG    1       -0.013   1.076   0.008  0.00  0.00    +0.020 A 
ATOM     23  C   LIG    1        1.183   1.786   0.000  0.00  0.00    +0.070 A 
ATOM     24  N   LIG    1        2.511   1.419  -0.014  0.00  0.00    -0.600 N 
ATOM     25  H   LIG    1        2.857   0.513  -0.021  0.00  0.00    +0.430 HD
ATOM     26  C   LIG    1        3.249   2.563  -0.015  0.00  0.00    +0.490 A 
ATOM     27  N   LIG    1        2.465   3.601  -0.003  0.00  0.00    -0.490 NA
ATOM     28  C   LIG    1        1.169   3.193   0.008  0.00  0.00    +0.040 A 
ATOM     29  C   LIG    1       -0.050   3.868   0.022  0.00  0.00    +0.160 A 
ENDBRANCH  18  20
ENDBRANCH   1  16
TORSDOF 4
