REMARK  Name = ZINCpk00000FdOcb.0
REMARK                            x       y       z     vdW  Elec       q    Type
REMARK                         _______ _______ _______ _____ _____    ______ ____
ROOT
ATOM      1  C   LIG    1        3.202  -6.562  -1.407  0.00  0.00    +0.270 C 
ATOM      2  C   LIG    1        4.229  -5.592  -0.824  0.00  0.00    +0.300 C 
ATOM      3  N   LIG    1        3.513  -4.518  -0.118  0.00  0.00    -0.610 N 
ATOM      4  C   LIG    1        2.478  -4.901   0.856  0.00  0.00    +0.250 C 
ATOM      5  C   LIG    1        1.532  -5.905   0.186  0.00  0.00    +0.240 C 
ATOM      6  C   LIG    1        3.792  -3.222  -0.359  0.00  0.00    +0.520 C 
ATOM      7  O   LIG    1        4.649  -2.927  -1.165  0.00  0.00    -0.500 OA
ATOM      8  O   LIG    1        2.300  -6.971  -0.377  0.00  0.00    -0.380 OA
ENDROOT
BRANCH   6   9
ATOM      9  C   LIG    1        3.041  -2.140   0.372  0.00  0.00    +0.180 C 
ATOM     10  C   LIG    1        1.543  -2.155  -0.016  0.00  0.00    +0.110 C 
ATOM     11  C   LIG    1        1.204  -0.677  -0.015  0.00  0.00    -0.150 A 
ATOM     12  C   LIG    1        0.002  -0.004   0.002  0.00  0.00    +0.060 A 
ATOM     13  C   LIG    1       -0.017   1.379   0.010  0.00  0.00    +0.030 A 
ATOM     14  C   LIG    1        1.174   2.082   0.002  0.00  0.00    +0.030 A 
ATOM     15  C   LIG    1        2.381   1.410  -0.017  0.00  0.00    +0.090 A 
ATOM     16  F   LIG    1        3.539   2.106  -0.024  0.00  0.00    -0.130 F 
ATOM     17  C   LIG    1        2.407   0.016  -0.029  0.00  0.00    +0.070 A 
ATOM     18  O   LIG    1        3.468  -0.837  -0.060  0.00  0.00    -0.260 OA
ENDBRANCH   6   9
BRANCH   1  22
ATOM     19  C   LIG    1        4.531  -9.802  -2.380  0.00  0.00    +0.190 A 
ATOM     20  N   LIG    1        5.235  -8.972  -3.100  0.00  0.00    -0.280 NA
ATOM     21  N   LIG    1        4.865  -7.765  -2.854  0.00  0.00    -0.270 NA
ATOM     22  C   LIG    1        3.909  -7.770  -1.967  0.00  0.00    +0.180 A 
ATOM     23  N   LIG    1        3.672  -9.063  -1.637  0.00  0.00    -0.560 N 
ATOM     24  H   LIG    1        3.020  -9.393  -0.999  0.00  0.00    +0.430 HD
BRANCH  19  26
ATOM     25  C   LIG    1        4.496 -11.835  -3.799  0.00  0.00    +0.050 C 
ATOM     26  C   LIG    1        4.654 -11.304  -2.373  0.00  0.00    +0.140 C 
ENDBRANCH  19  26
ENDBRANCH   1  22
TORSDOF 3
