REMARK  Name = ZINCpk00000FdOcb.1
REMARK                            x       y       z     vdW  Elec       q    Type
REMARK                         _______ _______ _______ _____ _____    ______ ____
ROOT
ATOM      1  C   LIG    1       -3.126   1.257  -3.911  0.00  0.00    +0.270 C 
ATOM      2  C   LIG    1       -2.449   0.913  -5.242  0.00  0.00    +0.290 C 
ATOM      3  N   LIG    1       -3.496   0.697  -6.253  0.00  0.00    -0.610 N 
ATOM      4  C   LIG    1       -4.540   1.723  -6.398  0.00  0.00    +0.250 C 
ATOM      5  C   LIG    1       -5.116   2.027  -5.010  0.00  0.00    +0.230 C 
ATOM      6  C   LIG    1       -3.499  -0.409  -7.023  0.00  0.00    +0.500 C 
ATOM      7  O   LIG    1       -2.629  -1.244  -6.889  0.00  0.00    -0.510 OA
ATOM      8  O   LIG    1       -4.045   2.333  -4.114  0.00  0.00    -0.360 OA
ENDROOT
BRANCH   6   9
ATOM      9  C   LIG    1       -4.582  -0.609  -8.052  0.00  0.00    +0.210 C 
ATOM     10  C   LIG    1       -5.952  -0.832  -7.369  0.00  0.00    +0.110 C 
ATOM     11  C   LIG    1       -6.016  -2.344  -7.279  0.00  0.00    -0.150 A 
ATOM     12  C   LIG    1       -6.817  -3.194  -6.550  0.00  0.00    +0.060 A 
ATOM     13  C   LIG    1       -6.652  -4.564  -6.656  0.00  0.00    +0.030 A 
ATOM     14  C   LIG    1       -5.680  -5.075  -7.497  0.00  0.00    +0.030 A 
ATOM     15  C   LIG    1       -4.877  -4.225  -8.233  0.00  0.00    +0.090 A 
ATOM     16  F   LIG    1       -3.931  -4.733  -9.052  0.00  0.00    -0.130 F 
ATOM     17  C   LIG    1       -5.041  -2.844  -8.133  0.00  0.00    +0.070 A 
ATOM     18  O   LIG    1       -4.379  -1.835  -8.774  0.00  0.00    -0.260 OA
ENDBRANCH   6   9
BRANCH   1  21
ATOM     19  C   LIG    1       -0.742   1.585  -1.213  0.00  0.00    +0.290 A 
ATOM     20  N   LIG    1       -1.649   0.928  -1.888  0.00  0.00    -0.530 NA
ATOM     21  C   LIG    1       -2.081   1.670  -2.907  0.00  0.00    +0.230 A 
ATOM     22  N   LIG    1       -1.451   2.816  -2.893  0.00  0.00    -0.280 NA
ATOM     23  N   LIG    1       -0.577   2.786  -1.794  0.00  0.00    -0.480 N 
ATOM     24  H   LIG    1        0.027   3.490  -1.513  0.00  0.00    +0.440 HD
BRANCH  19  26
ATOM     25  C   LIG    1       -0.729   1.579   1.267  0.00  0.00    +0.050 C 
ATOM     26  C   LIG    1       -0.013   1.086   0.008  0.00  0.00    +0.150 C 
ENDBRANCH  19  26
ENDBRANCH   1  21
TORSDOF 3
