REMARK  Name = ZINCpk00000e8Y5Q.0
REMARK                            x       y       z     vdW  Elec       q    Type
REMARK                         _______ _______ _______ _____ _____    ______ ____
ROOT
ATOM      1  C   LIG    1       -4.807  -5.677   1.457  0.00  0.00    +0.520 C 
ATOM      2  N   LIG    1       -3.964  -4.706   1.055  0.00  0.00    -0.610 N 
ATOM      3  C   LIG    1       -3.081  -4.912  -0.101  0.00  0.00    +0.280 C 
ATOM      4  C   LIG    1       -1.639  -4.612   0.320  0.00  0.00    +0.050 C 
ATOM      5  C   LIG    1       -1.570  -3.206   0.922  0.00  0.00    +0.010 C 
ATOM      6  C   LIG    1       -2.460  -3.136   2.164  0.00  0.00    +0.030 C 
ATOM      7  C   LIG    1       -3.912  -3.420   1.764  0.00  0.00    +0.280 C 
ATOM      8  O   LIG    1       -4.741  -6.782   0.960  0.00  0.00    -0.530 OA
ENDROOT
BRANCH   5   9
ATOM      9  C   LIG    1       -0.146  -2.895   1.306  0.00  0.00    +0.520 C 
ATOM     10  N   LIG    1        0.157  -1.704   1.859  0.00  0.00    -0.670 N 
ATOM     11  H   LIG    1       -0.548  -1.067   2.056  0.00  0.00    +0.410 HD
ATOM     12  O   LIG    1        0.726  -3.716   1.118  0.00  0.00    -0.510 OA
BRANCH  10  13
ATOM     13  C   LIG    1        1.485  -1.387   2.149  0.00  0.00    +0.190 A 
ATOM     14  C   LIG    1        1.949  -0.077   2.034  0.00  0.00    -0.060 A 
ATOM     15  C   LIG    1        3.268   0.195   2.329  0.00  0.00    +0.280 A 
ATOM     16  N   LIG    1        4.087  -0.765   2.716  0.00  0.00    -0.500 NA
ATOM     17  C   LIG    1        3.686  -2.017   2.838  0.00  0.00    +0.280 A 
ATOM     18  C   LIG    1        2.382  -2.371   2.561  0.00  0.00    -0.030 A 
ENDBRANCH  10  13
ENDBRANCH   5   9
BRANCH   1  19
ATOM     19  C   LIG    1       -5.832  -5.392   2.524  0.00  0.00    +0.240 C 
BRANCH  19  22
ATOM     20  C   LIG    1       -9.561  -6.224   2.290  0.00  0.00    +0.100 C 
ATOM     21  C   LIG    1       -8.260  -5.556   2.652  0.00  0.00    +0.520 C 
ATOM     22  N   LIG    1       -7.097  -6.041   2.173  0.00  0.00    -0.720 N 
ATOM     23  H   LIG    1       -7.098  -6.820   1.595  0.00  0.00    +0.410 HD
ATOM     24  O   LIG    1       -8.259  -4.582   3.374  0.00  0.00    -0.540 OA
ENDBRANCH  19  22
BRANCH  19  25
ATOM     25  C   LIG    1       -5.336  -5.934   3.866  0.00  0.00    -0.020 C 
ATOM     26  C   LIG    1       -6.398  -5.688   4.940  0.00  0.00    +0.030 C 
ATOM     27  C   LIG    1       -4.040  -5.221   4.257  0.00  0.00    +0.030 C 
ENDBRANCH  19  25
ENDBRANCH   1  19
TORSDOF 5
