REMARK  Name = ZINCvU000000069a.0
REMARK                            x       y       z     vdW  Elec       q    Type
REMARK                         _______ _______ _______ _____ _____    ______ ____
ROOT
ATOM      1  O   LIG    1       -2.825   3.681  -5.580  0.00  0.00    -0.580 OA
ATOM      2  C   LIG    1       -2.787   4.570  -4.752  0.00  0.00    +0.710 C 
ATOM      3  N   LIG    1       -3.231   5.803  -5.066  0.00  0.00    -0.740 N 
ATOM      4  H   LIG    1       -3.201   6.513  -4.405  0.00  0.00    +0.400 HD
ATOM      5  N   LIG    1       -2.300   4.323  -3.520  0.00  0.00    -0.740 N 
ATOM      6  H   LIG    1       -2.269   5.033  -2.859  0.00  0.00    +0.400 HD
ENDROOT
BRANCH   3   7
ATOM      7  C   LIG    1       -3.761   6.072  -6.405  0.00  0.00    +0.380 C 
BRANCH   7   8
ATOM      8  C   LIG    1       -3.614   7.539  -6.719  0.00  0.00    -0.080 A 
ATOM      9  C   LIG    1       -3.864   8.483  -5.740  0.00  0.00    +0.030 A 
ATOM     10  C   LIG    1       -3.724   9.828  -6.026  0.00  0.00    +0.030 A 
ATOM     11  C   LIG    1       -3.344  10.230  -7.294  0.00  0.00    -0.030 A 
ATOM     12  C   LIG    1       -3.099   9.285  -8.274  0.00  0.00    +0.040 A 
ATOM     13 CL   LIG    1       -3.174  11.919  -7.655  0.00  0.00    -0.070 Cl
ATOM     14  C   LIG    1       -3.234   7.940  -7.986  0.00  0.00    +0.050 A 
ENDBRANCH   7   8
BRANCH   7  15
ATOM     15  C   LIG    1       -5.218   5.691  -6.455  0.00  0.00    -0.110 A 
ATOM     16  C   LIG    1       -6.058   5.934  -5.448  0.00  0.00    -0.040 A 
ATOM     17  S   LIG    1       -7.664   5.353  -5.866  0.00  0.00    +0.100 S 
ATOM     18  C   LIG    1       -7.088   4.795  -7.431  0.00  0.00    -0.040 A 
ATOM     19  C   LIG    1       -5.788   5.068  -7.552  0.00  0.00    +0.020 A 
ENDBRANCH   7  15
ENDBRANCH   3   7
BRANCH   5  20
ATOM     20  C   LIG    1       -1.817   2.983  -3.178  0.00  0.00    +0.290 C 
BRANCH  20  21
ATOM     21  C   LIG    1       -1.321   2.973  -1.731  0.00  0.00    +0.260 C 
BRANCH  21  22
ATOM     22  N   LIG    1       -0.838   1.633  -1.389  0.00  0.00    -1.110 NA
ATOM     23  H   LIG    1       -1.083   0.874  -1.941  0.00  0.00    +0.430 HD
BRANCH  22  24
ATOM     24  S   LIG    1        0.125   1.413  -0.060  0.00  0.00    +2.690 S 
ATOM     25  O   LIG    1        1.167   2.375  -0.157  0.00  0.00    -0.940 OA
ATOM     26  O   LIG    1        0.364   0.016   0.036  0.00  0.00    -0.930 OA
BRANCH  24  27
ATOM     27  C   LIG    1       -0.828   1.854   1.354  0.00  0.00    -0.660 A 
ATOM     28  C   LIG    1       -0.449   2.929   2.135  0.00  0.00    +0.170 A 
ATOM     29  C   LIG    1       -1.201   3.278   3.243  0.00  0.00    -0.100 A 
ATOM     30  C   LIG    1       -2.325   2.545   3.575  0.00  0.00    +0.120 A 
ATOM     31  C   LIG    1       -2.702   1.466   2.796  0.00  0.00    +0.050 A 
ATOM     32 BR   LIG    1       -0.687   4.754   4.308  0.00  0.00    -0.020 Br
ATOM     33  C   LIG    1       -1.953   1.121   1.686  0.00  0.00    +0.010 A 
ATOM     34 BR   LIG    1       -2.468  -0.355   0.621  0.00  0.00    -0.000 Br
ENDBRANCH  24  27
ENDBRANCH  22  24
ENDBRANCH  21  22
ENDBRANCH  20  21
ENDBRANCH   5  20
TORSDOF 8
