REMARK  Name = ZINCtV00000tRTA7.0
REMARK                            x       y       z     vdW  Elec       q    Type
REMARK                         _______ _______ _______ _____ _____    ______ ____
ROOT
ATOM      1  C   LIG    1        3.161   6.543   0.004  0.00  0.00    -0.010 A 
ATOM      2  C   LIG    1        3.722   5.263  -0.007  0.00  0.00    +0.090 A 
ATOM      3  C   LIG    1        2.913   4.163  -0.004  0.00  0.00    +0.080 A 
ATOM      4  C   LIG    1        1.523   4.317   0.010  0.00  0.00    +0.010 A 
ATOM      5  C   LIG    1        0.962   5.598   0.016  0.00  0.00    +0.050 A 
ATOM      6  C   LIG    1        1.772   6.698   0.018  0.00  0.00    +0.060 A 
ENDROOT
BRANCH   1  10
ATOM      7  C   LIG    1        4.755   9.768   0.002  0.00  0.00    +0.220 A 
ATOM      8  N   LIG    1        5.778   8.944  -0.012  0.00  0.00    -0.270 NA
ATOM      9  N   LIG    1        5.350   7.731  -0.013  0.00  0.00    -0.270 NA
ATOM     10  C   LIG    1        4.036   7.732   0.001  0.00  0.00    +0.200 A 
ATOM     11  O   LIG    1        3.633   9.020   0.005  0.00  0.00    -0.210 OA
BRANCH   7  18
ATOM     12  C   LIG    1        7.332  11.085  -0.020  0.00  0.00    +0.110 C 
ATOM     13  C   LIG    1        6.058  11.891  -0.004  0.00  0.00    -0.030 A 
ATOM     14  C   LIG    1        6.112  13.269   0.001  0.00  0.00    +0.020 A 
ATOM     15  C   LIG    1        4.944  14.011   0.015  0.00  0.00    +0.050 A 
ATOM     16  C   LIG    1        3.715  13.376   0.026  0.00  0.00    +0.000 A 
ATOM     17  C   LIG    1        3.646  11.998   0.015  0.00  0.00    +0.050 A 
ATOM     18  C   LIG    1        4.821  11.244   0.006  0.00  0.00    -0.040 A 
ENDBRANCH   7  18
ENDBRANCH   1  10
BRANCH   4  19
ATOM     19  C   LIG    1        0.649   3.128   0.013  0.00  0.00    +0.230 A 
ATOM     20  N   LIG    1        1.056   1.879   0.002  0.00  0.00    -0.460 NA
ATOM     21  C   LIG    1       -0.013   1.076   0.008  0.00  0.00    +0.180 A 
ATOM     22  C   LIG    1       -1.122   1.863   0.017  0.00  0.00    +0.010 A 
ATOM     23  O   LIG    1       -0.696   3.146   0.026  0.00  0.00    -0.190 OA
BRANCH  22  24
ATOM     24  C   LIG    1       -2.526   1.404   0.020  0.00  0.00    -0.020 A 
ATOM     25  C   LIG    1       -2.817   0.038   0.008  0.00  0.00    +0.040 A 
ATOM     26  C   LIG    1       -4.130  -0.384   0.016  0.00  0.00    +0.020 A 
ATOM     27  C   LIG    1       -5.158   0.542   0.026  0.00  0.00    +0.020 A 
ATOM     28  C   LIG    1       -4.877   1.897   0.032  0.00  0.00    +0.010 A 
ATOM     29  C   LIG    1       -3.568   2.333   0.029  0.00  0.00    +0.030 A 
ENDBRANCH  22  24
ENDBRANCH   4  19
TORSDOF 4
