REMARK  Name = ZINCvU00000005dp.0
REMARK                            x       y       z     vdW  Elec       q    Type
REMARK                         _______ _______ _______ _____ _____    ______ ____
ROOT
ATOM      1  C   LIG    1        2.493   7.158   0.028  0.00  0.00    +0.560 C 
ATOM      2  N   LIG    1        2.039   5.891   0.095  0.00  0.00    -0.610 N 
ATOM      3  C   LIG    1        1.348   5.283  -1.051  0.00  0.00    +0.280 C 
ATOM      4  C   LIG    1       -0.004   4.737  -0.578  0.00  0.00    +0.030 C 
ATOM      5  C   LIG    1        0.219   3.785   0.599  0.00  0.00    +0.100 C 
ATOM      6  C   LIG    1        0.864   4.547   1.759  0.00  0.00    +0.020 C 
ATOM      7  C   LIG    1        2.225   5.091   1.313  0.00  0.00    +0.290 C 
ATOM      8  O   LIG    1        2.970   7.685   1.015  0.00  0.00    -0.520 OA
ENDROOT
BRANCH   1  13
ATOM      9  C   LIG    1        2.090   9.974  -2.431  0.00  0.00    +0.140 A 
ATOM     10  C   LIG    1        2.264   9.304  -3.636  0.00  0.00    +0.010 A 
ATOM     11  C   LIG    1        2.511   7.944  -3.646  0.00  0.00    +0.030 A 
ATOM     12  C   LIG    1        2.592   7.244  -2.459  0.00  0.00    +0.030 A 
ATOM     13  C   LIG    1        2.413   7.907  -1.244  0.00  0.00    -0.110 A 
ATOM     14  C   LIG    1        2.164   9.279  -1.234  0.00  0.00    +0.080 A 
BRANCH   9  16
ATOM     15  C   LIG    1        2.342  12.123  -1.443  0.00  0.00    +0.540 C 
ATOM     16  N   LIG    1        1.839  11.350  -2.426  0.00  0.00    -0.670 N 
ATOM     17  H   LIG    1        1.304  11.748  -3.130  0.00  0.00    +0.410 HD
ATOM     18  O   LIG    1        2.942  11.614  -0.515  0.00  0.00    -0.520 OA
BRANCH  15  20
ATOM     19  C   LIG    1        2.662  14.345  -0.522  0.00  0.00    +0.160 C 
ATOM     20  C   LIG    1        2.166  13.582  -1.492  0.00  0.00    -0.090 C 
ENDBRANCH  15  20
ENDBRANCH   9  16
ENDBRANCH   1  13
BRANCH   5  21
ATOM     21  C   LIG    1       -1.105   3.220   1.045  0.00  0.00    +0.060 A 
ATOM     22  N   LIG    1       -1.403   1.967   1.054  0.00  0.00    -0.460 NA
ATOM     23  C   LIG    1       -2.615   1.637   1.477  0.00  0.00    +0.110 A 
ATOM     24  C   LIG    1       -3.375   2.688   1.843  0.00  0.00    -0.070 A 
ATOM     25  S   LIG    1       -2.422   4.152   1.608  0.00  0.00    +0.150 S 
BRANCH  23  26
ATOM     26  C   LIG    1       -3.093   0.234   1.541  0.00  0.00    -0.020 A 
ATOM     27  C   LIG    1       -2.226  -0.815   1.240  0.00  0.00    +0.070 A 
ATOM     28  C   LIG    1       -2.675  -2.118   1.305  0.00  0.00    +0.030 A 
ATOM     29  C   LIG    1       -3.986  -2.384   1.659  0.00  0.00    -0.030 A 
ATOM     30  C   LIG    1       -4.853  -1.346   1.952  0.00  0.00    +0.030 A 
ATOM     31 CL   LIG    1       -4.546  -4.026   1.732  0.00  0.00    -0.070 Cl
ATOM     32  C   LIG    1       -4.413  -0.039   1.895  0.00  0.00    +0.040 A 
ENDBRANCH  23  26
ENDBRANCH   5  21
TORSDOF 5
