REMARK  Name = ZINCrH000004nXEG.0
REMARK                            x       y       z     vdW  Elec       q    Type
REMARK                         _______ _______ _______ _____ _____    ______ ____
ROOT
ATOM      1  N   LIG    1        0.208  -2.720   1.087  0.00  0.00    -0.510 NA
ATOM      2  C   LIG    1        0.826  -4.019   0.795  0.00  0.00    +0.180 C 
ATOM      3  C   LIG    1       -0.244  -5.113   0.823  0.00  0.00    +0.020 C 
ATOM      4  C   LIG    1       -1.320  -4.794  -0.218  0.00  0.00    +0.010 C 
ATOM      5  C   LIG    1       -1.915  -3.414   0.080  0.00  0.00    +0.030 C 
ATOM      6  C   LIG    1       -0.796  -2.370   0.074  0.00  0.00    +0.140 C 
ENDROOT
BRANCH   1   7
ATOM      7  C   LIG    1        1.225  -1.667   1.205  0.00  0.00    +0.210 C 
BRANCH   7  10
ATOM      8  N   LIG    1        2.990  -1.003   2.805  0.00  0.00    -0.680 N 
ATOM      9  H   LIG    1        3.255  -0.310   2.181  0.00  0.00    +0.410 HD
ATOM     10  C   LIG    1        1.999  -1.857   2.484  0.00  0.00    +0.520 C 
ATOM     11  O   LIG    1        1.729  -2.779   3.225  0.00  0.00    -0.490 OA
BRANCH   8  16
ATOM     12  C   LIG    1        5.622  -0.905   5.378  0.00  0.00    -0.060 A 
ATOM     13  C   LIG    1        4.914  -1.343   6.491  0.00  0.00    -0.020 A 
ATOM     14  C   LIG    1        3.575  -1.664   6.377  0.00  0.00    +0.050 A 
ATOM     15  C   LIG    1        2.935  -1.548   5.158  0.00  0.00    +0.020 A 
ATOM     16  C   LIG    1        3.639  -1.116   4.040  0.00  0.00    +0.170 A 
ATOM     17  C   LIG    1        4.983  -0.792   4.151  0.00  0.00    +0.000 A 
BRANCH  12  19
ATOM     18  C   LIG    1        7.675  -0.805   7.279  0.00  0.00    +0.150 C 
ATOM     19  S   LIG    1        7.330  -0.495   5.525  0.00  0.00    -0.120 S 
ENDBRANCH  12  19
ENDBRANCH   8  16
ENDBRANCH   7  10
ENDBRANCH   1   7
BRANCH   6  20
ATOM     20  C   LIG    1       -1.383  -0.993   0.391  0.00  0.00    +0.290 C 
BRANCH  20  21
ATOM     21  N   LIG    1       -1.875  -0.978   1.771  0.00  0.00    -0.700 N 
ATOM     22  H   LIG    1       -1.860  -1.791   2.300  0.00  0.00    +0.410 HD
ATOM     23  C   LIG    1       -2.349   0.165   2.305  0.00  0.00    +0.650 C 
ATOM     24  O   LIG    1       -2.363   1.184   1.644  0.00  0.00    -0.570 OA
BRANCH  23  25
ATOM     25  O   LIG    1       -2.801   0.178   3.573  0.00  0.00    -0.360 OA
BRANCH  25  26
ATOM     26  C   LIG    1       -3.297   1.445   4.082  0.00  0.00    +0.140 C 
ATOM     27  C   LIG    1       -2.178   2.487   4.034  0.00  0.00    +0.040 C 
ATOM     28  C   LIG    1       -3.764   1.265   5.528  0.00  0.00    +0.080 C 
ATOM     29  C   LIG    1       -4.471   1.916   3.222  0.00  0.00    +0.040 C 
ENDBRANCH  25  26
ENDBRANCH  23  25
ENDBRANCH  20  21
ENDBRANCH   6  20
TORSDOF 8
