REMARK  Name = ZINCpe00000MzerJ.0
REMARK                            x       y       z     vdW  Elec       q    Type
REMARK                         _______ _______ _______ _____ _____    ______ ____
ROOT
ATOM      1  C   LIG    1        1.395   2.024  -0.000  0.00  0.00    +0.520 C 
ATOM      2  N   LIG    1        1.624   3.353   0.005  0.00  0.00    -0.620 N 
ATOM      3  C   LIG    1        0.509   4.313   0.014  0.00  0.00    +0.260 C 
ATOM      4  C   LIG    1        0.735   5.335  -1.100  0.00  0.00    +0.230 C 
ATOM      5  O   LIG    1        2.049   5.885  -0.977  0.00  0.00    -0.380 OA
ATOM      6  C   LIG    1        3.101   4.928  -1.125  0.00  0.00    +0.140 C 
ATOM      7  C   LIG    1        2.995   3.886  -0.006  0.00  0.00    +0.290 C 
ATOM      8  O   LIG    1        2.328   1.249  -0.013  0.00  0.00    -0.520 OA
ENDROOT
BRANCH   1   9
ATOM      9  C   LIG    1       -0.018   1.503   0.010  0.00  0.00    +0.120 C 
BRANCH   9  13
ATOM     10  C   LIG    1        0.040  -2.770  -0.013  0.00  0.00    +0.140 A 
ATOM     11  C   LIG    1        0.042  -2.082   1.191  0.00  0.00    -0.020 A 
ATOM     12  C   LIG    1        0.023  -0.701   1.196  0.00  0.00    +0.070 A 
ATOM     13  C   LIG    1        0.002  -0.004   0.002  0.00  0.00    -0.110 A 
ATOM     14  C   LIG    1       -0.006  -0.688  -1.200  0.00  0.00    +0.060 A 
ATOM     15  C   LIG    1        0.019  -2.069  -1.210  0.00  0.00    -0.080 A 
BRANCH  10  16
ATOM     16  O   LIG    1        0.059  -4.129  -0.021  0.00  0.00    -0.320 OA
BRANCH  16  18
ATOM     17  C   LIG    1        0.078  -6.289  -1.105  0.00  0.00    +0.070 C 
ATOM     18  C   LIG    1        0.055  -4.771  -1.297  0.00  0.00    +0.170 C 
ENDBRANCH  16  18
ENDBRANCH  10  16
ENDBRANCH   9  13
ENDBRANCH   1   9
BRANCH   6  19
ATOM     19  C   LIG    1        4.453   5.638  -1.036  0.00  0.00    +0.270 C 
BRANCH  19  20
ATOM     20  N   LIG    1        4.553   6.637  -2.109  0.00  0.00    -0.360 N 
ATOM     21  C   LIG    1        4.555   5.958  -3.412  0.00  0.00    +0.310 C 
ATOM     22  H   LIG    1        3.765   7.265  -2.058  0.00  0.00    +0.430 HD
BRANCH  20  23
ATOM     23  C   LIG    1        5.799   7.400  -1.953  0.00  0.00    +0.160 C 
BRANCH  23  24
ATOM     24  C   LIG    1        5.843   8.504  -2.978  0.00  0.00    +0.490 C 
ATOM     25  O   LIG    1        6.800   9.259  -3.019  0.00  0.00    -0.640 OA
ATOM     26  O   LIG    1        4.922   8.642  -3.765  0.00  0.00    -0.670 OA
ENDBRANCH  23  24
ENDBRANCH  20  23
ENDBRANCH  19  20
ENDBRANCH   6  19
TORSDOF 8
