REMARK  Name = ZINCpe00000MzerJ.1
REMARK                            x       y       z     vdW  Elec       q    Type
REMARK                         _______ _______ _______ _____ _____    ______ ____
ROOT
ATOM      1  C   LIG    1        2.640  -0.637   1.856  0.00  0.00    +0.520 C 
ATOM      2  N   LIG    1        1.591   0.159   1.572  0.00  0.00    -0.620 N 
ATOM      3  C   LIG    1        0.236  -0.396   1.429  0.00  0.00    +0.260 C 
ATOM      4  C   LIG    1       -0.359   0.114   0.111  0.00  0.00    +0.240 C 
ATOM      5  O   LIG    1       -0.248   1.538   0.065  0.00  0.00    -0.380 OA
ATOM      6  C   LIG    1        1.097   2.022   0.081  0.00  0.00    +0.140 C 
ATOM      7  C   LIG    1        1.766   1.609   1.397  0.00  0.00    +0.280 C 
ATOM      8  O   LIG    1        3.750  -0.161   1.970  0.00  0.00    -0.520 OA
ENDROOT
BRANCH   1   9
ATOM      9  C   LIG    1        2.435  -2.120   2.032  0.00  0.00    +0.120 C 
BRANCH   9  13
ATOM     10  C   LIG    1        6.181  -3.982   2.907  0.00  0.00    +0.140 A 
ATOM     11  C   LIG    1        5.380  -3.514   3.938  0.00  0.00    -0.020 A 
ATOM     12  C   LIG    1        4.170  -2.912   3.653  0.00  0.00    +0.070 A 
ATOM     13  C   LIG    1        3.756  -2.777   2.341  0.00  0.00    -0.110 A 
ATOM     14  C   LIG    1        4.550  -3.248   1.311  0.00  0.00    +0.060 A 
ATOM     15  C   LIG    1        5.764  -3.845   1.591  0.00  0.00    -0.080 A 
BRANCH  10  16
ATOM     16  O   LIG    1        7.372  -4.574   3.185  0.00  0.00    -0.320 OA
BRANCH  16  18
ATOM     17  C   LIG    1        9.442  -5.665   2.580  0.00  0.00    +0.070 C 
ATOM     18  C   LIG    1        8.144  -5.033   2.074  0.00  0.00    +0.170 C 
ENDBRANCH  16  18
ENDBRANCH  10  16
ENDBRANCH   9  13
ENDBRANCH   1   9
BRANCH   6  19
ATOM     19  C   LIG    1        1.094   3.547  -0.035  0.00  0.00    +0.270 C 
BRANCH  19  20
ATOM     20  N   LIG    1        0.516   3.939  -1.328  0.00  0.00    -0.360 N 
ATOM     21  C   LIG    1        0.377   5.401  -1.379  0.00  0.00    +0.320 C 
ATOM     22  H   LIG    1       -0.391   3.511  -1.434  0.00  0.00    +0.430 HD
BRANCH  20  23
ATOM     23  C   LIG    1        1.399   3.493  -2.414  0.00  0.00    +0.150 C 
BRANCH  23  24
ATOM     24  C   LIG    1        0.749   3.785  -3.741  0.00  0.00    +0.490 C 
ATOM     25  O   LIG    1        1.320   3.491  -4.778  0.00  0.00    -0.640 OA
ATOM     26  O   LIG    1       -0.348   4.316  -3.780  0.00  0.00    -0.670 OA
ENDBRANCH  23  24
ENDBRANCH  20  23
ENDBRANCH  19  20
ENDBRANCH   6  19
TORSDOF 8
