REMARK  Name = ZINCrH00000No4W4.0
REMARK                            x       y       z     vdW  Elec       q    Type
REMARK                         _______ _______ _______ _____ _____    ______ ____
ROOT
ATOM      1  C   LIG    1       -0.895   3.166   3.029  0.00  0.00    -0.120 A 
ATOM      2  C   LIG    1       -1.267   2.222   3.990  0.00  0.00    +0.060 A 
ATOM      3  C   LIG    1       -1.795   2.636   5.192  0.00  0.00    +0.040 A 
ATOM      4  C   LIG    1       -1.971   3.992   5.446  0.00  0.00    +0.130 A 
ATOM      5  C   LIG    1       -1.608   4.935   4.490  0.00  0.00    +0.040 A 
ATOM      6  C   LIG    1       -1.073   4.527   3.288  0.00  0.00    +0.100 A 
ENDROOT
BRANCH   4   7
ATOM      7  N   LIG    1       -2.512   4.409   6.665  0.00  0.00    -0.510 N 
ATOM      8  C   LIG    1       -3.856   4.595   6.777  0.00  0.00    +0.580 A 
ATOM      9  N   LIG    1       -4.433   4.981   7.874  0.00  0.00    -0.510 NA
ATOM     10  C   LIG    1       -3.722   5.228   9.003  0.00  0.00    +0.150 A 
ATOM     11  C   LIG    1       -4.342   5.642  10.183  0.00  0.00    +0.030 A 
ATOM     12  C   LIG    1       -3.582   5.881  11.306  0.00  0.00    +0.070 A 
ATOM     13  C   LIG    1       -2.203   5.716  11.280  0.00  0.00    +0.010 A 
ATOM     14  C   LIG    1       -1.568   5.308  10.127  0.00  0.00    +0.100 A 
ATOM     15  C   LIG    1       -2.319   5.060   8.980  0.00  0.00    -0.190 A 
ATOM     16  C   LIG    1       -1.696   4.618   7.724  0.00  0.00    +0.550 A 
ATOM     17  O   LIG    1       -0.494   4.450   7.639  0.00  0.00    -0.490 OA
ENDBRANCH   4   7
BRANCH   1  20
ATOM     18  C   LIG    1       -1.451   0.586   2.033  0.00  0.00    +0.280 C 
ATOM     19  N   LIG    1       -0.549   1.474   1.296  0.00  0.00    -0.610 N 
ATOM     20  C   LIG    1       -0.322   2.726   1.742  0.00  0.00    +0.560 C 
ATOM     21  O   LIG    1        0.354   3.492   1.084  0.00  0.00    -0.520 OA
BRANCH  19  22
ATOM     22  C   LIG    1        0.105   1.002   0.073  0.00  0.00    +0.390 C 
BRANCH  22  23
ATOM     23  C   LIG    1       -0.767   1.314  -1.116  0.00  0.00    -0.210 A 
ATOM     24  C   LIG    1       -0.718   2.439  -1.831  0.00  0.00    +0.030 A 
ATOM     25  C   LIG    1       -1.617   2.501  -2.882  0.00  0.00    +0.000 A 
ATOM     26  C   LIG    1       -2.396   1.427  -3.019  0.00  0.00    -0.040 A 
ATOM     27  S   LIG    1       -1.998   0.247  -1.778  0.00  0.00    +0.090 S 
ENDBRANCH  22  23
ENDBRANCH  19  22
ENDBRANCH   1  20
TORSDOF 4
