REMARK  Name = ZINCqH0000050ZXv.0
REMARK                            x       y       z     vdW  Elec       q    Type
REMARK                         _______ _______ _______ _____ _____    ______ ____
ROOT
ATOM      1  N   LIG    1       -0.242   1.246   2.466  0.00  0.00    -0.570 N 
ATOM      2  C   LIG    1       -0.860   1.359   1.274  0.00  0.00    +0.520 C 
ATOM      3  O   LIG    1       -1.969   1.847   1.210  0.00  0.00    -0.470 OA
ENDROOT
BRANCH   1   4
ATOM      4  C   LIG    1       -0.834   1.782   3.616  0.00  0.00    +0.120 A 
ATOM      5  C   LIG    1       -0.953   3.158   3.759  0.00  0.00    +0.070 A 
ATOM      6  C   LIG    1       -1.542   3.685   4.892  0.00  0.00    +0.000 A 
ATOM      7  C   LIG    1       -2.003   2.842   5.889  0.00  0.00    +0.110 A 
ATOM      8  C   LIG    1       -1.881   1.470   5.751  0.00  0.00    +0.000 A 
ATOM      9  F   LIG    1       -2.574   3.360   6.999  0.00  0.00    -0.130 F 
ATOM     10  C   LIG    1       -1.297   0.939   4.617  0.00  0.00    +0.060 A 
ENDBRANCH   1   4
BRANCH   1  11
ATOM     11  C   LIG    1        1.051   0.562   2.558  0.00  0.00    +0.310 C 
BRANCH  11  12
ATOM     12  C   LIG    1        2.179   1.575   2.357  0.00  0.00    +0.180 C 
BRANCH  12  14
ATOM     13  N   LIG    1        4.480   0.357   2.521  0.00  0.00    -0.410 NA
ATOM     14  C   LIG    1        3.478   0.887   2.450  0.00  0.00    +0.200 C 
ENDBRANCH  12  14
ENDBRANCH  11  12
ENDBRANCH   1  11
BRANCH   2  15
ATOM     15  C   LIG    1       -0.175   0.879   0.020  0.00  0.00    +0.250 C 
BRANCH  15  16
ATOM     16  O   LIG    1       -1.026   1.106  -1.105  0.00  0.00    -0.250 OA
BRANCH  16  17
ATOM     17  C   LIG    1       -0.555   0.727  -2.322  0.00  0.00    +0.200 A 
ATOM     18  C   LIG    1        0.704   0.154  -2.431  0.00  0.00    -0.040 A 
ATOM     19  C   LIG    1        1.179  -0.235  -3.668  0.00  0.00    +0.150 A 
ATOM     20  C   LIG    1        0.406  -0.044  -4.799  0.00  0.00    -0.080 A 
ATOM     21  C   LIG    1       -0.848   0.532  -4.693  0.00  0.00    +0.160 A 
ATOM     22 CL   LIG    1        1.008  -0.529  -6.354  0.00  0.00    -0.030 Cl
ATOM     23  C   LIG    1       -1.329   0.918  -3.457  0.00  0.00    -0.060 A 
BRANCH  23  24
ATOM     24  N   LIG    1       -2.670   1.534  -3.344  0.00  0.00    +0.030 N 
ATOM     25  O   LIG    1       -3.094   1.873  -2.254  0.00  0.00    -0.110 OA
ATOM     26  O   LIG    1       -3.350   1.701  -4.341  0.00  0.00    -0.170 OA
ENDBRANCH  23  24
ENDBRANCH  16  17
ENDBRANCH  15  16
ENDBRANCH   2  15
TORSDOF 8
