REMARK  Name = ZINCpk00000K8cjI.0
REMARK                            x       y       z     vdW  Elec       q    Type
REMARK                         _______ _______ _______ _____ _____    ______ ____
ROOT
ATOM      1  C   LIG    1       -0.013   1.086   0.008  0.00  0.00    +0.330 C 
ATOM      2  N   LIG    1       -0.698   1.558   1.213  0.00  0.00    -0.510 N 
ATOM      3  C   LIG    1       -1.195   0.678   2.110  0.00  0.00    +0.510 A 
ATOM      4  C   LIG    1       -1.877   1.183   3.307  0.00  0.00    +0.110 A 
ATOM      5  N   LIG    1       -1.999   2.465   3.500  0.00  0.00    -0.390 NA
ATOM      6  C   LIG    1       -1.508   3.352   2.613  0.00  0.00    +0.060 A 
ATOM      7  C   LIG    1       -1.652   4.728   2.843  0.00  0.00    +0.080 A 
ATOM      8  C   LIG    1       -1.149   5.631   1.935  0.00  0.00    +0.080 A 
ATOM      9  C   LIG    1       -0.497   5.189   0.788  0.00  0.00    +0.060 A 
ATOM     10  C   LIG    1       -0.346   3.841   0.546  0.00  0.00    +0.020 A 
ATOM     11  F   LIG    1       -1.288   6.956   2.158  0.00  0.00    -0.130 F 
ATOM     12  O   LIG    1       -1.079  -0.520   1.926  0.00  0.00    -0.500 OA
ATOM     13  C   LIG    1       -0.842   2.911   1.454  0.00  0.00    +0.140 A 
ENDROOT
BRANCH   4  14
ATOM     14  C   LIG    1       -2.437   0.214   4.316  0.00  0.00    +0.450 C 
BRANCH  14  15
ATOM     15  N   LIG    1       -3.064   0.958   5.411  0.00  0.00    -0.570 N 
ATOM     16  C   LIG    1       -4.350   1.331   5.430  0.00  0.00    +0.710 C 
ATOM     17  N   LIG    1       -4.674   2.004   6.552  0.00  0.00    -0.720 N 
ATOM     18  H   LIG    1       -5.543   2.368   6.782  0.00  0.00    +0.440 HD
ATOM     19  C   LIG    1       -3.451   2.074   7.354  0.00  0.00    +0.120 C 
ATOM     20  C   LIG    1       -3.641   1.393   8.716  0.00  0.00    +0.050 C 
ATOM     21  C   LIG    1       -2.783   2.247   9.685  0.00  0.00    +0.040 C 
ATOM     22  C   LIG    1       -2.995   3.688   9.155  0.00  0.00    +0.030 C 
ATOM     23  C   LIG    1       -3.039   3.524   7.620  0.00  0.00    +0.050 C 
ATOM     24  O   LIG    1       -5.137   1.090   4.535  0.00  0.00    -0.540 OA
ATOM     25  C   LIG    1       -2.417   1.349   6.531  0.00  0.00    +0.540 C 
ATOM     26  O   LIG    1       -1.253   1.160   6.812  0.00  0.00    -0.460 OA
ENDBRANCH  14  15
ENDBRANCH   4  14
TORSDOF 2
