REMARK  Name = ZINCrH000004nZ6Q.0
REMARK                            x       y       z     vdW  Elec       q    Type
REMARK                         _______ _______ _______ _____ _____    ______ ____
ROOT
ATOM      1  N   LIG    1        4.532  -3.145   1.869  0.00  0.00    -0.670 N 
ATOM      2  H   LIG    1        4.974  -2.748   2.636  0.00  0.00    +0.420 HD
ATOM      3  C   LIG    1        3.754  -2.385   1.072  0.00  0.00    +0.500 C 
ATOM      4  O   LIG    1        3.279  -2.857   0.061  0.00  0.00    -0.500 OA
ENDROOT
BRANCH   1  10
ATOM      5  C   LIG    1        3.970  -9.018   0.180  0.00  0.00    +0.080 A 
ATOM      6  N   LIG    1        5.045  -8.532   0.700  0.00  0.00    -0.460 NA
ATOM      7  C   LIG    1        5.050  -7.224   1.032  0.00  0.00    +0.080 A 
ATOM      8  C   LIG    1        6.090  -6.465   1.607  0.00  0.00    +0.100 A 
ATOM      9  C   LIG    1        5.913  -5.132   1.878  0.00  0.00    +0.020 A 
ATOM     10  C   LIG    1        4.703  -4.507   1.588  0.00  0.00    +0.160 A 
ATOM     11  C   LIG    1        3.668  -5.235   1.029  0.00  0.00    +0.070 A 
ATOM     12  C   LIG    1        3.839  -6.587   0.744  0.00  0.00    -0.150 A 
ATOM     13  S   LIG    1        2.740  -7.770   0.040  0.00  0.00    +0.120 S 
BRANCH   5  15
ATOM     14  C   LIG    1        5.390 -11.356   0.117  0.00  0.00    +0.150 C 
ATOM     15  S   LIG    1        3.762 -10.695  -0.318  0.00  0.00    +0.000 S 
ENDBRANCH   5  15
ENDBRANCH   1  10
BRANCH   3  16
ATOM     16  C   LIG    1        3.473  -0.951   1.439  0.00  0.00    +0.350 C 
BRANCH  16  17
ATOM     17  N   LIG    1        2.610  -0.347   0.421  0.00  0.00    -0.540 N 
ATOM     18  C   LIG    1        1.265  -0.402   0.546  0.00  0.00    +0.540 C 
ATOM     19  C   LIG    1        0.390   0.153  -0.548  0.00  0.00    +0.040 C 
ATOM     20  C   LIG    1        0.406   1.679  -0.508  0.00  0.00    +0.260 C 
ATOM     21  O   LIG    1        1.734   2.159  -0.320  0.00  0.00    -0.330 OA
ATOM     22  C   LIG    1        2.718   1.566  -1.046  0.00  0.00    +0.080 A 
ATOM     23  C   LIG    1        3.268   2.211  -2.140  0.00  0.00    +0.030 A 
ATOM     24  C   LIG    1        4.261   1.592  -2.879  0.00  0.00    +0.020 A 
ATOM     25  C   LIG    1        4.705   0.330  -2.530  0.00  0.00    +0.020 A 
ATOM     26  C   LIG    1        4.162  -0.320  -1.437  0.00  0.00    +0.020 A 
ATOM     27  O   LIG    1        0.765  -0.897   1.535  0.00  0.00    -0.520 OA
ATOM     28  C   LIG    1        3.169   0.295  -0.692  0.00  0.00    +0.110 A 
ENDBRANCH  16  17
ENDBRANCH   3  16
TORSDOF 4
