REMARK  Name = ZINCnE000001KDIq.0
REMARK                            x       y       z     vdW  Elec       q    Type
REMARK                         _______ _______ _______ _____ _____    ______ ____
ROOT
ATOM      1  C   LIG    1       -4.782   2.909   8.470  0.00  0.00    +0.100 A 
ATOM      2  C   LIG    1       -5.854   2.201   8.987  0.00  0.00    +0.020 A 
ATOM      3  C   LIG    1       -6.289   1.030   8.360  0.00  0.00    -0.100 A 
ATOM      4  C   LIG    1       -5.640   0.574   7.211  0.00  0.00    +0.020 A 
ATOM      5  C   LIG    1       -4.561   1.292   6.695  0.00  0.00    -0.120 A 
ATOM      6 CL   LIG    1       -6.175  -0.879   6.427  0.00  0.00    -0.010 Cl
ATOM      7  C   LIG    1       -4.131   2.457   7.332  0.00  0.00    +0.010 A 
ENDROOT
BRANCH   5   8
ATOM      8  C   LIG    1       -3.869   0.815   5.479  0.00  0.00    +0.560 C 
ATOM      9  N   LIG    1       -2.826   1.509   4.981  0.00  0.00    -0.730 N 
ATOM     10  H   LIG    1       -2.530   2.321   5.421  0.00  0.00    +0.400 HD
ATOM     11  O   LIG    1       -4.240  -0.203   4.928  0.00  0.00    -0.510 OA
BRANCH   9  12
ATOM     12  C   LIG    1       -2.140   1.036   3.776  0.00  0.00    +0.240 C 
ATOM     13  C   LIG    1       -2.880   1.543   2.537  0.00  0.00    +0.020 C 
ATOM     14  C   LIG    1       -2.164   1.050   1.278  0.00  0.00    +0.030 C 
ATOM     15  C   LIG    1       -0.729   1.579   1.267  0.00  0.00    +0.120 C 
ATOM     16  C   LIG    1        0.011   1.072   2.506  0.00  0.00    +0.030 C 
ATOM     17  F   LIG    1       -0.748   2.978   1.274  0.00  0.00    -0.210 F 
ATOM     18  C   LIG    1       -0.013   1.086   0.008  0.00  0.00    +0.050 C 
ATOM     19  C   LIG    1       -0.705   1.566   3.765  0.00  0.00    +0.020 C 
ENDBRANCH   9  12
ENDBRANCH   5   8
BRANCH   3  20
ATOM     20  C   LIG    1       -7.430   0.277   8.912  0.00  0.00    +0.520 C 
ATOM     21  O   LIG    1       -7.810  -0.748   8.363  0.00  0.00    -0.650 OA
ATOM     22  O   LIG    1       -7.998   0.677   9.919  0.00  0.00    -0.690 OA
ENDBRANCH   3  20
BRANCH   1  24
ATOM     23  C   LIG    1       -5.074   4.453  10.254  0.00  0.00    +0.250 C 
ATOM     24  O   LIG    1       -4.363   4.048   9.082  0.00  0.00    -0.320 OA
ENDBRANCH   1  24
TORSDOF 4
