REMARK  Name = ZINCrH000004uODq.0
REMARK                            x       y       z     vdW  Elec       q    Type
REMARK                         _______ _______ _______ _____ _____    ______ ____
ROOT
ATOM      1  C   LIG    1        3.784   1.323   0.547  0.00  0.00    -0.120 A 
ATOM      2  C   LIG    1        4.089   2.498  -0.139  0.00  0.00    +0.040 A 
ATOM      3  C   LIG    1        5.312   3.110   0.051  0.00  0.00    +0.010 A 
ATOM      4  C   LIG    1        6.241   2.564   0.920  0.00  0.00    +0.040 A 
ATOM      5  C   LIG    1        5.957   1.401   1.607  0.00  0.00    +0.030 A 
ATOM      6  C   LIG    1        4.728   0.772   1.434  0.00  0.00    +0.000 A 
ENDROOT
BRANCH   6   7
ATOM      7  C   LIG    1        4.416  -0.473   2.174  0.00  0.00    -0.010 A 
ATOM      8  C   LIG    1        3.289  -0.537   2.994  0.00  0.00    +0.040 A 
ATOM      9  C   LIG    1        3.001  -1.701   3.677  0.00  0.00    +0.070 A 
ATOM     10  C   LIG    1        3.833  -2.799   3.558  0.00  0.00    -0.180 A 
ATOM     11  C   LIG    1        4.955  -2.740   2.751  0.00  0.00    +0.070 A 
ATOM     12  C   LIG    1        5.251  -1.584   2.059  0.00  0.00    +0.030 A 
BRANCH  10  13
ATOM     13  C   LIG    1        3.517  -4.066   4.312  0.00  0.00    +0.510 C 
ATOM     14  F   LIG    1        3.993  -5.167   3.593  0.00  0.00    -0.180 F 
ATOM     15  F   LIG    1        2.132  -4.177   4.474  0.00  0.00    -0.180 F 
ATOM     16  F   LIG    1        4.132  -4.027   5.568  0.00  0.00    -0.180 F 
ENDBRANCH  10  13
ENDBRANCH   6   7
BRANCH   1  18
ATOM     17  O   LIG    1        2.369  -0.534   0.519  0.00  0.00    -0.500 OA
ATOM     18  C   LIG    1        2.478   0.665   0.349  0.00  0.00    +0.550 C 
ATOM     19  N   LIG    1        1.406   1.393  -0.020  0.00  0.00    -0.720 N 
ATOM     20  H   LIG    1        1.492   2.349  -0.156  0.00  0.00    +0.400 HD
BRANCH  19  21
ATOM     21  C   LIG    1        0.109   0.740  -0.217  0.00  0.00    +0.250 C 
ATOM     22  C   LIG    1       -0.821   1.668  -1.001  0.00  0.00    +0.050 C 
ATOM     23  C   LIG    1       -0.580   3.118  -0.624  0.00  0.00    +0.010 C 
ATOM     24  C   LIG    1       -0.961   3.454   0.807  0.00  0.00    +0.010 C 
ATOM     25  C   LIG    1       -0.042   2.737   1.798  0.00  0.00    +0.260 C 
ATOM     26  N   LIG    1       -0.587   1.396   2.061  0.00  0.00    -0.720 N 
ATOM     27  H   LIG    1       -0.995   1.201   2.919  0.00  0.00    +0.400 HD
ATOM     28  C   LIG    1       -0.521   0.445   1.128  0.00  0.00    +0.510 C 
ATOM     29  O   LIG    1       -0.968  -0.659   1.357  0.00  0.00    -0.530 OA
ENDBRANCH  19  21
ENDBRANCH   1  18
TORSDOF 4
