REMARK  Name = ZINCnE000001Fphp.0
REMARK                            x       y       z     vdW  Elec       q    Type
REMARK                         _______ _______ _______ _____ _____    ______ ____
ROOT
ATOM      1  C   LIG    1       -3.568   2.721   3.096  0.00  0.00    +0.440 C 
ATOM      2  O   LIG    1       -3.702   3.046   4.258  0.00  0.00    -0.430 OA
ENDROOT
BRANCH   1   3
ATOM      3  C   LIG    1       -2.303   2.300   2.620  0.00  0.00    -0.090 A 
ATOM      4  C   LIG    1       -1.147   2.211   3.365  0.00  0.00    -0.020 A 
ATOM      5  C   LIG    1       -0.134   1.750   2.493  0.00  0.00    -0.270 A 
ATOM      6  C   LIG    1       -0.717   1.576   1.246  0.00  0.00    +0.110 A 
ATOM      7  C   LIG    1       -0.010   1.095   0.005  0.00  0.00    +0.160 C 
ATOM      8  C   LIG    1       -0.993   2.541   4.827  0.00  0.00    +0.130 C 
ATOM      9  N   LIG    1       -2.011   1.912   1.328  0.00  0.00    -0.510 N 
ATOM     10  H   LIG    1       -2.645   1.885   0.594  0.00  0.00    +0.430 HD
BRANCH   5  11
ATOM     11  C   LIG    1        1.269   1.502   2.842  0.00  0.00    +0.440 C 
ATOM     12  O   LIG    1        2.069   2.413   2.820  0.00  0.00    -0.450 OA
ATOM     13  C   LIG    1        1.715   0.115   3.228  0.00  0.00    +0.080 C 
ENDBRANCH   5  11
ENDBRANCH   1   3
BRANCH   1  14
ATOM     14  C   LIG    1       -4.748   2.768   2.160  0.00  0.00    +0.070 C 
BRANCH  14  15
ATOM     15  S   LIG    1       -6.212   3.345   3.061  0.00  0.00    +0.020 S 
BRANCH  15  20
ATOM     16  N   LIG    1      -10.776   3.606  -0.228  0.00  0.00    -0.640 NA
ATOM     17  C   LIG    1       -9.602   3.469   0.339  0.00  0.00    +0.340 A 
ATOM     18  N   LIG    1       -8.440   3.046  -0.238  0.00  0.00    -0.510 NA
ATOM     19  N   LIG    1       -7.337   2.990   0.584  0.00  0.00    -0.250 NA
ATOM     20  C   LIG    1       -7.468   3.334   1.825  0.00  0.00    -0.080 A 
ATOM     21  S   LIG    1       -9.170   3.784   2.031  0.00  0.00    -0.100 S 
BRANCH  16  22
ATOM     22  C   LIG    1      -10.945   3.290  -1.649  0.00  0.00    +0.180 C 
BRANCH  22  24
ATOM     23  C   LIG    1      -12.064   1.763  -3.280  0.00  0.00    +0.000 C 
ATOM     24  C   LIG    1      -11.888   2.094  -1.796  0.00  0.00    -0.010 C 
ENDBRANCH  22  24
ENDBRANCH  16  22
ENDBRANCH  15  20
ENDBRANCH  14  15
ENDBRANCH   1  14
TORSDOF 7
