REMARK  Name = ZINCah0000002tmc.0
REMARK                            x       y       z     vdW  Elec       q    Type
REMARK                         _______ _______ _______ _____ _____    ______ ____
ROOT
ATOM      1  C   LIG    1        1.280   2.024   0.001  0.00  0.00    +0.150 C 
ATOM      2  C   LIG    1        1.642   2.730   1.318  0.00  0.00    -0.030 C 
ATOM      3  C   LIG    1        0.996   3.994   0.726  0.00  0.00    +0.150 C 
ATOM      4  C   LIG    1        1.314   3.410  -0.664  0.00  0.00    -0.080 C 
ATOM      5  C   LIG    1        0.200   3.625  -1.691  0.00  0.00    +0.060 C 
ATOM      6  C   LIG    1        2.695   3.803  -1.192  0.00  0.00    +0.070 C 
ENDROOT
BRANCH   3   7
ATOM      7  O   LIG    1       -0.404   4.101   0.995  0.00  0.00    -0.540 OA
ATOM      8  H   LIG    1       -0.610   4.424   1.883  0.00  0.00    +0.380 HD
ENDBRANCH   3   7
BRANCH   1   9
ATOM      9  O   LIG    1       -0.017   1.425   0.010  0.00  0.00    -0.350 OA
BRANCH   9  11
ATOM     10  C   LIG    1       -1.433  -0.534   0.013  0.00  0.00    +0.040 C 
ATOM     11  C   LIG    1        0.002  -0.004   0.002  0.00  0.00    +0.150 C 
ENDBRANCH   9  11
ENDBRANCH   1   9
TORSDOF 3
