REMARK  Name = ZINCpk000000mK4y.0
REMARK                            x       y       z     vdW  Elec       q    Type
REMARK                         _______ _______ _______ _____ _____    ______ ____
ROOT
ATOM      1  C   LIG    1        0.682   4.228  -4.338  0.00  0.00    +0.270 A 
ATOM      2  C   LIG    1        1.302   3.736  -5.480  0.00  0.00    -0.060 A 
ATOM      3  C   LIG    1        1.436   2.374  -5.661  0.00  0.00    +0.080 A 
ATOM      4  C   LIG    1        0.954   1.489  -4.710  0.00  0.00    -0.050 A 
ATOM      5  C   LIG    1        0.340   1.958  -3.570  0.00  0.00    +0.080 A 
ATOM      6  C   LIG    1        0.193   3.334  -3.373  0.00  0.00    -0.210 A 
ENDROOT
BRANCH   6   7
ATOM      7  C   LIG    1       -0.467   3.843  -2.157  0.00  0.00    +0.570 C 
ATOM      8  N   LIG    1       -0.030   3.457  -0.942  0.00  0.00    -0.600 N 
ATOM      9  C   LIG    1        1.046   2.465  -0.813  0.00  0.00    +0.270 C 
ATOM     10  C   LIG    1        2.151   3.048   0.074  0.00  0.00    +0.030 C 
ATOM     11  C   LIG    1        1.547   3.496   1.407  0.00  0.00    +0.030 C 
ATOM     12  C   LIG    1        0.504   4.587   1.155  0.00  0.00    +0.150 C 
ATOM     13  C   LIG    1       -0.620   4.022   0.280  0.00  0.00    +0.250 C 
ATOM     14  O   LIG    1       -1.405   4.611  -2.250  0.00  0.00    -0.540 OA
BRANCH  12  15
ATOM     15  O   LIG    1       -0.038   5.027   2.401  0.00  0.00    -0.560 OA
ATOM     16  H   LIG    1       -0.709   5.718   2.317  0.00  0.00    +0.380 HD
ENDBRANCH  12  15
ENDBRANCH   6   7
BRANCH   1  17
ATOM     17  N   LIG    1        0.546   5.598  -4.153  0.00  0.00    -0.720 N 
ATOM     18  H   LIG    1        0.183   5.941  -3.322  0.00  0.00    +0.410 HD
BRANCH  17  22
ATOM     19  N   LIG    1        2.624   8.167  -5.247  0.00  0.00    -0.620 N 
ATOM     20  C   LIG    1        1.358   8.873  -5.480  0.00  0.00    +0.260 C 
ATOM     21  C   LIG    1        0.251   7.890  -5.036  0.00  0.00    +0.050 C 
ATOM     22  C   LIG    1        0.953   6.524  -5.213  0.00  0.00    +0.240 C 
ATOM     23  C   LIG    1        2.426   6.846  -5.099  0.00  0.00    +0.500 C 
ATOM     24  O   LIG    1        3.302   6.030  -4.902  0.00  0.00    -0.510 OA
BRANCH  19  25
ATOM     25  C   LIG    1        3.934   8.820  -5.183  0.00  0.00    +0.320 C 
BRANCH  25  27
ATOM     26  C   LIG    1        4.926  10.006  -7.072  0.00  0.00    +0.030 C 
ATOM     27  C   LIG    1        4.541   8.863  -6.562  0.00  0.00    -0.070 C 
ENDBRANCH  25  27
ENDBRANCH  19  25
ENDBRANCH  17  22
ENDBRANCH   1  17
TORSDOF 6
