REMARK  Name = ZINCrg00000aSvrO.0
REMARK                            x       y       z     vdW  Elec       q    Type
REMARK                         _______ _______ _______ _____ _____    ______ ____
ROOT
ATOM      1  N   LIG    1        3.215  -2.058   0.171  0.00  0.00    -0.570 N 
ATOM      2  C   LIG    1        4.330  -1.569  -0.397  0.00  0.00    +0.710 C 
ATOM      3  N   LIG    1        5.536  -1.722   0.176  0.00  0.00    -0.730 N 
ATOM      4  H   LIG    1        6.330  -1.427  -0.297  0.00  0.00    +0.430 HD
ATOM      5  C   LIG    1        5.669  -2.332   1.500  0.00  0.00    +0.300 C 
ATOM      6  C   LIG    1        4.624  -3.439   1.660  0.00  0.00    +0.010 C 
ATOM      7  O   LIG    1        4.244  -0.969  -1.451  0.00  0.00    -0.550 OA
ATOM      8  C   LIG    1        3.284  -2.928   1.195  0.00  0.00    +0.520 C 
ATOM      9  O   LIG    1        2.269  -3.300   1.744  0.00  0.00    -0.480 OA
ENDROOT
BRANCH   1  10
ATOM     10  C   LIG    1        1.905  -1.643  -0.336  0.00  0.00    +0.330 C 
BRANCH  10  13
ATOM     11  N   LIG    1       -0.018   1.463   0.010  0.00  0.00    -0.620 N 
ATOM     12  C   LIG    1        0.002  -0.004   0.002  0.00  0.00    +0.270 C 
ATOM     13  C   LIG    1        1.435  -0.399   0.422  0.00  0.00    -0.020 C 
ATOM     14  C   LIG    1        2.244   0.848  -0.005  0.00  0.00    +0.060 C 
ATOM     15  C   LIG    1        1.228   1.969   0.001  0.00  0.00    +0.520 C 
ATOM     16  O   LIG    1        1.498   3.151  -0.003  0.00  0.00    -0.510 OA
BRANCH  11  17
ATOM     17  C   LIG    1       -1.238   2.273   0.021  0.00  0.00    +0.320 C 
BRANCH  17  18
ATOM     18  C   LIG    1       -1.656   2.548   1.467  0.00  0.00    +0.150 C 
BRANCH  18  20
ATOM     19  C   LIG    1       -0.958   3.668   3.467  0.00  0.00    +0.200 C 
ATOM     20  O   LIG    1       -0.663   3.353   2.105  0.00  0.00    -0.380 OA
ENDBRANCH  18  20
ENDBRANCH  17  18
ENDBRANCH  11  17
ENDBRANCH  10  13
ENDBRANCH   1  10
BRANCH   6  21
ATOM     21  C   LIG    1        5.029  -4.651   0.817  0.00  0.00    +0.110 C 
BRANCH  21  22
ATOM     22  C   LIG    1        4.063  -5.781   1.066  0.00  0.00    -0.100 A 
ATOM     23  C   LIG    1        4.314  -6.695   2.072  0.00  0.00    +0.050 A 
ATOM     24  C   LIG    1        3.426  -7.728   2.305  0.00  0.00    -0.010 A 
ATOM     25  C   LIG    1        2.292  -7.855   1.522  0.00  0.00    +0.100 A 
ATOM     26  C   LIG    1        2.044  -6.942   0.511  0.00  0.00    -0.010 A 
ATOM     27  F   LIG    1        1.426  -8.868   1.744  0.00  0.00    -0.140 F 
ATOM     28  C   LIG    1        2.930  -5.906   0.284  0.00  0.00    +0.040 A 
ENDBRANCH  21  22
ENDBRANCH   6  21
TORSDOF 7
