REMARK  Name = ZINCpk00000KfKHJ.0
REMARK                            x       y       z     vdW  Elec       q    Type
REMARK                         _______ _______ _______ _____ _____    ______ ____
ROOT
ATOM      1  N   LIG    1       -1.464  -1.289   1.856  0.00  0.00    -0.680 N 
ATOM      2  H   LIG    1       -1.765  -1.234   0.935  0.00  0.00    +0.400 HD
ATOM      3  C   LIG    1       -0.347  -0.639   2.239  0.00  0.00    +0.710 C 
ATOM      4  N   LIG    1        0.302   0.157   1.367  0.00  0.00    -0.630 N 
ATOM      5  C   LIG    1       -0.118   0.239  -0.041  0.00  0.00    +0.250 C 
ATOM      6  C   LIG    1       -0.270   1.718  -0.415  0.00  0.00    +0.220 C 
ATOM      7  O   LIG    1        0.928   2.417  -0.068  0.00  0.00    -0.370 OA
ATOM      8  C   LIG    1        1.224   2.412   1.331  0.00  0.00    +0.220 C 
ATOM      9  C   LIG    1        1.453   0.969   1.794  0.00  0.00    +0.230 C 
ATOM     10  O   LIG    1        0.074  -0.770   3.372  0.00  0.00    -0.560 OA
ENDROOT
BRANCH   1  17
ATOM     11  C   LIG    1       -4.239  -1.695   1.386  0.00  0.00    +0.090 C 
ATOM     12  C   LIG    1       -3.546  -2.268   2.595  0.00  0.00    -0.090 A 
ATOM     13  C   LIG    1       -4.260  -3.013   3.512  0.00  0.00    +0.010 A 
ATOM     14  C   LIG    1       -3.621  -3.541   4.626  0.00  0.00    +0.090 A 
ATOM     15  C   LIG    1       -2.264  -3.319   4.818  0.00  0.00    -0.020 A 
ATOM     16  C   LIG    1       -1.549  -2.578   3.898  0.00  0.00    +0.060 A 
ATOM     17  C   LIG    1       -2.189  -2.046   2.787  0.00  0.00    +0.140 A 
BRANCH  14  18
ATOM     18  N   LIG    1       -4.345  -4.296   5.555  0.00  0.00    -0.490 N 
ATOM     19  C   LIG    1       -5.487  -3.533   6.079  0.00  0.00    +0.160 C 
ATOM     20  C   LIG    1       -6.284  -4.416   7.044  0.00  0.00    +0.220 C 
ATOM     21  O   LIG    1       -5.418  -4.878   8.085  0.00  0.00    -0.380 OA
ATOM     22  C   LIG    1       -4.295  -5.625   7.610  0.00  0.00    +0.220 C 
ATOM     23  C   LIG    1       -3.478  -4.755   6.651  0.00  0.00    +0.160 C 
ENDBRANCH  14  18
ENDBRANCH   1  17
BRANCH   9  24
ATOM     24  C   LIG    1        1.574   0.930   3.318  0.00  0.00    +0.070 C 
BRANCH  24  25
ATOM     25  C   LIG    1        2.735   1.822   3.761  0.00  0.00    +0.160 C 
BRANCH  25  26
ATOM     26  O   LIG    1        2.923   1.694   5.172  0.00  0.00    -0.570 OA
ATOM     27  H   LIG    1        3.645   2.233   5.523  0.00  0.00    +0.380 HD
ENDBRANCH  25  26
ENDBRANCH  24  25
ENDBRANCH   9  24
TORSDOF 5
