REMARK  Name = ZINCpe000000UQqx.0
REMARK                            x       y       z     vdW  Elec       q    Type
REMARK                         _______ _______ _______ _____ _____    ______ ____
ROOT
ATOM      1  C   LIG    1       -3.182   0.870   5.592  0.00  0.00    +0.580 C 
ATOM      2  N   LIG    1       -3.146   0.954   4.248  0.00  0.00    -0.590 N 
ATOM      3  C   LIG    1       -3.263   2.256   3.576  0.00  0.00    +0.280 C 
ATOM      4  C   LIG    1       -4.423   2.188   2.575  0.00  0.00    +0.300 C 
ATOM      5  N   LIG    1       -4.265   0.979   1.754  0.00  0.00    -0.990 NA
ATOM      6  C   LIG    1       -4.153  -0.323   2.425  0.00  0.00    +0.290 C 
ATOM      7  C   LIG    1       -2.987  -0.255   3.427  0.00  0.00    +0.290 C 
ATOM      8  O   LIG    1       -3.382   1.867   6.259  0.00  0.00    -0.510 OA
ENDROOT
BRANCH   1  12
ATOM      9  C   LIG    1       -1.130  -3.522   5.686  0.00  0.00    +0.340 C 
ATOM     10  N   LIG    1       -2.159  -2.625   6.216  0.00  0.00    -0.460 N 
ATOM     11  N   LIG    1       -2.367  -1.377   5.620  0.00  0.00    -0.200 NA
ATOM     12  C   LIG    1       -2.981  -0.426   6.252  0.00  0.00    +0.080 C 
ATOM     13  C   LIG    1       -3.485  -0.630   7.656  0.00  0.00    +0.120 C 
ATOM     14  C   LIG    1       -3.954  -2.079   7.824  0.00  0.00    +0.090 C 
ATOM     15  C   LIG    1       -2.899  -3.006   7.276  0.00  0.00    +0.500 C 
ATOM     16  O   LIG    1       -2.718  -4.091   7.786  0.00  0.00    -0.510 OA
ENDBRANCH   1  12
BRANCH   5  17
ATOM     17  S   LIG    1       -4.220   1.083   0.102  0.00  0.00    +2.710 S 
ATOM     18  O   LIG    1       -4.614  -0.191  -0.391  0.00  0.00    -0.940 OA
ATOM     19  O   LIG    1       -4.887   2.289  -0.243  0.00  0.00    -0.940 OA
BRANCH  17  20
ATOM     20  C   LIG    1       -2.534   1.296  -0.362  0.00  0.00    -0.800 A 
ATOM     21  C   LIG    1       -1.679   0.308  -0.628  0.00  0.00    +0.180 A 
ATOM     22  C   LIG    1       -0.403   0.718  -0.978  0.00  0.00    +0.010 A 
ATOM     23  C   LIG    1       -0.222   2.040  -0.990  0.00  0.00    -0.110 A 
ATOM     24 CL   LIG    1        1.265   2.843  -1.389  0.00  0.00    +0.010 Cl
ATOM     25  S   LIG    1       -1.720   2.845  -0.540  0.00  0.00    +0.270 S 
ENDBRANCH  17  20
ENDBRANCH   5  17
TORSDOF 3
