REMARK  Name = ZINCqH0000032kMo.0
REMARK                            x       y       z     vdW  Elec       q    Type
REMARK                         _______ _______ _______ _____ _____    ______ ____
ROOT
ATOM      1  C   LIG    1       -5.981   3.456  -0.576  0.00  0.00    +0.110 A 
ATOM      2  C   LIG    1       -4.808   4.165  -0.786  0.00  0.00    -0.010 A 
ATOM      3  C   LIG    1       -3.606   3.495  -0.903  0.00  0.00    +0.080 A 
ATOM      4  C   LIG    1       -3.572   2.111  -0.810  0.00  0.00    +0.180 A 
ATOM      5  C   LIG    1       -4.748   1.400  -0.605  0.00  0.00    -0.190 A 
ATOM      6  C   LIG    1       -5.948   2.072  -0.483  0.00  0.00    +0.060 A 
ENDROOT
BRANCH   4   7
ATOM      7  N   LIG    1       -2.353   1.430  -0.929  0.00  0.00    -0.680 N 
ATOM      8  H   LIG    1       -2.345   0.483  -1.139  0.00  0.00    +0.410 HD
ATOM      9  C   LIG    1       -1.192   2.091  -0.751  0.00  0.00    +0.710 C 
ATOM     10  N   LIG    1       -0.019   1.460  -0.961  0.00  0.00    -0.620 N 
ATOM     11  C   LIG    1        1.234   2.212  -0.873  0.00  0.00    +0.340 C 
ATOM     12  C   LIG    1        2.372   1.492  -0.128  0.00  0.00    -0.240 C 
ATOM     13  S   LIG    1        1.765   0.695   1.367  0.00  0.00    +1.250 S 
ATOM     14  C   LIG    1        1.124  -0.899   0.760  0.00  0.00    -0.230 C 
ATOM     15  C   LIG    1       -0.138  -0.760   0.042  0.00  0.00    +0.000 C 
ATOM     16  C   LIG    1       -0.669  -2.155  -0.292  0.00  0.00    +0.040 C 
ATOM     17  O   LIG    1        2.852   0.462   2.253  0.00  0.00    -0.850 OA
ATOM     18  C   LIG    1       -0.009   0.046  -1.264  0.00  0.00    +0.260 C 
ATOM     19  O   LIG    1       -1.203   3.255  -0.403  0.00  0.00    -0.560 OA
ENDBRANCH   4   7
BRANCH   5  20
ATOM     20  C   LIG    1       -4.713  -0.104  -0.510  0.00  0.00    +0.510 C 
ATOM     21  F   LIG    1       -3.897  -0.484   0.561  0.00  0.00    -0.170 F 
ATOM     22  F   LIG    1       -4.200  -0.634  -1.698  0.00  0.00    -0.180 F 
ATOM     23  F   LIG    1       -6.009  -0.588  -0.304  0.00  0.00    -0.170 F 
ENDBRANCH   5  20
BRANCH   1  24
ATOM     24  O   LIG    1       -7.164   4.116  -0.461  0.00  0.00    -0.310 OA
BRANCH  24  26
ATOM     25  C   LIG    1       -7.098   6.068  -1.885  0.00  0.00    +0.020 C 
ATOM     26  C   LIG    1       -7.111   5.544  -0.447  0.00  0.00    +0.160 C 
ATOM     27  C   LIG    1       -8.337   6.093   0.285  0.00  0.00    +0.070 C 
ENDBRANCH  24  26
ENDBRANCH   1  24
TORSDOF 4
