REMARK  Name = ZINCpe00000yed09.0
REMARK                            x       y       z     vdW  Elec       q    Type
REMARK                         _______ _______ _______ _____ _____    ______ ____
ROOT
ATOM      1  C   LIG    1       -0.648  -3.294  -1.509  0.00  0.00    +0.600 C 
ATOM      2  N   LIG    1       -0.438  -4.480  -0.905  0.00  0.00    -0.590 N 
ATOM      3  C   LIG    1        0.133  -4.544   0.449  0.00  0.00    +0.330 C 
ATOM      4  C   LIG    1       -0.906  -5.142   1.406  0.00  0.00    +0.110 C 
ATOM      5  C   LIG    1       -1.528  -6.351   0.755  0.00  0.00    +0.120 A 
ATOM      6  C   LIG    1       -1.476  -6.621  -0.574  0.00  0.00    -0.260 A 
ATOM      7  C   LIG    1       -2.162  -7.811  -0.802  0.00  0.00    +0.250 A 
ATOM      8  N   LIG    1       -2.610  -8.248   0.350  0.00  0.00    -0.290 NA
ATOM      9  N   LIG    1       -2.219  -7.341   1.346  0.00  0.00    -0.360 N 
ATOM     10  C   LIG    1       -2.511  -7.453   2.778  0.00  0.00    +0.360 C 
ATOM     11  C   LIG    1       -0.781  -5.744  -1.581  0.00  0.00    +0.320 C 
ATOM     12  O   LIG    1       -0.299  -2.264  -0.965  0.00  0.00    -0.540 OA
ENDROOT
BRANCH   1  15
ATOM     13  N   LIG    1       -2.447  -2.554  -4.570  0.00  0.00    -0.350 N 
ATOM     14  C   LIG    1       -2.028  -2.192  -3.347  0.00  0.00    +0.320 A 
ATOM     15  C   LIG    1       -1.301  -3.245  -2.830  0.00  0.00    -0.300 A 
ATOM     16  C   LIG    1       -1.300  -4.269  -3.804  0.00  0.00    +0.240 A 
ATOM     17  N   LIG    1       -1.988  -3.850  -4.830  0.00  0.00    -0.280 NA
BRANCH  13  18
ATOM     18  C   LIG    1       -3.255  -1.734  -5.476  0.00  0.00    +0.320 C 
BRANCH  18  20
ATOM     19  C   LIG    1       -3.384  -0.750  -7.769  0.00  0.00    +0.030 C 
ATOM     20  C   LIG    1       -2.540  -1.607  -6.823  0.00  0.00    +0.010 C 
ENDBRANCH  18  20
ENDBRANCH  13  18
ENDBRANCH   1  15
BRANCH  11  21
ATOM     21  C   LIG    1        0.474  -6.422  -2.067  0.00  0.00    +0.510 C 
ATOM     22  N   LIG    1        0.432  -7.221  -3.152  0.00  0.00    -0.620 N 
ATOM     23  C   LIG    1       -0.851  -7.516  -3.794  0.00  0.00    +0.290 C 
ATOM     24  C   LIG    1        1.669  -7.793  -3.688  0.00  0.00    +0.290 C 
ATOM     25  O   LIG    1        1.522  -6.250  -1.481  0.00  0.00    -0.520 OA
ENDBRANCH  11  21
TORSDOF 4
