REMARK  Name = ZINCpe000000WA1f.0
REMARK                            x       y       z     vdW  Elec       q    Type
REMARK                         _______ _______ _______ _____ _____    ______ ____
ROOT
ATOM      1  N   LIG    1       -0.753   1.587   1.194  0.00  0.00    -0.460 N 
ATOM      2  C   LIG    1       -0.013   1.086   0.008  0.00  0.00    +0.180 C 
ATOM      3  C   LIG    1       -0.806   1.620  -1.204  0.00  0.00    +0.040 C 
ATOM      4  C   LIG    1       -2.235   1.858  -0.674  0.00  0.00    -0.010 C 
ATOM      5  C   LIG    1       -2.185   1.447   0.813  0.00  0.00    +0.180 C 
ENDROOT
BRANCH   1  11
ATOM      6  C   LIG    1        0.116   1.431   3.447  0.00  0.00    +0.150 A 
ATOM      7  C   LIG    1        0.407   0.672   4.568  0.00  0.00    -0.080 A 
ATOM      8  C   LIG    1        0.131  -0.683   4.578  0.00  0.00    +0.050 A 
ATOM      9  C   LIG    1       -0.436  -1.284   3.470  0.00  0.00    -0.020 A 
ATOM     10  C   LIG    1       -0.736  -0.533   2.349  0.00  0.00    +0.020 A 
ATOM     11  C   LIG    1       -0.457   0.826   2.330  0.00  0.00    +0.040 A 
BRANCH   6  13
ATOM     12  C   LIG    1        0.973   3.316   4.617  0.00  0.00    +0.220 C 
ATOM     13  O   LIG    1        0.387   2.764   3.437  0.00  0.00    -0.300 OA
ENDBRANCH   6  13
ENDBRANCH   1  11
BRANCH   4  14
ATOM     14  C   LIG    1       -3.235   0.984  -1.434  0.00  0.00    +0.270 C 
BRANCH  14  15
ATOM     15  N   LIG    1       -3.304   1.421  -2.830  0.00  0.00    -0.720 N 
ATOM     16  H   LIG    1       -2.759   2.164  -3.133  0.00  0.00    +0.400 HD
ATOM     17  C   LIG    1       -4.126   0.792  -3.694  0.00  0.00    +0.500 C 
ATOM     18  O   LIG    1       -4.808  -0.136  -3.315  0.00  0.00    -0.520 OA
BRANCH  17  19
ATOM     19  C   LIG    1       -4.197   1.243  -5.130  0.00  0.00    +0.340 C 
BRANCH  19  20
ATOM     20  N   LIG    1       -5.154   0.406  -5.858  0.00  0.00    -0.500 N 
ATOM     21  C   LIG    1       -6.463   0.767  -5.917  0.00  0.00    +0.360 A 
ATOM     22  C   LIG    1       -7.339  -0.021  -6.596  0.00  0.00    -0.130 A 
ATOM     23  C   LIG    1       -6.868  -1.182  -7.216  0.00  0.00    +0.430 A 
ATOM     24  N   LIG    1       -5.591  -1.497  -7.135  0.00  0.00    -0.540 NA
ATOM     25  C   LIG    1       -4.735  -0.717  -6.471  0.00  0.00    +0.630 A 
ATOM     26  O   LIG    1       -3.558  -1.028  -6.415  0.00  0.00    -0.530 OA
ENDBRANCH  19  20
ENDBRANCH  17  19
ENDBRANCH  14  15
ENDBRANCH   4  14
TORSDOF 6
