REMARK  Name = ZINCrD00000kE4FX.0
REMARK                            x       y       z     vdW  Elec       q    Type
REMARK                         _______ _______ _______ _____ _____    ______ ____
ROOT
ATOM      1  C   LIG    1        4.275   4.483  -1.542  0.00  0.00    +0.470 C 
ATOM      2  O   LIG    1        5.002   4.727  -0.608  0.00  0.00    -0.500 OA
ENDROOT
BRANCH   1   3
ATOM      3  O   LIG    1        3.133   3.807  -1.344  0.00  0.00    -0.350 OA
BRANCH   3   4
ATOM      4  C   LIG    1        2.834   3.401   0.018  0.00  0.00    +0.270 C 
BRANCH   4   8
ATOM      5  C   LIG    1       -0.885   1.300   0.089  0.00  0.00    -0.060 A 
ATOM      6  C   LIG    1        0.297   0.607  -0.099  0.00  0.00    +0.020 A 
ATOM      7  C   LIG    1        1.500   1.288  -0.124  0.00  0.00    +0.040 A 
ATOM      8  C   LIG    1        1.522   2.659   0.044  0.00  0.00    -0.100 A 
ATOM      9  C   LIG    1        0.341   3.351   0.238  0.00  0.00    +0.040 A 
ATOM     10  C   LIG    1       -0.862   2.671   0.262  0.00  0.00    +0.010 A 
BRANCH   5  14
ATOM     11  O   LIG    1       -5.401   0.633   0.746  0.00  0.00    -0.420 OA
ATOM     12  C   LIG    1       -4.222   0.837   0.584  0.00  0.00    +0.360 C 
ATOM     13  C   LIG    1       -2.971   0.714   1.431  0.00  0.00    +0.040 C 
ATOM     14  C   LIG    1       -2.197   0.559   0.111  0.00  0.00    +0.050 C 
ATOM     15  C   LIG    1       -3.351   1.328  -0.556  0.00  0.00    +0.030 C 
ENDBRANCH   5  14
ENDBRANCH   4   8
ENDBRANCH   3   4
ENDBRANCH   1   3
BRANCH   1  16
ATOM     16  C   LIG    1        4.652   4.938  -2.928  0.00  0.00    +0.110 C 
BRANCH  16  17
ATOM     17  C   LIG    1        5.989   5.679  -2.876  0.00  0.00    +0.310 C 
BRANCH  17  18
ATOM     18  N   LIG    1        6.356   6.121  -4.224  0.00  0.00    -0.740 N 
ATOM     19  H   LIG    1        5.772   5.925  -4.974  0.00  0.00    +0.400 HD
ATOM     20  C   LIG    1        7.503   6.800  -4.422  0.00  0.00    +0.700 C 
ATOM     21  N   LIG    1        7.840   7.206  -5.662  0.00  0.00    -0.690 N 
ATOM     22  H   LIG    1        7.297   6.945  -6.423  0.00  0.00    +0.410 HD
ATOM     23  O   LIG    1        8.234   7.046  -3.482  0.00  0.00    -0.560 OA
BRANCH  21  24
ATOM     24  C   LIG    1        8.972   8.006  -5.853  0.00  0.00    +0.160 A 
ATOM     25  C   LIG    1        9.344   8.928  -4.884  0.00  0.00    +0.010 A 
ATOM     26  C   LIG    1       10.465   9.712  -5.073  0.00  0.00    +0.030 A 
ATOM     27  C   LIG    1       11.212   9.586  -6.230  0.00  0.00    -0.020 A 
ATOM     28  C   LIG    1       10.841   8.673  -7.200  0.00  0.00    +0.030 A 
ATOM     29  C   LIG    1        9.723   7.883  -7.014  0.00  0.00    -0.030 A 
ENDBRANCH  21  24
ENDBRANCH  17  18
ENDBRANCH  16  17
ENDBRANCH   1  16
TORSDOF 8
