REMARK  Name = ZINCpk00000ebhu4.2
REMARK                            x       y       z     vdW  Elec       q    Type
REMARK                         _______ _______ _______ _____ _____    ______ ____
ROOT
ATOM      1  C   LIG    1        3.928   1.074  -0.109  0.00  0.00    +0.330 C 
ATOM      2  N   LIG    1        2.466   0.972  -0.096  0.00  0.00    -0.450 N 
ATOM      3  C   LIG    1        1.739  -0.168  -0.113  0.00  0.00    +0.390 A 
ATOM      4  N   LIG    1        0.469   0.142  -0.093  0.00  0.00    -0.480 NA
ATOM      5  C   LIG    1        0.344   1.471  -0.064  0.00  0.00    +0.010 A 
ATOM      6  C   LIG    1       -0.927   2.287  -0.040  0.00  0.00    +0.110 C 
ATOM      7  C   LIG    1       -1.503   2.343  -1.453  0.00  0.00    +0.020 C 
ATOM      8  C   LIG    1       -2.701   3.293  -1.482  0.00  0.00    +0.020 C 
ATOM      9  C   LIG    1       -2.248   4.682  -1.022  0.00  0.00    +0.170 C 
ATOM     10  N   LIG    1       -1.726   4.588   0.347  0.00  0.00    -0.530 NA
ATOM     11  C   LIG    1       -0.568   3.701   0.430  0.00  0.00    +0.170 C 
ATOM     12  C   LIG    1        0.593   4.244  -0.401  0.00  0.00    +0.010 C 
ATOM     13  C   LIG    1        1.877   3.486  -0.037  0.00  0.00    +0.120 C 
ATOM     14  C   LIG    1        1.583   2.008  -0.066  0.00  0.00    -0.030 A 
ENDROOT
BRANCH  10  15
ATOM     15  C   LIG    1       -1.410   5.919   0.882  0.00  0.00    +0.270 C 
BRANCH  15  16
ATOM     16  C   LIG    1       -1.126   5.813   2.358  0.00  0.00    +0.230 A 
ATOM     17  C   LIG    1        0.107   6.101   2.833  0.00  0.00    -0.140 A 
ATOM     18  C   LIG    1        0.368   6.000   4.214  0.00  0.00    +0.570 A 
ATOM     19  N   LIG    1       -0.612   5.617   5.055  0.00  0.00    -0.360 N 
ATOM     20  N   LIG    1       -0.644   5.432   6.443  0.00  0.00    -0.260 NA
ATOM     21  C   LIG    1       -1.850   5.048   6.782  0.00  0.00    +0.300 A 
ATOM     22  C   LIG    1       -2.634   4.973   5.629  0.00  0.00    -0.120 A 
ATOM     23  C   LIG    1       -1.855   5.327   4.569  0.00  0.00    +0.300 A 
ATOM     24  O   LIG    1        1.477   6.259   4.646  0.00  0.00    -0.490 OA
ATOM     25  N   LIG    1       -2.114   5.431   3.216  0.00  0.00    -0.590 N 
ATOM     26  H   LIG    1       -2.999   5.228   2.875  0.00  0.00    +0.440 HD
ENDBRANCH  15  16
ENDBRANCH  10  15
TORSDOF 2
