REMARK  Name = ZINCqH0000003iqN.0
REMARK                            x       y       z     vdW  Elec       q    Type
REMARK                         _______ _______ _______ _____ _____    ______ ____
ROOT
ATOM      1  C   LIG    1       -0.018   1.053   2.488  0.00  0.00    +0.520 C 
ATOM      2  N   LIG    1       -0.475   1.361   3.718  0.00  0.00    -0.640 N 
ATOM      3  H   LIG    1       -1.260   1.921   3.818  0.00  0.00    +0.420 HD
ATOM      4  O   LIG    1        0.964   0.352   2.364  0.00  0.00    -0.460 OA
ENDROOT
BRANCH   1  10
ATOM      5  C   LIG    1       -2.317   4.486   0.049  0.00  0.00    +0.650 C 
ATOM      6  N   LIG    1       -1.296   3.606   0.034  0.00  0.00    -0.590 N 
ATOM      7  C   LIG    1       -0.741   3.124  -1.238  0.00  0.00    +0.290 C 
ATOM      8  C   LIG    1       -0.752   1.593  -1.232  0.00  0.00    +0.020 C 
ATOM      9  C   LIG    1       -0.013   1.086   0.008  0.00  0.00    +0.060 C 
ATOM     10  C   LIG    1       -0.729   1.579   1.268  0.00  0.00    -0.010 C 
ATOM     11  C   LIG    1       -0.717   3.111   1.290  0.00  0.00    +0.320 C 
ATOM     12  O   LIG    1       -2.767   4.877   1.107  0.00  0.00    -0.570 OA
BRANCH   5  13
ATOM     13  O   LIG    1       -2.838   4.932  -1.110  0.00  0.00    -0.370 OA
BRANCH  13  15
ATOM     14  C   LIG    1       -4.393   6.267  -2.426  0.00  0.00    +0.070 C 
ATOM     15  C   LIG    1       -3.936   5.878  -1.018  0.00  0.00    +0.220 C 
ENDBRANCH  13  15
ENDBRANCH   5  13
ENDBRANCH   1  10
BRANCH   2  16
ATOM     16  C   LIG    1        0.179   0.876   4.843  0.00  0.00    +0.270 A 
ATOM     17  N   LIG    1        1.231   0.117   4.819  0.00  0.00    -0.470 NA
ATOM     18  C   LIG    1        1.731  -0.251   5.979  0.00  0.00    +0.270 A 
ATOM     19  C   LIG    1        1.055   0.217   7.049  0.00  0.00    -0.210 A 
ATOM     20  S   LIG    1       -0.291   1.188   6.457  0.00  0.00    +0.160 S 
BRANCH  19  21
ATOM     21  C   LIG    1        1.384  -0.040   8.466  0.00  0.00    +0.030 A 
ATOM     22  C   LIG    1        2.481  -0.838   8.798  0.00  0.00    +0.020 A 
ATOM     23  C   LIG    1        2.787  -1.070  10.123  0.00  0.00    +0.060 A 
ATOM     24  C   LIG    1        2.003  -0.525  11.123  0.00  0.00    -0.010 A 
ATOM     25  C   LIG    1        0.909   0.263  10.803  0.00  0.00    +0.110 A 
ATOM     26  F   LIG    1        0.148   0.793  11.785  0.00  0.00    -0.140 F 
ATOM     27  C   LIG    1        0.596   0.508   9.479  0.00  0.00    -0.020 A 
ENDBRANCH  19  21
ENDBRANCH   2  16
TORSDOF 5
