REMARK  Name = ZINCrH000004tTRJ.1
REMARK                            x       y       z     vdW  Elec       q    Type
REMARK                         _______ _______ _______ _____ _____    ______ ____
ROOT
ATOM      1  C   LIG    1        4.391   6.112  -0.346  0.00  0.00    +0.170 A 
ATOM      2  C   LIG    1        5.419   5.171  -0.371  0.00  0.00    +0.020 A 
ATOM      3  C   LIG    1        6.724   5.569  -0.406  0.00  0.00    +0.090 A 
ATOM      4  C   LIG    1        7.040   6.930  -0.407  0.00  0.00    +0.040 A 
ATOM      5  N   LIG    1        8.211   7.619  -0.432  0.00  0.00    -0.490 NA
ATOM      6  C   LIG    1        7.967   8.896  -0.420  0.00  0.00    +0.290 A 
ATOM      7  N   LIG    1        6.624   9.116  -0.386  0.00  0.00    -0.600 N 
ATOM      8  H   LIG    1        6.183   9.980  -0.371  0.00  0.00    +0.420 HD
ATOM      9  C   LIG    1        6.006   7.882  -0.377  0.00  0.00    +0.070 A 
ATOM     10  C   LIG    1        4.683   7.465  -0.346  0.00  0.00    -0.010 A 
ENDROOT
BRANCH   6  11
ATOM     11  C   LIG    1        9.019   9.976  -0.439  0.00  0.00    +0.100 C 
ATOM     12  C   LIG    1        8.549  11.161   0.406  0.00  0.00    +0.010 C 
ATOM     13  C   LIG    1        9.617  12.257   0.386  0.00  0.00    +0.020 C 
ATOM     14  C   LIG    1        9.847  12.717  -1.054  0.00  0.00    +0.010 C 
ATOM     15  C   LIG    1       10.317  11.532  -1.900  0.00  0.00    +0.020 C 
ATOM     16  C   LIG    1        9.249  10.436  -1.880  0.00  0.00    +0.020 C 
ENDBRANCH   6  11
BRANCH   1  19
ATOM     17  O   LIG    1        3.503   3.959  -1.635  0.00  0.00    -0.510 OA
ATOM     18  C   LIG    1        2.695   4.556  -0.955  0.00  0.00    +0.510 C 
ATOM     19  N   LIG    1        3.057   5.686  -0.315  0.00  0.00    -0.670 N 
ATOM     20  H   LIG    1        2.394   6.205   0.166  0.00  0.00    +0.410 HD
BRANCH  18  21
ATOM     21  C   LIG    1        1.288   4.034  -0.824  0.00  0.00    +0.070 C 
BRANCH  21  22
ATOM     22  C   LIG    1        1.142   2.750  -1.642  0.00  0.00    +0.040 C 
ATOM     23  C   LIG    1        2.043   1.669  -1.052  0.00  0.00    +0.030 C 
ATOM     24  C   LIG    1        2.114   0.461  -1.982  0.00  0.00    +0.070 C 
ATOM     25  C   LIG    1        0.771  -0.273  -1.990  0.00  0.00    -0.340 C 
ATOM     26  S   LIG    1       -0.501   0.829  -2.674  0.00  0.00    +2.420 S 
ATOM     27  O   LIG    1       -0.131   1.184  -3.999  0.00  0.00    -0.930 OA
ATOM     28  O   LIG    1       -1.778   0.252  -2.438  0.00  0.00    -0.940 OA
ATOM     29  C   LIG    1       -0.317   2.289  -1.609  0.00  0.00    -0.330 C 
ENDBRANCH  21  22
ENDBRANCH  18  21
ENDBRANCH   1  19
TORSDOF 4
