REMARK  Name = ZINCrH000004tTRJ.0
REMARK                            x       y       z     vdW  Elec       q    Type
REMARK                         _______ _______ _______ _____ _____    ______ ____
ROOT
ATOM      1  C   LIG    1        4.392   6.112  -0.346  0.00  0.00    +0.140 A 
ATOM      2  C   LIG    1        5.419   5.170  -0.371  0.00  0.00    +0.040 A 
ATOM      3  C   LIG    1        6.735   5.576  -0.407  0.00  0.00    +0.040 A 
ATOM      4  C   LIG    1        7.043   6.929  -0.408  0.00  0.00    +0.040 A 
ATOM      5  N   LIG    1        8.226   7.644  -0.434  0.00  0.00    -0.600 N 
ATOM      6  H   LIG    1        9.122   7.273  -0.458  0.00  0.00    +0.420 HD
ATOM      7  C   LIG    1        7.900   8.965  -0.419  0.00  0.00    +0.300 A 
ATOM      8  N   LIG    1        6.607   9.107  -0.386  0.00  0.00    -0.490 NA
ATOM      9  C   LIG    1        6.014   7.885  -0.377  0.00  0.00    +0.070 A 
ATOM     10  C   LIG    1        4.682   7.463  -0.346  0.00  0.00    +0.030 A 
ENDROOT
BRANCH   7  11
ATOM     11  C   LIG    1        8.893  10.099  -0.436  0.00  0.00    +0.100 C 
ATOM     12  C   LIG    1       10.097   9.709  -1.295  0.00  0.00    +0.010 C 
ATOM     13  C   LIG    1       11.105  10.860  -1.313  0.00  0.00    +0.020 C 
ATOM     14  C   LIG    1       11.570  11.153   0.115  0.00  0.00    +0.010 C 
ATOM     15  C   LIG    1       10.365  11.543   0.973  0.00  0.00    +0.020 C 
ATOM     16  C   LIG    1        9.358  10.392   0.991  0.00  0.00    +0.020 C 
ENDBRANCH   7  11
BRANCH   1  19
ATOM     17  O   LIG    1        3.503   3.959  -1.635  0.00  0.00    -0.510 OA
ATOM     18  C   LIG    1        2.696   4.556  -0.954  0.00  0.00    +0.510 C 
ATOM     19  N   LIG    1        3.057   5.686  -0.315  0.00  0.00    -0.670 N 
ATOM     20  H   LIG    1        2.394   6.205   0.166  0.00  0.00    +0.410 HD
BRANCH  18  21
ATOM     21  C   LIG    1        1.288   4.034  -0.823  0.00  0.00    +0.070 C 
BRANCH  21  22
ATOM     22  C   LIG    1        1.142   2.749  -1.641  0.00  0.00    +0.040 C 
ATOM     23  C   LIG    1        2.043   1.668  -1.051  0.00  0.00    +0.030 C 
ATOM     24  C   LIG    1        2.114   0.461  -1.980  0.00  0.00    +0.070 C 
ATOM     25  C   LIG    1        0.771  -0.273  -1.988  0.00  0.00    -0.340 C 
ATOM     26  S   LIG    1       -0.500   0.829  -2.673  0.00  0.00    +2.420 S 
ATOM     27  O   LIG    1       -0.130   1.183  -3.998  0.00  0.00    -0.930 OA
ATOM     28  O   LIG    1       -1.777   0.251  -2.437  0.00  0.00    -0.940 OA
ATOM     29  C   LIG    1       -0.317   2.289  -1.608  0.00  0.00    -0.330 C 
ENDBRANCH  21  22
ENDBRANCH  18  21
ENDBRANCH   1  19
TORSDOF 4
