REMARK  Name = ZINCtV000002KsBT.0
REMARK                            x       y       z     vdW  Elec       q    Type
REMARK                         _______ _______ _______ _____ _____    ______ ____
ROOT
ATOM      1  C   LIG    1       -7.252   0.710  -0.587  0.00  0.00    +0.260 A 
ATOM      2  N   LIG    1       -7.191   0.729   0.725  0.00  0.00    -0.260 NA
ATOM      3  N   LIG    1       -6.064   1.232   1.090  0.00  0.00    -0.250 NA
ATOM      4  C   LIG    1       -5.368   1.552   0.037  0.00  0.00    +0.170 A 
ATOM      5  O   LIG    1       -6.100   1.237  -1.047  0.00  0.00    -0.210 OA
ENDROOT
BRANCH   1   8
ATOM      6  C   LIG    1       -7.462   0.640  -3.769  0.00  0.00    +0.210 C 
ATOM      7  C   LIG    1       -8.487   0.172  -2.768  0.00  0.00    +0.040 A 
ATOM      8  C   LIG    1       -8.376   0.212  -1.404  0.00  0.00    -0.150 A 
ATOM      9  C   LIG    1       -9.655  -0.373  -0.952  0.00  0.00    +0.120 A 
ATOM     10  N   LIG    1      -10.311  -0.653  -2.050  0.00  0.00    -0.340 NA
ATOM     11  O   LIG    1       -9.683  -0.364  -3.039  0.00  0.00    +0.110 OA
BRANCH   9  12
ATOM     12  C   LIG    1      -10.101  -0.591   0.445  0.00  0.00    -0.040 A 
ATOM     13  C   LIG    1       -9.179  -0.950   1.427  0.00  0.00    +0.070 A 
ATOM     14  C   LIG    1       -9.599  -1.146   2.726  0.00  0.00    +0.010 A 
ATOM     15  C   LIG    1      -10.935  -1.000   3.054  0.00  0.00    +0.030 A 
ATOM     16  C   LIG    1      -11.856  -0.650   2.083  0.00  0.00    +0.000 A 
ATOM     17  C   LIG    1      -11.446  -0.445   0.781  0.00  0.00    +0.050 A 
ENDBRANCH   9  12
ENDBRANCH   1   8
BRANCH   4  18
ATOM     18  C   LIG    1       -3.993   2.169   0.033  0.00  0.00    +0.240 C 
BRANCH  18  19
ATOM     19  S   LIG    1       -2.741   0.857   0.020  0.00  0.00    -0.070 S 
BRANCH  19  20
ATOM     20  C   LIG    1       -1.225   1.755   0.017  0.00  0.00    -0.090 A 
ATOM     21  C   LIG    1       -0.013   1.076   0.008  0.00  0.00    +0.040 A 
ATOM     22  C   LIG    1        1.173   1.783   0.000  0.00  0.00    +0.040 A 
ATOM     23  C   LIG    1        1.155   3.166   0.007  0.00  0.00    -0.070 A 
ATOM     24  C   LIG    1       -0.049   3.845   0.021  0.00  0.00    +0.030 A 
ATOM     25  C   LIG    1       -1.239   3.145   0.029  0.00  0.00    -0.010 A 
BRANCH  23  26
ATOM     26  C   LIG    1        2.452   3.935  -0.002  0.00  0.00    -0.030 C 
ATOM     27  C   LIG    1        3.270   3.568   1.238  0.00  0.00    +0.040 C 
ATOM     28  C   LIG    1        2.155   5.436   0.008  0.00  0.00    +0.030 C 
ATOM     29  C   LIG    1        3.246   3.580  -1.260  0.00  0.00    +0.040 C 
ENDBRANCH  23  26
ENDBRANCH  19  20
ENDBRANCH  18  19
ENDBRANCH   4  18
TORSDOF 6
