REMARK  Name = ZINCvU00000007TY.0
REMARK                            x       y       z     vdW  Elec       q    Type
REMARK                         _______ _______ _______ _____ _____    ______ ____
ROOT
ATOM      1  C   LIG    1       -4.680   6.068   0.256  0.00  0.00    +0.110 C 
ATOM      2  C   LIG    1       -5.479   4.792   0.323  0.00  0.00    -0.000 A 
ATOM      3  C   LIG    1       -6.856   4.837   0.312  0.00  0.00    +0.000 A 
ATOM      4  C   LIG    1       -7.593   3.664   0.374  0.00  0.00    +0.080 A 
ATOM      5  C   LIG    1       -6.960   2.442   0.448  0.00  0.00    -0.110 A 
ATOM      6  C   LIG    1       -5.571   2.375   0.460  0.00  0.00    +0.170 A 
ATOM      7  N   LIG    1       -4.691   1.307   0.526  0.00  0.00    -0.490 N 
ATOM      8  C   LIG    1       -3.386   1.755   0.509  0.00  0.00    +0.320 A 
ATOM      9  N   LIG    1       -2.233   1.113   0.552  0.00  0.00    -0.450 NA
ATOM     10  C   LIG    1       -1.086   1.800   0.521  0.00  0.00    +0.130 A 
ATOM     11  C   LIG    1        0.153   1.137   0.567  0.00  0.00    +0.050 A 
ATOM     12  C   LIG    1        1.307   1.857   0.528  0.00  0.00    +0.050 A 
ATOM     13  C   LIG    1        1.283   3.249   0.449  0.00  0.00    +0.030 A 
ATOM     14  C   LIG    1        0.104   3.926   0.408  0.00  0.00    +0.070 A 
ATOM     15  C   LIG    1       -1.111   3.217   0.446  0.00  0.00    +0.070 A 
ATOM     16  N   LIG    1       -2.281   3.860   0.407  0.00  0.00    -0.390 NA
ATOM     17  C   LIG    1       -3.406   3.171   0.428  0.00  0.00    +0.120 A 
ATOM     18  C   LIG    1       -7.775   1.175   0.515  0.00  0.00    +0.110 C 
ATOM     19  C   LIG    1       -4.828   3.563   0.397  0.00  0.00    -0.100 A 
ENDROOT
BRANCH   7  20
ATOM     20  C   LIG    1       -5.090  -0.101   0.604  0.00  0.00    +0.480 C 
BRANCH  20  21
ATOM     21  C   LIG    1       -5.121  -0.691  -0.782  0.00  0.00    +0.130 A 
ATOM     22  N   LIG    1       -4.126  -1.269  -1.395  0.00  0.00    -0.240 NA
ATOM     23  N   LIG    1       -4.507  -1.658  -2.561  0.00  0.00    -0.280 NA
ATOM     24  C   LIG    1       -5.766  -1.331  -2.736  0.00  0.00    +0.220 A 
ATOM     25  O   LIG    1       -6.178  -0.712  -1.612  0.00  0.00    -0.210 OA
BRANCH  24  26
ATOM     26  C   LIG    1       -6.580  -1.593  -3.943  0.00  0.00    -0.030 A 
ATOM     27  C   LIG    1       -7.915  -1.190  -3.987  0.00  0.00    +0.050 A 
ATOM     28  C   LIG    1       -8.668  -1.432  -5.118  0.00  0.00    +0.010 A 
ATOM     29  C   LIG    1       -8.104  -2.082  -6.202  0.00  0.00    +0.040 A 
ATOM     30  C   LIG    1       -6.782  -2.489  -6.162  0.00  0.00    +0.020 A 
ATOM     31  C   LIG    1       -6.018  -2.248  -5.039  0.00  0.00    +0.080 A 
ENDBRANCH  24  26
ENDBRANCH  20  21
ENDBRANCH   7  20
TORSDOF 3
