REMARK  Name = ZINCkj000005lGuu.1
REMARK                            x       y       z     vdW  Elec       q    Type
REMARK                         _______ _______ _______ _____ _____    ______ ____
ROOT
ATOM      1  O   LIG    1       -3.148   4.876  -0.147  0.00  0.00    -0.520 OA
ATOM      2  C   LIG    1       -3.295   4.406   0.961  0.00  0.00    +0.510 C 
ATOM      3  N   LIG    1       -4.163   4.971   1.823  0.00  0.00    -0.690 N 
ATOM      4  H   LIG    1       -4.334   4.553   2.682  0.00  0.00    +0.410 HD
ENDROOT
BRANCH   2   5
ATOM      5  C   LIG    1       -2.505   3.190   1.374  0.00  0.00    +0.170 C 
ATOM      6  C   LIG    1       -1.609   3.535   2.573  0.00  0.00    +0.080 C 
ATOM      7  C   LIG    1       -0.753   2.334   2.973  0.00  0.00    +0.050 C 
ATOM      8  C   LIG    1        0.019   1.793   1.759  0.00  0.00    +0.070 C 
ATOM      9  C   LIG    1       -0.996   1.484   0.673  0.00  0.00    +0.180 C 
ATOM     10  C   LIG    1       -0.389   0.970  -0.636  0.00  0.00    +0.080 C 
ATOM     11  C   LIG    1       -1.302   1.563  -1.738  0.00  0.00    +0.070 C 
ATOM     12  C   LIG    1       -2.335   2.434  -0.975  0.00  0.00    +0.270 C 
ATOM     13  N   LIG    1       -1.642   2.767   0.280  0.00  0.00    -0.380 N 
ATOM     14  H   LIG    1       -0.939   3.470   0.106  0.00  0.00    +0.430 HD
ENDBRANCH   2   5
BRANCH   3  15
ATOM     15  C   LIG    1       -4.848   6.215   1.464  0.00  0.00    +0.180 C 
ATOM     16  C   LIG    1       -5.733   6.655   2.626  0.00  0.00    +0.070 C 
ATOM     17  C   LIG    1       -6.596   5.483   3.100  0.00  0.00    +0.110 C 
ATOM     18  S   LIG    1       -7.703   4.986   1.746  0.00  0.00    -0.240 S 
ATOM     19  C   LIG    1       -6.540   4.726   0.374  0.00  0.00    +0.100 C 
ATOM     20  C   LIG    1       -5.683   5.984   0.208  0.00  0.00    +0.060 C 
BRANCH  15  21
ATOM     21  C   LIG    1       -3.807   7.300   1.184  0.00  0.00    +0.190 C 
BRANCH  21  22
ATOM     22  O   LIG    1       -2.932   7.423   2.308  0.00  0.00    -0.570 OA
ATOM     23  H   LIG    1       -2.245   8.095   2.200  0.00  0.00    +0.390 HD
ENDBRANCH  21  22
ENDBRANCH  15  21
ENDBRANCH   3  15
TORSDOF 4
