REMARK  Name = ZINCkj000005lGuu.0
REMARK                            x       y       z     vdW  Elec       q    Type
REMARK                         _______ _______ _______ _____ _____    ______ ____
ROOT
ATOM      1  O   LIG    1       -3.046   2.362   2.852  0.00  0.00    -0.450 OA
ATOM      2  C   LIG    1       -3.135   1.163   3.005  0.00  0.00    +0.490 C 
ATOM      3  N   LIG    1       -2.071   0.371   2.767  0.00  0.00    -0.710 N 
ATOM      4  H   LIG    1       -2.160  -0.593   2.825  0.00  0.00    +0.400 HD
ENDROOT
BRANCH   2   5
ATOM      5  C   LIG    1       -4.437   0.556   3.461  0.00  0.00    +0.150 C 
ATOM      6  C   LIG    1       -5.539   1.109   2.583  0.00  0.00    +0.090 C 
ATOM      7  C   LIG    1       -6.146   2.358   3.227  0.00  0.00    +0.060 C 
ATOM      8  C   LIG    1       -6.775   1.916   4.550  0.00  0.00    +0.070 C 
ATOM      9  C   LIG    1       -5.722   1.349   5.474  0.00  0.00    +0.150 C 
ATOM     10  C   LIG    1       -5.252   2.438   6.467  0.00  0.00    +0.090 C 
ATOM     11  C   LIG    1       -3.798   1.991   6.785  0.00  0.00    +0.080 C 
ATOM     12  C   LIG    1       -3.343   1.447   5.405  0.00  0.00    +0.240 C 
ATOM     13  N   LIG    1       -4.549   0.769   4.869  0.00  0.00    -0.350 N 
ATOM     14  H   LIG    1       -4.499  -0.155   5.271  0.00  0.00    +0.420 HD
ENDBRANCH   2   5
BRANCH   3  15
ATOM     15  C   LIG    1       -0.778   0.967   2.419  0.00  0.00    +0.180 C 
ATOM     16  C   LIG    1        0.218  -0.143   2.100  0.00  0.00    +0.060 C 
ATOM     17  C   LIG    1       -0.401  -1.127   1.104  0.00  0.00    +0.110 C 
ATOM     18  S   LIG    1       -0.738  -0.252  -0.453  0.00  0.00    -0.240 S 
ATOM     19  C   LIG    1       -1.723   1.168   0.111  0.00  0.00    +0.100 C 
ATOM     20  C   LIG    1       -0.956   1.893   1.219  0.00  0.00    +0.080 C 
BRANCH  15  21
ATOM     21  C   LIG    1       -0.263   1.780   3.609  0.00  0.00    +0.190 C 
BRANCH  21  22
ATOM     22  O   LIG    1       -1.105   2.918   3.808  0.00  0.00    -0.540 OA
ATOM     23  H   LIG    1       -0.837   3.480   4.548  0.00  0.00    +0.380 HD
ENDBRANCH  21  22
ENDBRANCH  15  21
ENDBRANCH   3  15
TORSDOF 4
