REMARK  Name = ZINCb70000004SOg.0
REMARK                            x       y       z     vdW  Elec       q    Type
REMARK                         _______ _______ _______ _____ _____    ______ ____
ROOT
ATOM      1  C   LIG    1        0.002  -0.004   0.002  0.00  0.00    +0.190 C 
ATOM      2  C   LIG    1       -0.019   1.538   0.011  0.00  0.00    +0.080 C 
ATOM      3  C   LIG    1        1.477   1.939  -0.002  0.00  0.00    +0.050 C 
ATOM      4  C   LIG    1        2.107   0.881  -0.942  0.00  0.00    +0.090 C 
ATOM      5  C   LIG    1        1.353  -0.422  -0.604  0.00  0.00    -0.470 C 
ENDROOT
BRANCH   1   7
ATOM      6  C   LIG    1       -1.442  -0.185   1.909  0.00  0.00    +0.340 C 
ATOM      7  N   LIG    1       -0.114  -0.516   1.374  0.00  0.00    -0.500 N 
ATOM      8  H   LIG    1        0.596  -0.094   1.952  0.00  0.00    +0.430 HD
ATOM      9  H   LIG    1        0.006  -1.518   1.370  0.00  0.00    +0.430 HD
ENDBRANCH   1   7
BRANCH   5  10
ATOM     10  S   LIG    1        1.084  -1.395  -2.111  0.00  0.00    +2.420 S 
ATOM     11  O   LIG    1        0.484  -0.558  -3.089  0.00  0.00    -0.910 OA
ATOM     12  O   LIG    1        0.446  -2.614  -1.755  0.00  0.00    -0.930 OA
ATOM     13  C   LIG    1        2.784  -1.762  -2.628  0.00  0.00    -0.230 C 
ENDBRANCH   5  10
TORSDOF 2
