REMARK  Name = ZINCpe000000ZvYI.0
REMARK                            x       y       z     vdW  Elec       q    Type
REMARK                         _______ _______ _______ _____ _____    ______ ____
ROOT
ATOM      1  C   LIG    1        1.159   3.519   0.001  0.00  0.00    +0.580 C 
ATOM      2  N   LIG    1        0.849   2.412   0.703  0.00  0.00    -0.600 N 
ATOM      3  C   LIG    1       -0.401   1.684   0.439  0.00  0.00    +0.290 C 
ATOM      4  C   LIG    1       -0.060   0.221   0.129  0.00  0.00    +0.290 C 
ATOM      5  N   LIG    1        0.845  -0.281   1.172  0.00  0.00    -0.610 N 
ATOM      6  C   LIG    1        2.094   0.446   1.436  0.00  0.00    +0.260 C 
ATOM      7  C   LIG    1        0.535  -1.389   1.874  0.00  0.00    +0.590 C 
ATOM      8  O   LIG    1       -0.551  -1.918   1.727  0.00  0.00    -0.530 OA
ATOM      9  C   LIG    1        1.754   1.909   1.746  0.00  0.00    +0.270 C 
ATOM     10  O   LIG    1        0.365   3.974  -0.798  0.00  0.00    -0.510 OA
ENDROOT
BRANCH   1  14
ATOM     11  O   LIG    1        4.080   6.564   2.237  0.00  0.00    -0.520 OA
ATOM     12  C   LIG    1        3.894   5.731   1.366  0.00  0.00    +0.530 A 
ATOM     13  C   LIG    1        2.625   5.125   1.204  0.00  0.00    -0.100 A 
ATOM     14  C   LIG    1        2.471   4.185   0.206  0.00  0.00    +0.160 A 
ATOM     15  N   LIG    1        3.514   3.879  -0.583  0.00  0.00    -0.520 NA
ATOM     16  C   LIG    1        4.677   4.448  -0.426  0.00  0.00    +0.440 A 
ATOM     17  N   LIG    1        4.893   5.370   0.533  0.00  0.00    -0.620 N 
ATOM     18  H   LIG    1        5.770   5.776   0.625  0.00  0.00    +0.420 HD
BRANCH  16  19
ATOM     19  C   LIG    1        5.811   4.065  -1.342  0.00  0.00    -0.010 C 
ATOM     20  C   LIG    1        5.500   3.937  -2.835  0.00  0.00    +0.080 C 
ATOM     21  C   LIG    1        5.755   2.682  -1.995  0.00  0.00    +0.080 C 
ENDBRANCH  16  19
ENDBRANCH   1  14
BRANCH   7  22
ATOM     22  C   LIG    1        1.511  -1.960   2.819  0.00  0.00    -0.230 A 
ATOM     23  C   LIG    1        2.863  -1.778   2.819  0.00  0.00    +0.220 A 
ATOM     24  O   LIG    1        3.381  -2.466   3.841  0.00  0.00    -0.170 OA
ATOM     25  C   LIG    1        2.420  -3.110   4.521  0.00  0.00    +0.180 A 
ATOM     26  C   LIG    1        1.232  -2.851   3.955  0.00  0.00    -0.010 A 
ENDBRANCH   7  22
TORSDOF 3
