REMARK  Name = ZINCtV00001bB3hh.0
REMARK                            x       y       z     vdW  Elec       q    Type
REMARK                         _______ _______ _______ _____ _____    ______ ____
ROOT
ATOM      1  N   LIG    1       -0.044   4.118   0.163  0.00  0.00    -0.290 NA
ATOM      2  C   LIG    1       -0.011   5.416   0.265  0.00  0.00    +0.300 C 
ENDROOT
BRANCH   2   3
ATOM      3  C   LIG    1       -1.244   6.194   0.116  0.00  0.00    -0.060 A 
ATOM      4  C   LIG    1       -1.201   7.604   0.109  0.00  0.00    +0.010 A 
ATOM      5  C   LIG    1        0.018   8.292   0.231  0.00  0.00    +0.000 A 
ATOM      6  C   LIG    1        0.026   9.652   0.215  0.00  0.00    +0.040 A 
ATOM      7  C   LIG    1       -1.149  10.389   0.074  0.00  0.00    +0.020 A 
ATOM      8  C   LIG    1       -2.358   9.784  -0.053  0.00  0.00    +0.050 A 
ATOM      9  C   LIG    1       -2.436   8.375  -0.044  0.00  0.00    -0.050 A 
ATOM     10  C   LIG    1       -3.664   7.721  -0.174  0.00  0.00    +0.020 A 
ATOM     11  C   LIG    1       -3.715   6.326  -0.163  0.00  0.00    -0.050 A 
ATOM     12  C   LIG    1       -4.943   5.643  -0.294  0.00  0.00    +0.040 A 
ATOM     13  C   LIG    1       -4.959   4.284  -0.280  0.00  0.00    +0.020 A 
ATOM     14  C   LIG    1       -3.789   3.540  -0.139  0.00  0.00    +0.030 A 
ATOM     15  C   LIG    1       -2.574   4.139  -0.009  0.00  0.00    +0.030 A 
ATOM     16 CL   LIG    1       -5.124   8.643  -0.349  0.00  0.00    -0.040 Cl
ATOM     17  C   LIG    1       -2.487   5.542  -0.016  0.00  0.00    +0.010 A 
ENDBRANCH   2   3
BRANCH   1  18
ATOM     18  N   LIG    1        1.134   3.374   0.306  0.00  0.00    -0.540 N 
ATOM     19  H   LIG    1        1.975   3.826   0.480  0.00  0.00    +0.420 HD
BRANCH  18  20
ATOM     20  C   LIG    1        1.100   2.031   0.201  0.00  0.00    +0.580 C 
ATOM     21  S   LIG    1        2.541   1.122   0.374  0.00  0.00    -0.590 S 
BRANCH  20  22
ATOM     22  N   LIG    1       -0.068   1.403  -0.041  0.00  0.00    -0.610 N 
ATOM     23  H   LIG    1       -0.870   1.921  -0.211  0.00  0.00    +0.410 HD
BRANCH  22  29
ATOM     24  C   LIG    1       -2.283  -2.758   1.351  0.00  0.00    +0.090 C 
ATOM     25  C   LIG    1       -1.185  -2.038   0.613  0.00  0.00    -0.090 A 
ATOM     26  C   LIG    1       -0.227  -2.759  -0.076  0.00  0.00    +0.030 A 
ATOM     27  C   LIG    1        0.783  -2.101  -0.754  0.00  0.00    +0.010 A 
ATOM     28  C   LIG    1        0.835  -0.721  -0.749  0.00  0.00    +0.080 A 
ATOM     29  C   LIG    1       -0.121   0.006  -0.053  0.00  0.00    +0.110 A 
ATOM     30  C   LIG    1       -1.134  -0.657   0.627  0.00  0.00    -0.080 A 
ATOM     31  C   LIG    1       -2.178   0.128   1.379  0.00  0.00    +0.090 C 
ENDBRANCH  22  29
ENDBRANCH  20  22
ENDBRANCH  18  20
ENDBRANCH   1  18
TORSDOF 5
