REMARK  Name = ZINCAx0000000a0B.0
REMARK                            x       y       z     vdW  Elec       q    Type
REMARK                         _______ _______ _______ _____ _____    ______ ____
ROOT
ATOM      1  N   LIG    1        2.314   0.314  -4.191  0.00  0.00    -0.480 N 
ATOM      2  C   LIG    1        2.159   1.658  -4.180  0.00  0.00    +0.550 A 
ATOM      3  C   LIG    1        2.777   2.423  -5.271  0.00  0.00    -0.200 A 
ATOM      4  C   LIG    1        2.675   3.811  -5.344  0.00  0.00    +0.100 A 
ATOM      5  C   LIG    1        3.268   4.481  -6.391  0.00  0.00    +0.000 A 
ATOM      6  C   LIG    1        3.965   3.787  -7.372  0.00  0.00    +0.070 A 
ATOM      7  C   LIG    1        4.078   2.416  -7.319  0.00  0.00    +0.030 A 
ATOM      8  C   LIG    1        3.485   1.712  -6.267  0.00  0.00    +0.160 A 
ATOM      9  N   LIG    1        3.573   0.364  -6.179  0.00  0.00    -0.530 NA
ATOM     10  O   LIG    1        1.532   2.213  -3.296  0.00  0.00    -0.490 OA
ATOM     11  C   LIG    1        3.016  -0.296  -5.193  0.00  0.00    +0.360 A 
ENDROOT
BRANCH   1  15
ATOM     12  C   LIG    1        0.622  -1.995  -1.153  0.00  0.00    +0.120 A 
ATOM     13  C   LIG    1        0.164  -2.117  -2.454  0.00  0.00    -0.010 A 
ATOM     14  C   LIG    1        0.725  -1.353  -3.461  0.00  0.00    +0.050 A 
ATOM     15  C   LIG    1        1.747  -0.461  -3.169  0.00  0.00    +0.090 A 
ATOM     16  C   LIG    1        2.204  -0.331  -1.864  0.00  0.00    +0.000 A 
ATOM     17  C   LIG    1        1.647  -1.101  -0.857  0.00  0.00    +0.110 A 
BRANCH  12  19
ATOM     18  C   LIG    1       -0.977  -3.645  -0.539  0.00  0.00    +0.240 C 
ATOM     19  O   LIG    1        0.070  -2.748  -0.164  0.00  0.00    -0.300 OA
ENDBRANCH  12  19
BRANCH  17  20
ATOM     20  O   LIG    1        2.097  -0.979   0.421  0.00  0.00    -0.300 OA
ATOM     21  C   LIG    1        3.151  -0.042   0.651  0.00  0.00    +0.250 C 
ENDBRANCH  17  20
ENDBRANCH   1  15
BRANCH  11  22
ATOM     22  S   LIG    1        3.180  -2.050  -5.158  0.00  0.00    +0.100 S 
BRANCH  22  23
ATOM     23  C   LIG    1        4.160  -2.304  -6.659  0.00  0.00    +0.120 C 
BRANCH  23  24
ATOM     24  C   LIG    1        4.431  -3.776  -6.839  0.00  0.00    +0.530 C 
ATOM     25  N   LIG    1        5.148  -4.204  -7.896  0.00  0.00    -0.670 N 
ATOM     26  H   LIG    1        5.558  -3.562  -8.496  0.00  0.00    +0.420 HD
ATOM     27  O   LIG    1        4.003  -4.574  -6.032  0.00  0.00    -0.490 OA
BRANCH  25  28
ATOM     28  C   LIG    1        5.302  -5.576  -8.127  0.00  0.00    +0.130 A 
ATOM     29  C   LIG    1        6.486  -6.062  -8.664  0.00  0.00    +0.060 A 
ATOM     30  C   LIG    1        6.637  -7.418  -8.886  0.00  0.00    +0.020 A 
ATOM     31  C   LIG    1        5.606  -8.288  -8.585  0.00  0.00    +0.120 A 
ATOM     32  C   LIG    1        4.423  -7.806  -8.055  0.00  0.00    -0.660 A 
ATOM     33  C   LIG    1        4.268  -6.453  -7.825  0.00  0.00    +0.130 A 
BRANCH  32  34
ATOM     34  S   LIG    1        3.111  -8.919  -7.673  0.00  0.00    +2.700 S 
ATOM     35  O   LIG    1        2.314  -8.276  -6.687  0.00  0.00    -0.950 OA
ATOM     36  O   LIG    1        3.710 -10.193  -7.479  0.00  0.00    -0.960 OA
BRANCH  34  37
ATOM     37  N   LIG    1        2.167  -9.047  -9.027  0.00  0.00    -1.250 NA
ATOM     38  H   LIG    1        1.384  -9.620  -9.020  0.00  0.00    +0.420 HD
ATOM     39  H   LIG    1        2.397  -8.549  -9.827  0.00  0.00    +0.420 HD
ENDBRANCH  34  37
ENDBRANCH  32  34
ENDBRANCH  25  28
ENDBRANCH  23  24
ENDBRANCH  22  23
ENDBRANCH  11  22
TORSDOF 9
