REMARK  Name = ZINCtV000002O6nu.0
REMARK                            x       y       z     vdW  Elec       q    Type
REMARK                         _______ _______ _______ _____ _____    ______ ____
ROOT
ATOM      1  O   LIG    1       -3.604   1.924  -0.056  0.00  0.00    -0.560 OA
ATOM      2  C   LIG    1       -3.614   3.140  -0.049  0.00  0.00    +0.710 C 
ATOM      3  N   LIG    1       -4.784   3.805  -0.136  0.00  0.00    -0.740 N 
ATOM      4  H   LIG    1       -4.792   4.775  -0.130  0.00  0.00    +0.400 HD
ATOM      5  N   LIG    1       -2.456   3.823   0.046  0.00  0.00    -0.690 N 
ATOM      6  H   LIG    1       -2.469   4.790   0.130  0.00  0.00    +0.410 HD
ENDROOT
BRANCH   5   7
ATOM      7  C   LIG    1       -1.236   3.138   0.024  0.00  0.00    +0.160 A 
ATOM      8  C   LIG    1       -0.160   3.610   0.764  0.00  0.00    -0.020 A 
ATOM      9  C   LIG    1        1.045   2.935   0.736  0.00  0.00    +0.020 A 
ATOM     10  C   LIG    1        1.177   1.784  -0.019  0.00  0.00    -0.090 A 
ATOM     11  C   LIG    1        0.105   1.309  -0.754  0.00  0.00    +0.030 A 
ATOM     12  C   LIG    1       -1.100   1.983  -0.734  0.00  0.00    +0.010 A 
BRANCH  10  13
ATOM     13  C   LIG    1        2.490   1.047  -0.043  0.00  0.00    +0.040 C 
ATOM     14  C   LIG    1        3.019   0.993  -1.478  0.00  0.00    +0.010 C 
ATOM     15  C   LIG    1        4.353   0.244  -1.502  0.00  0.00    +0.000 C 
ATOM     16  C   LIG    1        4.149  -1.179  -0.980  0.00  0.00    +0.000 C 
ATOM     17  C   LIG    1        3.620  -1.125   0.455  0.00  0.00    +0.000 C 
ATOM     18  C   LIG    1        2.286  -0.377   0.479  0.00  0.00    +0.010 C 
ENDBRANCH  10  13
ENDBRANCH   5   7
BRANCH   3  19
ATOM     19  C   LIG    1       -6.042   3.062  -0.239  0.00  0.00    +0.370 C 
BRANCH  19  20
ATOM     20  C   LIG    1       -7.172   3.914   0.281  0.00  0.00    -0.140 A 
ATOM     21  C   LIG    1       -8.183   3.349   1.044  0.00  0.00    +0.080 A 
ATOM     22  C   LIG    1       -9.198   4.172   1.506  0.00  0.00    -0.030 A 
ATOM     23  C   LIG    1       -9.176   5.516   1.183  0.00  0.00    +0.260 A 
ATOM     24  N   LIG    1       -8.201   6.017   0.451  0.00  0.00    -0.480 NA
ATOM     25  C   LIG    1       -7.216   5.266  -0.001  0.00  0.00    +0.260 A 
ENDBRANCH  19  20
BRANCH  19  26
ATOM     26  C   LIG    1       -6.301   2.710  -1.681  0.00  0.00    -0.100 A 
ATOM     27  C   LIG    1       -6.028   3.629  -2.676  0.00  0.00    +0.020 A 
ATOM     28  C   LIG    1       -6.261   3.305  -4.000  0.00  0.00    +0.000 A 
ATOM     29  C   LIG    1       -6.777   2.064  -4.327  0.00  0.00    +0.000 A 
ATOM     30  C   LIG    1       -7.055   1.147  -3.331  0.00  0.00    +0.000 A 
ATOM     31  C   LIG    1       -6.817   1.470  -2.008  0.00  0.00    +0.020 A 
ENDBRANCH  19  26
ENDBRANCH   3  19
TORSDOF 5
