REMARK  Name = ZINCrg000000tJE3.0
REMARK                            x       y       z     vdW  Elec       q    Type
REMARK                         _______ _______ _______ _____ _____    ______ ____
ROOT
ATOM      1  S   LIG    1       -3.067   4.138   0.066  0.00  0.00    +2.700 S 
ATOM      2  O   LIG    1       -2.935   5.438   0.626  0.00  0.00    -0.950 OA
ATOM      3  O   LIG    1       -3.929   3.144   0.603  0.00  0.00    -0.950 OA
ENDROOT
BRANCH   1   4
ATOM      4  C   LIG    1       -1.450   3.438   0.046  0.00  0.00    -0.700 A 
ATOM      5  C   LIG    1       -0.336   4.257   0.049  0.00  0.00    +0.160 A 
ATOM      6  C   LIG    1        0.917   3.695   0.029  0.00  0.00    -0.040 A 
ATOM      7  C   LIG    1        1.096   2.301   0.004  0.00  0.00    +0.240 A 
ATOM      8  N   LIG    1        2.408   1.888  -0.032  0.00  0.00    -0.650 N 
ATOM      9  H   LIG    1        3.018   2.632  -0.154  0.00  0.00    +0.400 HD
ATOM     10  C   LIG    1        3.039   0.751   0.055  0.00  0.00    +0.530 C 
ATOM     11  C   LIG    1        2.442  -0.610   0.055  0.00  0.00    +0.080 C 
ATOM     12  C   LIG    1        1.115  -0.643   0.773  0.00  0.00    +0.040 C 
ATOM     13  C   LIG    1        0.002  -0.004   0.002  0.00  0.00    +0.090 C 
ATOM     14  O   LIG    1        4.247   0.811   0.146  0.00  0.00    -0.530 OA
ATOM     15  C   LIG    1       -0.018   1.490   0.010  0.00  0.00    -0.140 A 
ATOM     16  C   LIG    1       -1.286   2.072   0.032  0.00  0.00    +0.160 A 
ENDBRANCH   1   4
BRANCH   1  21
ATOM     17  C   LIG    1       -4.536   6.166  -2.796  0.00  0.00    -0.030 C 
ATOM     18  C   LIG    1       -5.193   5.097  -3.673  0.00  0.00    +0.020 C 
ATOM     19  C   LIG    1       -5.529   3.872  -2.820  0.00  0.00    +0.040 C 
ATOM     20  C   LIG    1       -4.238   3.291  -2.235  0.00  0.00    +0.290 C 
ATOM     21  N   LIG    1       -3.528   4.354  -1.510  0.00  0.00    -1.000 NA
ATOM     22  C   LIG    1       -3.239   5.614  -2.209  0.00  0.00    +0.310 C 
BRANCH  17  23
ATOM     23  C   LIG    1       -4.230   7.403  -3.643  0.00  0.00    +0.250 C 
BRANCH  23  24
ATOM     24  N   LIG    1       -5.488   8.002  -4.109  0.00  0.00    -0.490 N 
ATOM     25  H   LIG    1       -6.048   8.269  -3.313  0.00  0.00    +0.430 HD
ATOM     26  H   LIG    1       -5.994   7.330  -4.666  0.00  0.00    +0.430 HD
BRANCH  24  27
ATOM     27  C   LIG    1       -5.193   9.189  -4.922  0.00  0.00    +0.180 C 
BRANCH  27  29
ATOM     28  O   LIG    1       -7.550   9.298  -5.091  0.00  0.00    -0.680 OA
ATOM     29  C   LIG    1       -6.484   9.803  -5.399  0.00  0.00    +0.480 C 
ATOM     30  O   LIG    1       -6.462  10.805  -6.094  0.00  0.00    -0.640 OA
ENDBRANCH  27  29
ENDBRANCH  24  27
ENDBRANCH  23  24
ENDBRANCH  17  23
ENDBRANCH   1  21
TORSDOF 6
