REMARK  Name = ZINCrD00000743a1.0
REMARK                            x       y       z     vdW  Elec       q    Type
REMARK                         _______ _______ _______ _____ _____    ______ ____
ROOT
ATOM      1  N   LIG    1       -0.105  10.097   2.951  0.00  0.00    -0.730 N 
ATOM      2  H   LIG    1        0.180   9.528   3.683  0.00  0.00    +0.400 HD
ATOM      3  C   LIG    1        0.082   9.700   1.676  0.00  0.00    +0.710 C 
ATOM      4  N   LIG    1        0.665   8.512   1.419  0.00  0.00    -0.740 N 
ATOM      5  H   LIG    1        0.951   7.943   2.151  0.00  0.00    +0.400 HD
ATOM      6  O   LIG    1       -0.275  10.413   0.759  0.00  0.00    -0.580 OA
ENDROOT
BRANCH   1  17
ATOM      7  C   LIG    1       -2.844  11.118   4.611  0.00  0.00    +0.080 C 
ATOM      8  C   LIG    1       -1.343  11.409   4.655  0.00  0.00    +0.170 C 
ATOM      9  O   LIG    1       -1.098  12.760   5.083  0.00  0.00    -0.290 OA
ATOM     10  C   LIG    1        0.006  13.240   4.447  0.00  0.00    +0.140 A 
ATOM     11  C   LIG    1        0.820  14.324   4.765  0.00  0.00    -0.040 A 
ATOM     12  C   LIG    1        1.892  14.649   3.957  0.00  0.00    +0.140 A 
ATOM     13  C   LIG    1        2.166  13.901   2.825  0.00  0.00    -0.040 A 
ATOM     14  C   LIG    1        1.363  12.821   2.505  0.00  0.00    +0.120 A 
ATOM     15  F   LIG    1        2.676  15.703   4.273  0.00  0.00    -0.130 F 
ATOM     16  C   LIG    1        0.296  12.493   3.311  0.00  0.00    -0.200 A 
ATOM     17  C   LIG    1       -0.739  11.387   3.231  0.00  0.00    +0.310 C 
ENDBRANCH   1  17
BRANCH   4  18
ATOM     18  C   LIG    1        0.869   8.081   0.034  0.00  0.00    +0.340 C 
BRANCH  18  19
ATOM     19  C   LIG    1        1.534   6.729   0.021  0.00  0.00    -0.080 A 
ATOM     20  C   LIG    1        2.914   6.639   0.008  0.00  0.00    +0.020 A 
ATOM     21  C   LIG    1        3.528   5.400  -0.003  0.00  0.00    +0.050 A 
ATOM     22  C   LIG    1        2.765   4.249   0.003  0.00  0.00    +0.010 A 
ATOM     23  C   LIG    1        1.380   4.337   0.011  0.00  0.00    +0.130 A 
ATOM     24  C   LIG    1        0.766   5.582   0.022  0.00  0.00    +0.020 A 
BRANCH  23  25
ATOM     25  N   LIG    1        0.602   3.170   0.013  0.00  0.00    -0.410 N 
ATOM     26  C   LIG    1        1.067   1.880   0.002  0.00  0.00    +0.130 A 
ATOM     27  C   LIG    1       -0.013   1.076   0.008  0.00  0.00    +0.160 A 
ATOM     28  N   LIG    1       -1.110   1.847   0.017  0.00  0.00    -0.480 NA
ATOM     29  C   LIG    1       -0.755   3.103   0.025  0.00  0.00    +0.400 A 
ENDBRANCH  23  25
ENDBRANCH  18  19
ENDBRANCH   4  18
TORSDOF 4
