REMARK  Name = ZINCrg000000ol3T.0
REMARK                            x       y       z     vdW  Elec       q    Type
REMARK                         _______ _______ _______ _____ _____    ______ ____
ROOT
ATOM      1  C   LIG    1       -0.089  -0.124  -0.398  0.00  0.00    +0.570 C 
ATOM      2  N   LIG    1        0.112   1.201  -0.546  0.00  0.00    -0.610 N 
ATOM      3  C   LIG    1       -1.028   2.123  -0.649  0.00  0.00    +0.280 C 
ATOM      4  C   LIG    1       -0.878   3.202   0.437  0.00  0.00    +0.290 C 
ATOM      5  N   LIG    1        0.484   3.749   0.369  0.00  0.00    -0.610 N 
ATOM      6  C   LIG    1        1.623   2.826   0.467  0.00  0.00    +0.270 C 
ATOM      7  C   LIG    1        0.685   5.074   0.221  0.00  0.00    +0.530 C 
ATOM      8  O   LIG    1       -0.260   5.834   0.223  0.00  0.00    -0.510 OA
ATOM      9  C   LIG    1        1.474   1.748  -0.614  0.00  0.00    +0.290 C 
ATOM     10  O   LIG    1        0.859  -0.886  -0.395  0.00  0.00    -0.520 OA
ENDROOT
BRANCH   1  16
ATOM     11  C   LIG    1       -1.782  -1.448   0.867  0.00  0.00    +0.180 A 
ATOM     12  C   LIG    1       -3.073  -1.936   1.007  0.00  0.00    -0.070 A 
ATOM     13  C   LIG    1       -4.033  -1.635   0.062  0.00  0.00    +0.070 A 
ATOM     14  C   LIG    1       -3.717  -0.846  -1.032  0.00  0.00    -0.030 A 
ATOM     15  C   LIG    1       -2.441  -0.347  -1.184  0.00  0.00    +0.090 A 
ATOM     16  C   LIG    1       -1.458  -0.649  -0.238  0.00  0.00    -0.170 A 
BRANCH  11  17
ATOM     17  O   LIG    1       -0.838  -1.743   1.795  0.00  0.00    -0.300 OA
BRANCH  17  19
ATOM     18  C   LIG    1       -0.051  -2.786   3.828  0.00  0.00    +0.070 C 
ATOM     19  C   LIG    1       -1.242  -2.563   2.893  0.00  0.00    +0.180 C 
ENDBRANCH  17  19
ENDBRANCH  11  17
ENDBRANCH   1  16
BRANCH   7  20
ATOM     20  C   LIG    1        2.083   5.610   0.053  0.00  0.00    +0.170 C 
ATOM     21  C   LIG    1        2.815   5.561   1.397  0.00  0.00    +0.170 C 
ATOM     22  N   LIG    1        4.150   6.155   1.244  0.00  0.00    -0.530 NA
ATOM     23  C   LIG    1        4.051   7.545   0.774  0.00  0.00    +0.150 C 
ATOM     24  C   LIG    1        3.307   7.574  -0.563  0.00  0.00    +0.230 C 
ATOM     25  O   LIG    1        2.024   6.964  -0.403  0.00  0.00    -0.360 OA
BRANCH  22  26
ATOM     26  C   LIG    1        4.909   6.077   2.499  0.00  0.00    +0.170 C 
ATOM     27  C   LIG    1        6.364   6.471   2.241  0.00  0.00    +0.040 C 
ENDBRANCH  22  26
ENDBRANCH   7  20
TORSDOF 5
