REMARK  Name = ZINCqH0000033yrN.0
REMARK                            x       y       z     vdW  Elec       q    Type
REMARK                         _______ _______ _______ _____ _____    ______ ____
ROOT
ATOM      1  N   LIG    1        1.146   3.494   0.016  0.00  0.00    -0.740 N 
ATOM      2  H   LIG    1        1.976   3.995   0.011  0.00  0.00    +0.400 HD
ENDROOT
BRANCH   1   3
ATOM      3  C   LIG    1        1.173   2.097   0.002  0.00  0.00    +0.210 A 
ATOM      4  C   LIG    1       -0.017   1.379   0.010  0.00  0.00    -0.040 A 
ATOM      5  C   LIG    1        0.002  -0.004   0.002  0.00  0.00    +0.060 A 
ATOM      6  C   LIG    1        1.204  -0.679  -0.018  0.00  0.00    -0.110 A 
ATOM      7  C   LIG    1        1.239  -2.185  -0.008  0.00  0.00    +0.080 C 
ATOM      8  C   LIG    1        2.441  -2.688  -0.802  0.00  0.00    +0.270 C 
ATOM      9  N   LIG    1        3.669  -2.024  -0.370  0.00  0.00    -0.620 N 
ATOM     10  C   LIG    1        3.682  -0.708  -0.082  0.00  0.00    +0.560 C 
ATOM     11  O   LIG    1        4.732  -0.138   0.138  0.00  0.00    -0.530 OA
ATOM     12  C   LIG    1        4.904  -2.801  -0.248  0.00  0.00    +0.290 C 
ATOM     13  C   LIG    1        2.405   0.035  -0.035  0.00  0.00    -0.090 A 
ATOM     14  C   LIG    1        2.388   1.427  -0.019  0.00  0.00    +0.000 A 
ENDBRANCH   1   3
BRANCH   1  15
ATOM     15  C   LIG    1       -0.137   4.201   0.039  0.00  0.00    +0.320 C 
BRANCH  15  19
ATOM     16  C   LIG    1        0.563   8.421   0.073  0.00  0.00    -0.110 A 
ATOM     17  C   LIG    1        0.463   7.716   1.275  0.00  0.00    +0.100 A 
ATOM     18  C   LIG    1        0.231   6.357   1.256  0.00  0.00    +0.030 A 
ATOM     19  C   LIG    1        0.110   5.688   0.050  0.00  0.00    -0.060 A 
ATOM     20  C   LIG    1        0.208   6.379  -1.144  0.00  0.00    +0.050 A 
ATOM     21  C   LIG    1        0.434   7.741  -1.141  0.00  0.00    +0.020 A 
ATOM     22 CL   LIG    1        0.557   8.607  -2.641  0.00  0.00    -0.020 Cl
BRANCH  16  23
ATOM     23  C   LIG    1        0.805   9.877   0.086  0.00  0.00    +0.500 C 
ATOM     24  O   LIG    1        0.891  10.488  -0.961  0.00  0.00    -0.480 OA
BRANCH  23  25
ATOM     25  O   LIG    1        0.929  10.530   1.258  0.00  0.00    -0.350 OA
BRANCH  25  27
ATOM     26  C   LIG    1        1.278  12.523   2.613  0.00  0.00    +0.070 C 
ATOM     27  C   LIG    1        1.165  11.961   1.195  0.00  0.00    +0.200 C 
ENDBRANCH  25  27
ENDBRANCH  23  25
ENDBRANCH  16  23
ENDBRANCH  15  19
ENDBRANCH   1  15
TORSDOF 6
