REMARK  Name = ZINCrD000000fwvk.0
REMARK                            x       y       z     vdW  Elec       q    Type
REMARK                         _______ _______ _______ _____ _____    ______ ____
ROOT
ATOM      1  C   LIG    1        2.907   2.229   1.951  0.00  0.00    +0.520 C 
ATOM      2  N   LIG    1        2.268   1.444   1.061  0.00  0.00    -0.610 N 
ATOM      3  C   LIG    1        1.448   2.035  -0.005  0.00  0.00    +0.280 C 
ATOM      4  C   LIG    1        0.049   1.413   0.047  0.00  0.00    +0.040 C 
ATOM      5  C   LIG    1        0.169  -0.111  -0.024  0.00  0.00    +0.080 C 
ATOM      6  C   LIG    1        0.969  -0.618   1.178  0.00  0.00    +0.040 C 
ATOM      7  C   LIG    1        2.378  -0.019   1.139  0.00  0.00    +0.280 C 
ATOM      8  O   LIG    1        3.581   1.729   2.826  0.00  0.00    -0.530 OA
ENDROOT
BRANCH   5   9
ATOM      9  C   LIG    1       -1.207  -0.725  -0.008  0.00  0.00    +0.330 A 
ATOM     10  N   LIG    1       -1.994  -0.505   1.026  0.00  0.00    -0.510 NA
ATOM     11  C   LIG    1       -3.210  -1.025   1.082  0.00  0.00    +0.330 A 
ATOM     12  C   LIG    1       -3.657  -1.811   0.035  0.00  0.00    -0.070 A 
ATOM     13  C   LIG    1       -2.797  -2.025  -1.046  0.00  0.00    +0.220 A 
ATOM     14  N   LIG    1       -1.590  -1.462  -1.029  0.00  0.00    -0.510 NA
BRANCH  13  15
ATOM     15  C   LIG    1       -3.224  -2.859  -2.195  0.00  0.00    -0.030 A 
ATOM     16  C   LIG    1       -4.526  -3.353  -2.255  0.00  0.00    +0.040 A 
ATOM     17  C   LIG    1       -4.920  -4.129  -3.327  0.00  0.00    +0.050 A 
ATOM     18  C   LIG    1       -4.025  -4.418  -4.341  0.00  0.00    +0.010 A 
ATOM     19  C   LIG    1       -2.729  -3.929  -4.288  0.00  0.00    +0.100 A 
ATOM     20  F   LIG    1       -1.860  -4.214  -5.282  0.00  0.00    -0.130 F 
ATOM     21  C   LIG    1       -2.327  -3.148  -3.222  0.00  0.00    +0.040 A 
ENDBRANCH  13  15
ENDBRANCH   5   9
BRANCH   1  22
ATOM     22  C   LIG    1        2.784   3.728   1.858  0.00  0.00    +0.030 C 
BRANCH  22  23
ATOM     23  C   LIG    1        3.488   4.373   3.053  0.00  0.00    +0.180 C 
ATOM     24  C   LIG    1        3.362   5.895   2.960  0.00  0.00    +0.070 C 
BRANCH  23  26
ATOM     25  C   LIG    1        5.455   3.336   4.061  0.00  0.00    +0.040 C 
ATOM     26  C   LIG    1        4.945   3.988   3.046  0.00  0.00    -0.080 C 
ENDBRANCH  23  26
BRANCH  23  27
ATOM     27  O   LIG    1        2.881   3.919   4.265  0.00  0.00    -0.560 OA
ATOM     28  H   LIG    1        2.924   2.961   4.391  0.00  0.00    +0.380 HD
ENDBRANCH  23  27
ENDBRANCH  22  23
ENDBRANCH   1  22
TORSDOF 6
