REMARK  Name = ZINCqH0000037MJu.0
REMARK                            x       y       z     vdW  Elec       q    Type
REMARK                         _______ _______ _______ _____ _____    ______ ____
ROOT
ATOM      1  C   LIG    1        0.771  -3.248   0.309  0.00  0.00    +0.520 C 
ENDROOT
BRANCH   1  10
ATOM      2  C   LIG    1        3.055  -4.543  -1.213  0.00  0.00    +0.170 C 
ATOM      3  C   LIG    1        3.670  -3.178  -1.045  0.00  0.00    +0.220 A 
ATOM      4  C   LIG    1        4.908  -2.913  -1.545  0.00  0.00    -0.050 A 
ATOM      5  C   LIG    1        5.454  -1.638  -1.373  0.00  0.00    +0.260 A 
ATOM      6  N   LIG    1        4.774  -0.707  -0.735  0.00  0.00    -0.460 NA
ATOM      7  C   LIG    1        3.559  -0.963  -0.244  0.00  0.00    +0.530 A 
ATOM      8  N   LIG    1        2.691  -0.202   0.425  0.00  0.00    -0.500 NA
ATOM      9  C   LIG    1        1.596  -0.906   0.708  0.00  0.00    +0.490 A 
ATOM     10  N   LIG    1        1.741  -2.154   0.218  0.00  0.00    -0.370 N 
ATOM     11  S   LIG    1        0.228  -0.322   1.555  0.00  0.00    -0.540 S 
ATOM     12  C   LIG    1        6.824  -1.327  -1.920  0.00  0.00    +0.180 C 
ATOM     13  N   LIG    1        3.000  -2.201  -0.397  0.00  0.00    -0.310 N 
ENDBRANCH   1  10
BRANCH   1  14
ATOM     14  N   LIG    1        0.113  -3.429  -0.992  0.00  0.00    -0.560 NA
ATOM     15  C   LIG    1       -0.953  -2.438  -1.186  0.00  0.00    +0.180 C 
ATOM     16  C   LIG    1       -1.516  -2.562  -2.603  0.00  0.00    +0.040 C 
ATOM     17  C   LIG    1       -2.066  -3.977  -2.807  0.00  0.00    -0.010 C 
ATOM     18  C   LIG    1       -0.948  -4.992  -2.552  0.00  0.00    +0.040 C 
ATOM     19  C   LIG    1       -0.401  -4.797  -1.136  0.00  0.00    +0.190 C 
BRANCH  17  20
ATOM     20  C   LIG    1       -2.575  -4.126  -4.242  0.00  0.00    +0.070 C 
BRANCH  20  21
ATOM     21  C   LIG    1       -3.755  -3.213  -4.454  0.00  0.00    -0.080 A 
ATOM     22  C   LIG    1       -5.035  -3.670  -4.203  0.00  0.00    +0.000 A 
ATOM     23  C   LIG    1       -6.118  -2.831  -4.393  0.00  0.00    +0.000 A 
ATOM     24  C   LIG    1       -5.920  -1.539  -4.843  0.00  0.00    +0.000 A 
ATOM     25  C   LIG    1       -4.640  -1.084  -5.098  0.00  0.00    +0.000 A 
ATOM     26  C   LIG    1       -3.557  -1.921  -4.904  0.00  0.00    +0.000 A 
ENDBRANCH  20  21
ENDBRANCH  17  20
ENDBRANCH   1  14
TORSDOF 4
