REMARK  Name = ZINCrD00000F5LqR.0
REMARK                            x       y       z     vdW  Elec       q    Type
REMARK                         _______ _______ _______ _____ _____    ______ ____
ROOT
ATOM      1  C   LIG    1       -4.158  -0.036  -4.576  0.00  0.00    +0.250 C 
ATOM      2  C   LIG    1       -4.064   1.488  -4.529  0.00  0.00    +0.280 C 
ATOM      3  N   LIG    1       -3.745   1.906  -3.158  0.00  0.00    -0.600 N 
ATOM      4  C   LIG    1       -2.575   1.315  -2.493  0.00  0.00    +0.270 C 
ATOM      5  C   LIG    1       -2.689  -0.211  -2.560  0.00  0.00    +0.020 C 
ATOM      6  C   LIG    1       -4.513   2.811  -2.519  0.00  0.00    +0.530 C 
ATOM      7  O   LIG    1       -5.519   3.233  -3.048  0.00  0.00    -0.510 OA
ATOM      8  C   LIG    1       -2.868  -0.641  -4.018  0.00  0.00    -0.020 C 
ATOM      9  C   LIG    1       -2.947  -2.167  -4.093  0.00  0.00    +0.020 C 
ENDROOT
BRANCH   6  10
ATOM     10  C   LIG    1       -4.122   3.298  -1.147  0.00  0.00    +0.140 C 
ATOM     11  C   LIG    1       -5.263   4.147  -0.548  0.00  0.00    +0.060 C 
ATOM     12  C   LIG    1       -5.988   3.125   0.370  0.00  0.00    +0.020 C 
ATOM     13  C   LIG    1       -4.793   2.265   0.854  0.00  0.00    +0.200 C 
ATOM     14  O   LIG    1       -3.909   2.181  -0.276  0.00  0.00    -0.360 OA
BRANCH  10  15
ATOM     15  C   LIG    1       -2.864   4.122  -1.238  0.00  0.00    -0.070 A 
ATOM     16  C   LIG    1       -1.726   3.724  -0.561  0.00  0.00    +0.050 A 
ATOM     17  C   LIG    1       -0.570   4.478  -0.648  0.00  0.00    +0.030 A 
ATOM     18  C   LIG    1       -0.553   5.633  -1.407  0.00  0.00    +0.020 A 
ATOM     19  C   LIG    1       -1.692   6.035  -2.080  0.00  0.00    +0.050 A 
ATOM     20  C   LIG    1       -2.849   5.281  -1.993  0.00  0.00    -0.090 A 
ATOM     21 BR   LIG    1       -4.407   5.831  -2.913  0.00  0.00    -0.030 Br
ENDBRANCH  10  15
ENDBRANCH   6  10
BRANCH   1  23
ATOM     22  C   LIG    1       -6.085  -1.479  -4.201  0.00  0.00    +0.540 C 
ATOM     23  N   LIG    1       -5.296  -0.477  -3.765  0.00  0.00    -0.600 N 
ATOM     24  C   LIG    1       -5.575   0.170  -2.481  0.00  0.00    +0.280 C 
ATOM     25  O   LIG    1       -5.799  -2.080  -5.219  0.00  0.00    -0.540 OA
BRANCH  22  27
ATOM     26  C   LIG    1       -8.013  -2.901  -3.814  0.00  0.00    +0.140 C 
ATOM     27  C   LIG    1       -7.292  -1.846  -3.445  0.00  0.00    -0.090 C 
ENDBRANCH  22  27
ENDBRANCH   1  23
TORSDOF 4
