REMARK  Name = ZINCqH0000050GPd.0
REMARK                            x       y       z     vdW  Elec       q    Type
REMARK                         _______ _______ _______ _____ _____    ______ ____
ROOT
ATOM      1  N   LIG    1        1.617   3.746  -1.369  0.00  0.00    -0.560 N 
ATOM      2  C   LIG    1        2.772   3.911  -2.045  0.00  0.00    +0.550 C 
ATOM      3  O   LIG    1        2.805   4.628  -3.022  0.00  0.00    -0.510 OA
ENDROOT
BRANCH   1   9
ATOM      4  C   LIG    1       -2.058   7.015  -0.984  0.00  0.00    +0.110 C 
ATOM      5  C   LIG    1       -1.352   5.886  -1.690  0.00  0.00    -0.130 A 
ATOM      6  C   LIG    1       -1.864   5.368  -2.865  0.00  0.00    +0.260 A 
ATOM      7  N   LIG    1       -1.254   4.380  -3.492  0.00  0.00    -0.470 NA
ATOM      8  C   LIG    1       -0.140   3.848  -3.031  0.00  0.00    +0.270 A 
ATOM      9  C   LIG    1        0.434   4.314  -1.856  0.00  0.00    +0.100 A 
ATOM     10  C   LIG    1       -0.186   5.352  -1.166  0.00  0.00    +0.060 A 
ENDBRANCH   1   9
BRANCH   2  11
ATOM     11  C   LIG    1        4.021   3.204  -1.586  0.00  0.00    -0.070 C 
ATOM     12  C   LIG    1        5.148   4.064  -1.010  0.00  0.00    +0.080 C 
ATOM     13  C   LIG    1        5.300   3.432  -2.395  0.00  0.00    +0.060 C 
BRANCH  13  14
ATOM     14  C   LIG    1        6.253   2.273  -2.530  0.00  0.00    -0.060 A 
ATOM     15  C   LIG    1        6.819   1.709  -1.402  0.00  0.00    +0.000 A 
ATOM     16  C   LIG    1        7.691   0.643  -1.526  0.00  0.00    +0.000 A 
ATOM     17  C   LIG    1        8.004   0.148  -2.778  0.00  0.00    +0.010 A 
ATOM     18  C   LIG    1        7.441   0.716  -3.906  0.00  0.00    +0.000 A 
ATOM     19  C   LIG    1        6.567   1.778  -3.782  0.00  0.00    -0.070 A 
ATOM     20  C   LIG    1        5.954   2.398  -5.012  0.00  0.00    +0.090 C 
ENDBRANCH  13  14
ENDBRANCH   2  11
BRANCH   1  21
ATOM     21  C   LIG    1        1.601   2.971  -0.126  0.00  0.00    +0.420 C 
BRANCH  21  22
ATOM     22  C   LIG    1        1.331   1.522  -0.440  0.00  0.00    +0.170 A 
ATOM     23  N   LIG    1        0.152   0.985  -0.595  0.00  0.00    -0.460 NA
ATOM     24  C   LIG    1        0.293  -0.322  -0.864  0.00  0.00    +0.150 A 
ATOM     25  C   LIG    1        1.610  -0.604  -0.877  0.00  0.00    +0.140 A 
ATOM     26  N   LIG    1        2.269   0.566  -0.607  0.00  0.00    -0.560 N 
ATOM     27  H   LIG    1        3.229   0.684  -0.548  0.00  0.00    +0.420 HD
ENDBRANCH  21  22
ENDBRANCH   1  21
TORSDOF 5
