REMARK  Name = ZINCvU0000000A8Q.0
REMARK                            x       y       z     vdW  Elec       q    Type
REMARK                         _______ _______ _______ _____ _____    ______ ____
ROOT
ATOM      1  N   LIG    1       -6.547   1.185   0.045  0.00  0.00    -0.450 N 
ATOM      2  C   LIG    1       -7.210  -0.011   0.036  0.00  0.00    +0.180 A 
ATOM      3  N   LIG    1       -6.310  -0.954   0.027  0.00  0.00    -0.250 NA
ATOM      4  N   LIG    1       -5.132  -0.439   0.025  0.00  0.00    -0.290 NA
ATOM      5  C   LIG    1       -5.218   0.872   0.032  0.00  0.00    +0.150 A 
ENDROOT
BRANCH   1   7
ATOM      6  C   LIG    1       -7.359   3.004  -1.374  0.00  0.00    +0.060 C 
ATOM      7  C   LIG    1       -7.140   2.524   0.062  0.00  0.00    +0.300 C 
ENDBRANCH   1   7
BRANCH   2   8
ATOM      8  C   LIG    1       -8.705  -0.204   0.042  0.00  0.00    +0.230 C 
BRANCH   8   9
ATOM      9  S   LIG    1       -9.295  -0.291   1.750  0.00  0.00    +0.040 S 
BRANCH   9  10
ATOM     10  C   LIG    1      -11.020  -0.512   1.467  0.00  0.00    +0.080 A 
ATOM     11  N   LIG    1      -11.574  -0.571   0.303  0.00  0.00    -0.470 NA
ATOM     12  C   LIG    1      -12.909  -0.749   0.249  0.00  0.00    +0.090 A 
ATOM     13  C   LIG    1      -13.740  -0.849  -0.886  0.00  0.00    +0.080 A 
ATOM     14  C   LIG    1      -15.094  -1.024  -0.743  0.00  0.00    +0.040 A 
ATOM     15  C   LIG    1      -15.666  -1.105   0.518  0.00  0.00    +0.040 A 
ATOM     16  C   LIG    1      -14.873  -1.010   1.641  0.00  0.00    +0.060 A 
ATOM     17  C   LIG    1      -13.498  -0.833   1.514  0.00  0.00    -0.170 A 
ATOM     18  S   LIG    1      -12.232  -0.677   2.730  0.00  0.00    +0.120 S 
ENDBRANCH   9  10
ENDBRANCH   8   9
ENDBRANCH   2   8
BRANCH   5  19
ATOM     19  S   LIG    1       -3.874   2.010   0.031  0.00  0.00    +0.090 S 
BRANCH  19  20
ATOM     20  C   LIG    1       -2.482   0.853   0.018  0.00  0.00    +0.110 C 
BRANCH  20  21
ATOM     21  C   LIG    1       -1.187   1.624   0.017  0.00  0.00    +0.540 C 
ATOM     22  N   LIG    1       -0.011   0.966   0.007  0.00  0.00    -0.720 N 
ATOM     23  H   LIG    1        0.002  -0.004   0.002  0.00  0.00    +0.400 HD
ATOM     24  O   LIG    1       -1.204   2.837   0.023  0.00  0.00    -0.520 OA
BRANCH  22  25
ATOM     25  C   LIG    1        1.248   1.716  -0.001  0.00  0.00    +0.290 C 
ATOM     26  C   LIG    1        1.608   2.092  -1.439  0.00  0.00    +0.040 C 
BRANCH  25  27
ATOM     27  C   LIG    1        2.344   0.863   0.585  0.00  0.00    -0.100 A 
ATOM     28  C   LIG    1        2.403  -0.486   0.289  0.00  0.00    +0.000 A 
ATOM     29  C   LIG    1        3.411  -1.267   0.822  0.00  0.00    +0.020 A 
ATOM     30  C   LIG    1        4.354  -0.701   1.659  0.00  0.00    +0.000 A 
ATOM     31  C   LIG    1        4.292   0.647   1.960  0.00  0.00    +0.020 A 
ATOM     32  C   LIG    1        3.287   1.429   1.423  0.00  0.00    +0.020 A 
ENDBRANCH  25  27
ENDBRANCH  22  25
ENDBRANCH  20  21
ENDBRANCH  19  20
ENDBRANCH   5  19
TORSDOF 9
