REMARK  Name = ZINCrH000004tFjK.0
REMARK                            x       y       z     vdW  Elec       q    Type
REMARK                         _______ _______ _______ _____ _____    ______ ____
ROOT
ATOM      1  N   LIG    1       -0.571  -8.824  -0.036  0.00  0.00    -0.640 NA
ATOM      2  C   LIG    1       -1.639  -9.625  -0.030  0.00  0.00    +0.480 A 
ATOM      3  C   LIG    1       -1.622 -11.029  -0.043  0.00  0.00    -0.060 A 
ATOM      4  C   LIG    1       -2.925 -11.470  -0.027  0.00  0.00    +0.220 A 
ATOM      5  N   LIG    1       -3.752 -10.374  -0.015  0.00  0.00    -0.480 N 
ATOM      6  H   LIG    1       -4.722 -10.393  -0.006  0.00  0.00    +0.450 HD
ATOM      7  N   LIG    1       -2.953  -9.223  -0.017  0.00  0.00    -0.470 N 
ATOM      8  H   LIG    1       -3.270  -8.307  -0.009  0.00  0.00    +0.460 HD
ENDROOT
BRANCH   4   9
ATOM      9  C   LIG    1       -3.360 -12.881  -0.029  0.00  0.00    -0.010 A 
ATOM     10  C   LIG    1       -4.720 -13.196  -0.018  0.00  0.00    +0.020 A 
ATOM     11  C   LIG    1       -5.120 -14.519  -0.020  0.00  0.00    +0.120 A 
ATOM     12  C   LIG    1       -4.174 -15.531  -0.033  0.00  0.00    +0.040 A 
ATOM     13  C   LIG    1       -2.824 -15.225  -0.043  0.00  0.00    -0.060 A 
ATOM     14 BR   LIG    1       -1.541 -16.614  -0.060  0.00  0.00    -0.010 Br
ATOM     15  F   LIG    1       -6.436 -14.825  -0.009  0.00  0.00    -0.120 F 
ATOM     16  C   LIG    1       -2.412 -13.907  -0.048  0.00  0.00    +0.100 A 
ENDBRANCH   4   9
BRANCH   1  18
ATOM     17  O   LIG    1       -1.847  -7.027  -0.016  0.00  0.00    -0.600 OA
ATOM     18  C   LIG    1       -0.729  -7.506  -0.029  0.00  0.00    +0.490 C 
BRANCH  18  19
ATOM     19  C   LIG    1        0.476  -6.602  -0.035  0.00  0.00    +0.090 C 
BRANCH  19  20
ATOM     20  C   LIG    1        0.019  -5.142  -0.024  0.00  0.00    +0.020 C 
BRANCH  20  21
ATOM     21  C   LIG    1        1.244  -4.224  -0.031  0.00  0.00    +0.260 C 
BRANCH  21  22
ATOM     22  N   LIG    1        0.806  -2.826  -0.020  0.00  0.00    -0.720 N 
ATOM     23  H   LIG    1       -0.140  -2.614  -0.010  0.00  0.00    +0.410 HD
ATOM     24  C   LIG    1        1.719  -1.834  -0.024  0.00  0.00    +0.600 C 
ATOM     25  O   LIG    1        2.906  -2.100  -0.036  0.00  0.00    -0.520 OA
BRANCH  24  26
ATOM     26  C   LIG    1        1.281  -0.434  -0.013  0.00  0.00    -0.080 A 
ATOM     27  C   LIG    1        2.095   0.661  -0.014  0.00  0.00    +0.040 A 
ATOM     28  C   LIG    1        1.257   1.787  -0.000  0.00  0.00    -0.060 A 
ATOM     29  C   LIG    1       -0.016   1.335   0.009  0.00  0.00    +0.210 A 
ATOM     30  O   LIG    1        0.002  -0.004   0.002  0.00  0.00    -0.170 OA
ENDBRANCH  24  26
ENDBRANCH  21  22
ENDBRANCH  20  21
ENDBRANCH  19  20
ENDBRANCH  18  19
ENDBRANCH   1  18
TORSDOF 7
