REMARK  Name = ZINCnE000007MrKi.0
REMARK                            x       y       z     vdW  Elec       q    Type
REMARK                         _______ _______ _______ _____ _____    ______ ____
ROOT
ATOM      1  C   LIG    1        0.850   2.584   0.148  0.00  0.00    +0.000 C 
ATOM      2  C   LIG    1       -0.494   1.867   0.212  0.00  0.00    +0.000 C 
ATOM      3  C   LIG    1       -0.282   0.388   0.002  0.00  0.00    +0.010 C 
ATOM      4  C   LIG    1       -0.091  -0.317   1.357  0.00  0.00    +0.270 C 
ATOM      5  N   LIG    1        0.746   0.471   2.281  0.00  0.00    -0.590 N 
ATOM      6  C   LIG    1        1.944   1.160   1.856  0.00  0.00    +0.250 C 
ATOM      7  C   LIG    1        0.379   0.554   3.576  0.00  0.00    +0.520 C 
ATOM      8  O   LIG    1       -0.666   0.059   3.942  0.00  0.00    -0.530 OA
ATOM      9  C   LIG    1        1.588   2.603   1.420  0.00  0.00    +0.020 C 
ENDROOT
BRANCH   7  10
ATOM     10  C   LIG    1        1.267   1.261   4.567  0.00  0.00    -0.010 C 
ATOM     11  C   LIG    1        2.130   0.234   5.302  0.00  0.00    +0.050 C 
ATOM     12  C   LIG    1        1.227  -0.756   6.041  0.00  0.00    +0.010 C 
ATOM     13  C   LIG    1        0.362  -0.001   7.052  0.00  0.00    +0.030 C 
ATOM     14  C   LIG    1       -0.501   1.026   6.317  0.00  0.00    +0.040 C 
ATOM     15  C   LIG    1        0.401   2.016   5.578  0.00  0.00    +0.010 C 
BRANCH  15  16
ATOM     16  C   LIG    1       -0.462   3.044   4.843  0.00  0.00    +0.440 C 
ATOM     17  F   LIG    1        0.357   3.876   4.073  0.00  0.00    -0.180 F 
ATOM     18  F   LIG    1       -1.164   3.815   5.776  0.00  0.00    -0.190 F 
ATOM     19  F   LIG    1       -1.369   2.380   4.010  0.00  0.00    -0.170 F 
ENDBRANCH  15  16
ENDBRANCH   7  10
BRANCH   1  20
ATOM     20  C   LIG    1        0.609   4.029  -0.294  0.00  0.00    -0.080 C 
BRANCH  20  22
ATOM     21  O   LIG    1        2.973   4.120  -0.282  0.00  0.00    -0.690 OA
ATOM     22  C   LIG    1        1.933   4.724  -0.483  0.00  0.00    +0.490 C 
ATOM     23  O   LIG    1        1.964   5.891  -0.836  0.00  0.00    -0.710 OA
ENDBRANCH  20  22
ENDBRANCH   1  20
TORSDOF 4
