REMARK  Name = ZINCpe000000YfV8.0
REMARK                            x       y       z     vdW  Elec       q    Type
REMARK                         _______ _______ _______ _____ _____    ______ ____
ROOT
ATOM      1  C   LIG    1       -0.014   1.212   0.009  0.00  0.00    +0.600 C 
ATOM      2  N   LIG    1       -1.211   1.826  -0.082  0.00  0.00    -0.610 N 
ATOM      3  C   LIG    1       -1.292   3.278  -0.290  0.00  0.00    +0.270 C 
ATOM      4  C   LIG    1       -2.147   3.542  -1.542  0.00  0.00    +0.300 C 
ATOM      5  N   LIG    1       -3.393   2.772  -1.429  0.00  0.00    -0.990 NA
ATOM      6  C   LIG    1       -3.312   1.320  -1.215  0.00  0.00    +0.300 C 
ATOM      7  C   LIG    1       -2.457   1.055   0.030  0.00  0.00    +0.280 C 
ATOM      8  O   LIG    1        0.044  -0.001   0.069  0.00  0.00    -0.540 OA
ENDROOT
BRANCH   1  12
ATOM      9  C   LIG    1        4.730   2.654  -0.603  0.00  0.00    +0.360 C 
ATOM     10  N   LIG    1        3.310   2.639  -0.242  0.00  0.00    -0.360 N 
ATOM     11  C   LIG    1        2.459   1.621  -0.449  0.00  0.00    +0.320 A 
ATOM     12  C   LIG    1        1.224   2.011   0.029  0.00  0.00    -0.300 A 
ATOM     13  C   LIG    1        1.371   3.317   0.548  0.00  0.00    +0.260 A 
ATOM     14  N   LIG    1        2.613   3.680   0.381  0.00  0.00    -0.290 NA
ENDBRANCH   1  12
BRANCH   5  15
ATOM     15  S   LIG    1       -4.863   3.526  -1.539  0.00  0.00    +2.690 S 
ATOM     16  O   LIG    1       -5.795   2.532  -1.944  0.00  0.00    -0.940 OA
ATOM     17  O   LIG    1       -4.644   4.727  -2.266  0.00  0.00    -0.940 OA
BRANCH  15  18
ATOM     18  C   LIG    1       -5.326   4.008   0.091  0.00  0.00    -0.730 A 
ATOM     19  C   LIG    1       -5.437   5.348   0.409  0.00  0.00    +0.210 A 
ATOM     20  C   LIG    1       -5.800   5.728   1.688  0.00  0.00    -0.020 A 
ATOM     21  C   LIG    1       -6.054   4.766   2.651  0.00  0.00    +0.190 A 
ATOM     22  C   LIG    1       -5.943   3.423   2.333  0.00  0.00    -0.050 A 
ATOM     23  F   LIG    1       -6.408   5.138   3.900  0.00  0.00    -0.120 F 
ATOM     24  C   LIG    1       -5.584   3.044   1.051  0.00  0.00    +0.230 A 
ATOM     25  F   LIG    1       -5.481   1.734   0.738  0.00  0.00    -0.110 F 
ENDBRANCH  15  18
ENDBRANCH   5  15
TORSDOF 3
