REMARK  Name = ZINCpk00000y6vEB.0
REMARK                            x       y       z     vdW  Elec       q    Type
REMARK                         _______ _______ _______ _____ _____    ______ ____
ROOT
ATOM      1  C   LIG    1        5.375   0.982  -1.503  0.00  0.00    +0.160 C 
ATOM      2  C   LIG    1        5.848   2.338  -2.059  0.00  0.00    +0.290 C 
ATOM      3  N   LIG    1        6.802   1.556  -2.873  0.00  0.00    -0.640 N 
ATOM      4  C   LIG    1        7.991   1.822  -3.448  0.00  0.00    +0.520 C 
ATOM      5  O   LIG    1        8.568   0.959  -4.075  0.00  0.00    -0.530 OA
ATOM      6  C   LIG    1        5.931   0.366  -2.800  0.00  0.00    +0.300 C 
ENDROOT
BRANCH   4   7
ATOM      7  C   LIG    1        8.604   3.192  -3.313  0.00  0.00    +0.130 C 
ATOM      8  C   LIG    1        8.040   4.112  -4.396  0.00  0.00    +0.090 C 
BRANCH   7   9
ATOM      9  O   LIG    1        8.295   3.726  -2.024  0.00  0.00    -0.540 OA
ATOM     10  H   LIG    1        8.623   3.193  -1.288  0.00  0.00    +0.380 HD
ENDBRANCH   7   9
BRANCH   7  11
ATOM     11  C   LIG    1       10.123   3.089  -3.471  0.00  0.00    +0.040 C 
BRANCH  11  12
ATOM     12  C   LIG    1       10.745   4.480  -3.333  0.00  0.00    +0.080 C 
BRANCH  12  13
ATOM     13  C   LIG    1       12.241   4.378  -3.490  0.00  0.00    -0.080 A 
ATOM     14  C   LIG    1       13.039   4.171  -2.380  0.00  0.00    +0.000 A 
ATOM     15  C   LIG    1       14.410   4.073  -2.524  0.00  0.00    +0.000 A 
ATOM     16  C   LIG    1       14.984   4.194  -3.776  0.00  0.00    +0.000 A 
ATOM     17  C   LIG    1       14.186   4.406  -4.885  0.00  0.00    +0.000 A 
ATOM     18  C   LIG    1       12.815   4.499  -4.741  0.00  0.00    +0.000 A 
ENDBRANCH  12  13
ENDBRANCH  11  12
ENDBRANCH   7  11
ENDBRANCH   4   7
BRANCH   1  19
ATOM     19  O   LIG    1        3.956   0.875  -1.378  0.00  0.00    -0.360 OA
BRANCH  19  20
ATOM     20  C   LIG    1        3.493   0.832  -0.026  0.00  0.00    +0.360 C 
BRANCH  20  25
ATOM     21  C   LIG    1       -1.200  -0.912   0.009  0.00  0.00    +0.200 C 
ATOM     22  C   LIG    1        0.002  -0.004   0.002  0.00  0.00    +0.170 A 
ATOM     23  N   LIG    1       -0.015   1.295   0.009  0.00  0.00    -0.380 NA
ATOM     24  O   LIG    1        1.117   1.731   0.001  0.00  0.00    +0.090 OA
ATOM     25  C   LIG    1        1.990   0.720  -0.013  0.00  0.00    +0.180 A 
ATOM     26  N   LIG    1        1.291  -0.389  -0.012  0.00  0.00    -0.460 NA
ENDBRANCH  20  25
ENDBRANCH  19  20
ENDBRANCH   1  19
TORSDOF 8
