REMARK  Name = ZINCvU000000040o.0
REMARK                            x       y       z     vdW  Elec       q    Type
REMARK                         _______ _______ _______ _____ _____    ______ ____
ROOT
ATOM      1  O   LIG    1       -0.075   8.389  -0.236  0.00  0.00    -0.510 OA
ATOM      2  C   LIG    1        0.535   7.545  -0.864  0.00  0.00    +0.600 C 
ATOM      3  N   LIG    1        1.236   7.896  -1.960  0.00  0.00    -0.610 N 
ATOM      4  C   LIG    1        1.820   6.871  -2.836  0.00  0.00    +0.260 C 
ATOM      5  C   LIG    1        1.348   7.131  -4.274  0.00  0.00    +0.020 C 
ATOM      6  C   LIG    1        1.699   8.568  -4.668  0.00  0.00    +0.170 C 
ATOM      7  C   LIG    1        0.974   9.545  -3.740  0.00  0.00    +0.040 C 
ATOM      8  C   LIG    1        1.436   9.312  -2.298  0.00  0.00    +0.310 C 
ENDROOT
BRANCH   2   9
ATOM      9  C   LIG    1        0.507   6.139  -0.427  0.00  0.00    -0.040 A 
ATOM     10  C   LIG    1       -0.514   5.505   0.254  0.00  0.00    +0.040 A 
ATOM     11  C   LIG    1       -0.070   4.182   0.440  0.00  0.00    +0.050 A 
ATOM     12  N   LIG    1        1.127   4.085  -0.100  0.00  0.00    -0.240 NA
ATOM     13  N   LIG    1        1.486   5.205  -0.616  0.00  0.00    -0.370 N 
ATOM     14  H   LIG    1        2.329   5.364  -1.069  0.00  0.00    +0.450 HD
BRANCH  11  15
ATOM     15  C   LIG    1       -0.814   3.096   1.125  0.00  0.00    +0.040 A 
ATOM     16  C   LIG    1       -2.078   3.342   1.658  0.00  0.00    +0.040 A 
ATOM     17  C   LIG    1       -2.765   2.328   2.294  0.00  0.00    +0.060 A 
ATOM     18  C   LIG    1       -2.202   1.070   2.403  0.00  0.00    +0.020 A 
ATOM     19  C   LIG    1       -0.950   0.819   1.871  0.00  0.00    +0.070 A 
ATOM     20  C   LIG    1       -0.252   1.826   1.238  0.00  0.00    -0.170 A 
BRANCH  20  21
ATOM     21  C   LIG    1        1.115   1.552   0.663  0.00  0.00    +0.520 C 
ATOM     22  F   LIG    1        1.098   1.793  -0.715  0.00  0.00    -0.170 F 
ATOM     23  F   LIG    1        2.053   2.393   1.272  0.00  0.00    -0.170 F 
ATOM     24  F   LIG    1        1.461   0.218   0.900  0.00  0.00    -0.180 F 
ENDBRANCH  20  21
ENDBRANCH  11  15
ENDBRANCH   2   9
BRANCH   6  25
ATOM     25  O   LIG    1        1.294   8.804  -6.018  0.00  0.00    -0.300 OA
BRANCH  25  26
ATOM     26  C   LIG    1        2.142   8.394  -6.997  0.00  0.00    +0.140 A 
ATOM     27  C   LIG    1        3.367   7.834  -6.666  0.00  0.00    -0.060 A 
ATOM     28  C   LIG    1        4.226   7.413  -7.663  0.00  0.00    +0.070 A 
ATOM     29  C   LIG    1        3.869   7.560  -8.992  0.00  0.00    -0.070 A 
ATOM     30  C   LIG    1        2.649   8.123  -9.325  0.00  0.00    +0.070 A 
ATOM     31 CL   LIG    1        4.952   7.036 -10.243  0.00  0.00    -0.070 Cl
ATOM     32  C   LIG    1        1.786   8.540  -8.330  0.00  0.00    +0.000 A 
ENDBRANCH  25  26
ENDBRANCH   6  25
TORSDOF 5
