REMARK  Name = ZINCvU000000040o.1
REMARK                            x       y       z     vdW  Elec       q    Type
REMARK                         _______ _______ _______ _____ _____    ______ ____
ROOT
ATOM      1  O   LIG    1       -3.159   2.534   1.629  0.00  0.00    -0.530 OA
ATOM      2  C   LIG    1       -3.612   3.656   1.749  0.00  0.00    +0.610 C 
ATOM      3  N   LIG    1       -4.859   3.929   1.318  0.00  0.00    -0.600 N 
ATOM      4  C   LIG    1       -5.646   2.910   0.610  0.00  0.00    +0.290 C 
ATOM      5  C   LIG    1       -6.132   3.490  -0.717  0.00  0.00    +0.010 C 
ATOM      6  C   LIG    1       -6.885   4.797  -0.455  0.00  0.00    +0.160 C 
ATOM      7  C   LIG    1       -5.942   5.808   0.200  0.00  0.00    +0.040 C 
ATOM      8  C   LIG    1       -5.456   5.253   1.543  0.00  0.00    +0.300 C 
ENDROOT
BRANCH   2   9
ATOM      9  C   LIG    1       -2.794   4.720   2.367  0.00  0.00    -0.010 A 
ATOM     10  N   LIG    1       -3.194   5.942   2.660  0.00  0.00    -0.240 NA
ATOM     11  N   LIG    1       -2.235   6.614   3.188  0.00  0.00    -0.380 N 
ATOM     12  H   LIG    1       -2.298   7.535   3.483  0.00  0.00    +0.450 HD
ATOM     13  C   LIG    1       -1.115   5.840   3.272  0.00  0.00    +0.030 A 
ATOM     14  C   LIG    1       -1.438   4.619   2.748  0.00  0.00    +0.030 A 
BRANCH  13  15
ATOM     15  C   LIG    1        0.198   6.245   3.820  0.00  0.00    +0.020 A 
ATOM     16  C   LIG    1        1.369   5.958   3.117  0.00  0.00    +0.050 A 
ATOM     17  C   LIG    1        2.591   6.333   3.636  0.00  0.00    +0.060 A 
ATOM     18  C   LIG    1        2.657   6.993   4.850  0.00  0.00    +0.030 A 
ATOM     19  C   LIG    1        1.500   7.281   5.551  0.00  0.00    +0.070 A 
ATOM     20  C   LIG    1        0.272   6.911   5.043  0.00  0.00    -0.180 A 
BRANCH  20  21
ATOM     21  C   LIG    1       -0.988   7.225   5.809  0.00  0.00    +0.510 C 
ATOM     22  F   LIG    1       -1.731   6.053   5.985  0.00  0.00    -0.170 F 
ATOM     23  F   LIG    1       -1.748   8.157   5.093  0.00  0.00    -0.180 F 
ATOM     24  F   LIG    1       -0.653   7.758   7.059  0.00  0.00    -0.170 F 
ENDBRANCH  20  21
ENDBRANCH  13  15
ENDBRANCH   2   9
BRANCH   6  25
ATOM     25  O   LIG    1       -7.365   5.326  -1.692  0.00  0.00    -0.300 OA
BRANCH  25  26
ATOM     26  C   LIG    1       -8.540   4.827  -2.162  0.00  0.00    +0.140 A 
ATOM     27  C   LIG    1       -9.085   5.325  -3.336  0.00  0.00    +0.000 A 
ATOM     28  C   LIG    1      -10.276   4.815  -3.814  0.00  0.00    +0.070 A 
ATOM     29  C   LIG    1      -10.930   3.814  -3.117  0.00  0.00    -0.070 A 
ATOM     30  C   LIG    1      -10.390   3.320  -1.943  0.00  0.00    +0.070 A 
ATOM     31 CL   LIG    1      -12.430   3.178  -3.717  0.00  0.00    -0.070 Cl
ATOM     32  C   LIG    1       -9.197   3.825  -1.464  0.00  0.00    -0.060 A 
ENDBRANCH  25  26
ENDBRANCH   6  25
TORSDOF 5
