REMARK  Name = ZINCqH0000038G09.0
REMARK                            x       y       z     vdW  Elec       q    Type
REMARK                         _______ _______ _______ _____ _____    ______ ____
ROOT
ATOM      1  N   LIG    1       -2.150   3.417   6.595  0.00  0.00    -0.670 N 
ATOM      2  H   LIG    1       -1.318   3.362   7.091  0.00  0.00    +0.420 HD
ATOM      3  C   LIG    1       -3.263   3.885   7.195  0.00  0.00    +0.520 C 
ATOM      4  O   LIG    1       -4.321   3.876   6.602  0.00  0.00    -0.510 OA
ENDROOT
BRANCH   1  10
ATOM      5  C   LIG    1       -4.579   0.587   0.311  0.00  0.00    +0.230 C 
ATOM      6  C   LIG    1       -3.837   1.227   1.456  0.00  0.00    +0.250 A 
ATOM      7  N   LIG    1       -4.313   1.381   2.655  0.00  0.00    -0.480 NA
ATOM      8  C   LIG    1       -3.372   1.993   3.425  0.00  0.00    +0.040 A 
ATOM      9  C   LIG    1       -3.332   2.398   4.759  0.00  0.00    +0.080 A 
ATOM     10  C   LIG    1       -2.195   3.010   5.256  0.00  0.00    +0.140 A 
ATOM     11  C   LIG    1       -1.095   3.223   4.429  0.00  0.00    +0.040 A 
ATOM     12  C   LIG    1       -1.127   2.826   3.109  0.00  0.00    +0.070 A 
ATOM     13  C   LIG    1       -2.260   2.211   2.598  0.00  0.00    -0.010 A 
ATOM     14  O   LIG    1       -2.589   1.715   1.384  0.00  0.00    -0.210 OA
ENDBRANCH   1  10
BRANCH   3  15
ATOM     15  C   LIG    1       -3.192   4.420   8.602  0.00  0.00    -0.010 C 
ATOM     16  C   LIG    1       -4.582   4.884   9.043  0.00  0.00    +0.060 C 
ATOM     17  C   LIG    1       -4.518   5.396  10.483  0.00  0.00    +0.020 C 
ATOM     18  C   LIG    1       -3.564   6.593  10.553  0.00  0.00    +0.280 C 
ATOM     19  N   LIG    1       -2.265   6.195   9.996  0.00  0.00    -0.600 N 
ATOM     20  C   LIG    1       -1.131   6.368  10.705  0.00  0.00    +0.660 C 
ATOM     21  O   LIG    1       -0.063   6.035  10.232  0.00  0.00    -0.570 OA
ATOM     22  C   LIG    1       -2.223   5.606   8.651  0.00  0.00    +0.320 C 
BRANCH  20  23
ATOM     23  O   LIG    1       -1.184   6.910  11.936  0.00  0.00    -0.360 OA
BRANCH  23  24
ATOM     24  C   LIG    1        0.075   7.067  12.641  0.00  0.00    +0.140 C 
ATOM     25  C   LIG    1        0.732   5.697  12.823  0.00  0.00    +0.040 C 
ATOM     26  C   LIG    1       -0.183   7.694  14.013  0.00  0.00    +0.080 C 
ATOM     27  C   LIG    1        1.004   7.974  11.832  0.00  0.00    +0.040 C 
ENDBRANCH  23  24
ENDBRANCH  20  23
ENDBRANCH   3  15
TORSDOF 4
