REMARK  Name = ZINCrH000004sojf.0
REMARK                            x       y       z     vdW  Elec       q    Type
REMARK                         _______ _______ _______ _____ _____    ______ ____
ROOT
ATOM      1  C   LIG    1        5.735   1.930   0.438  0.00  0.00    +0.600 C 
ATOM      2  N   LIG    1        4.430   1.757   0.727  0.00  0.00    -0.730 N 
ATOM      3  H   LIG    1        3.997   2.329   1.380  0.00  0.00    +0.400 HD
ATOM      4  O   LIG    1        6.277   1.213  -0.382  0.00  0.00    -0.520 OA
ENDROOT
BRANCH   1   7
ATOM      5  C   LIG    1        8.698   2.500  -0.043  0.00  0.00    +0.170 C 
ATOM      6  C   LIG    1        7.827   3.266   0.921  0.00  0.00    +0.160 A 
ATOM      7  C   LIG    1        6.501   2.984   1.112  0.00  0.00    -0.320 A 
ATOM      8  S   LIG    1        5.882   4.108   2.320  0.00  0.00    +0.240 S 
ATOM      9  C   LIG    1        7.422   4.839   2.446  0.00  0.00    +0.100 A 
ATOM     10  N   LIG    1        8.270   4.259   1.644  0.00  0.00    -0.470 NA
BRANCH   9  11
ATOM     11  C   LIG    1        7.747   5.971   3.340  0.00  0.00    +0.170 A 
ATOM     12  C   LIG    1        9.044   6.484   3.363  0.00  0.00    +0.040 A 
ATOM     13  C   LIG    1        9.331   7.547   4.202  0.00  0.00    +0.060 A 
ATOM     14  C   LIG    1        8.315   8.056   4.999  0.00  0.00    -0.010 A 
ATOM     15  C   LIG    1        7.052   7.494   4.929  0.00  0.00    +0.280 A 
ATOM     16  N   LIG    1        6.803   6.487   4.119  0.00  0.00    -0.470 NA
ENDBRANCH   9  11
ENDBRANCH   1   7
BRANCH   2  17
ATOM     17  C   LIG    1        3.664   0.705   0.053  0.00  0.00    +0.280 C 
BRANCH  17  18
ATOM     18  C   LIG    1        2.220   0.722   0.558  0.00  0.00    -0.010 C 
ATOM     19  C   LIG    1        1.450   1.947  -0.001  0.00  0.00    +0.010 C 
ATOM     20  C   LIG    1       -0.018   1.470   0.010  0.00  0.00    +0.190 C 
ATOM     21  N   LIG    1        0.002  -0.004   0.002  0.00  0.00    -0.490 N 
ATOM     22  C   LIG    1        1.409  -0.456  -0.038  0.00  0.00    +0.210 C 
BRANCH  21  23
ATOM     23  C   LIG    1       -0.717  -0.508  -1.084  0.00  0.00    +0.080 A 
ATOM     24  C   LIG    1       -1.807  -1.342  -0.871  0.00  0.00    +0.040 A 
ATOM     25  C   LIG    1       -2.518  -1.835  -1.947  0.00  0.00    +0.020 A 
ATOM     26  C   LIG    1       -2.140  -1.508  -3.236  0.00  0.00    +0.000 A 
ATOM     27  C   LIG    1       -1.051  -0.683  -3.453  0.00  0.00    +0.010 A 
ATOM     28  C   LIG    1       -0.339  -0.182  -2.381  0.00  0.00    -0.030 A 
ENDBRANCH  21  23
ENDBRANCH  17  18
ENDBRANCH   2  17
TORSDOF 5
