REMARK  Name = ZINCrH000004sRHk.0
REMARK                            x       y       z     vdW  Elec       q    Type
REMARK                         _______ _______ _______ _____ _____    ______ ____
ROOT
ATOM      1  C   LIG    1       -1.397  -0.544   0.003  0.00  0.00    -0.090 A 
ATOM      2  C   LIG    1       -2.028  -0.791   1.208  0.00  0.00    +0.020 A 
ATOM      3  C   LIG    1       -3.331  -1.256   1.227  0.00  0.00    +0.030 A 
ATOM      4  C   LIG    1       -4.001  -1.485   0.042  0.00  0.00    +0.000 A 
ATOM      5  C   LIG    1       -3.367  -1.244  -1.171  0.00  0.00    +0.140 A 
ATOM      6  C   LIG    1       -2.061  -0.772  -1.186  0.00  0.00    +0.040 A 
ENDROOT
BRANCH   5   7
ATOM      7  N   LIG    1       -4.043  -1.476  -2.373  0.00  0.00    -0.650 N 
ATOM      8  H   LIG    1       -4.668  -2.214  -2.443  0.00  0.00    +0.420 HD
ATOM      9  C   LIG    1       -3.826  -0.673  -3.433  0.00  0.00    +0.570 C 
ATOM     10  O   LIG    1       -2.982   0.200  -3.372  0.00  0.00    -0.510 OA
BRANCH   9  11
ATOM     11  C   LIG    1       -4.615  -0.854  -4.674  0.00  0.00    +0.070 A 
ATOM     12  C   LIG    1       -4.386  -0.022  -5.766  0.00  0.00    +0.040 A 
ATOM     13  C   LIG    1       -5.132  -0.204  -6.920  0.00  0.00    +0.070 A 
ATOM     14  C   LIG    1       -6.082  -1.213  -6.941  0.00  0.00    +0.000 A 
ATOM     15  C   LIG    1       -6.257  -2.005  -5.816  0.00  0.00    +0.270 A 
ATOM     16  N   LIG    1       -5.531  -1.813  -4.736  0.00  0.00    -0.460 NA
ENDBRANCH   9  11
ENDBRANCH   5   7
BRANCH   1  17
ATOM     17  C   LIG    1        0.021  -0.032  -0.013  0.00  0.00    +0.320 C 
BRANCH  17  19
ATOM     18  C   LIG    1        1.173   2.115  -0.015  0.00  0.00    +0.600 C 
ATOM     19  N   LIG    1        0.010   1.433  -0.004  0.00  0.00    -0.720 N 
ATOM     20  H   LIG    1       -0.833   1.912   0.006  0.00  0.00    +0.400 HD
ATOM     21  O   LIG    1        2.230   1.514  -0.033  0.00  0.00    -0.530 OA
BRANCH  18  25
ATOM     22  C   LIG    1        1.118   6.996  -1.500  0.00  0.00    +0.180 C 
ATOM     23  C   LIG    1        1.138   5.732  -0.679  0.00  0.00    -0.010 A 
ATOM     24  C   LIG    1        1.141   4.484  -1.173  0.00  0.00    -0.150 A 
ATOM     25  C   LIG    1        1.163   3.589  -0.007  0.00  0.00    -0.230 A 
ATOM     26  C   LIG    1        1.165   4.407   1.085  0.00  0.00    +0.040 A 
ATOM     27  C   LIG    1        1.180   3.958   2.523  0.00  0.00    +0.180 C 
ATOM     28  C   LIG    1        1.125   4.083  -2.625  0.00  0.00    +0.120 C 
ATOM     29  O   LIG    1        1.156   5.675   0.661  0.00  0.00    -0.170 OA
ENDBRANCH  18  25
ENDBRANCH  17  19
ENDBRANCH   1  17
TORSDOF 5
