REMARK  Name = ZINCpk00000y6xAg.0
REMARK                            x       y       z     vdW  Elec       q    Type
REMARK                         _______ _______ _______ _____ _____    ______ ____
ROOT
ATOM      1  C   LIG    1       -1.290   1.681   0.017  0.00  0.00    +0.250 C 
ATOM      2  C   LIG    1       -1.684   2.045  -1.417  0.00  0.00    -0.000 C 
ATOM      3  C   LIG    1       -3.059   2.719  -1.405  0.00  0.00    +0.220 C 
ATOM      4  O   LIG    1       -4.013   1.845  -0.800  0.00  0.00    -0.370 OA
ATOM      5  C   LIG    1       -3.720   1.510   0.558  0.00  0.00    +0.220 C 
ATOM      6  C   LIG    1       -2.374   0.784   0.624  0.00  0.00    +0.210 C 
ENDROOT
BRANCH   1   8
ATOM      7  C   LIG    1        1.147   1.655   0.000  0.00  0.00    +0.570 C 
ATOM      8  N   LIG    1       -0.011   0.966   0.007  0.00  0.00    -0.720 N 
ATOM      9  H   LIG    1        0.002  -0.004   0.002  0.00  0.00    +0.400 HD
ATOM     10  O   LIG    1        1.130   2.871   0.007  0.00  0.00    -0.520 OA
BRANCH   7  13
ATOM     11  C   LIG    1        4.846   0.960  -0.039  0.00  0.00    -0.060 A 
ATOM     12  C   LIG    1        3.634   1.647  -0.029  0.00  0.00    +0.180 A 
ATOM     13  C   LIG    1        2.436   0.934  -0.016  0.00  0.00    -0.150 A 
ATOM     14  C   LIG    1        2.456  -0.463  -0.024  0.00  0.00    +0.110 A 
ATOM     15  C   LIG    1        3.658  -1.140  -0.039  0.00  0.00    +0.000 A 
ATOM     16  C   LIG    1        4.852  -0.441  -0.047  0.00  0.00    +0.180 A 
ATOM     17  F   LIG    1        6.026  -1.110  -0.062  0.00  0.00    -0.120 F 
BRANCH  11  19
ATOM     18  N   LIG    1        7.062   2.258  -0.053  0.00  0.00    -0.380 NA
ATOM     19  C   LIG    1        6.081   1.684  -0.047  0.00  0.00    +0.240 C 
ENDBRANCH  11  19
ENDBRANCH   7  13
ENDBRANCH   1   8
BRANCH   6  20
ATOM     20  N   LIG    1       -2.453  -0.468  -0.133  0.00  0.00    -0.700 N 
ATOM     21  H   LIG    1       -2.163  -0.494  -1.058  0.00  0.00    +0.410 HD
BRANCH  20  22
ATOM     22  C   LIG    1       -2.941  -1.614   0.474  0.00  0.00    +0.440 A 
ATOM     23  C   LIG    1       -3.361  -1.588   1.805  0.00  0.00    -0.160 A 
ATOM     24  C   LIG    1       -3.841  -2.756   2.364  0.00  0.00    +0.350 A 
ATOM     25  N   LIG    1       -3.886  -3.855   1.625  0.00  0.00    -0.560 NA
ATOM     26  C   LIG    1       -3.483  -3.847   0.370  0.00  0.00    +0.540 A 
ATOM     27  N   LIG    1       -3.023  -2.755  -0.205  0.00  0.00    -0.580 NA
ENDBRANCH  20  22
ENDBRANCH   6  20
TORSDOF 5
