REMARK  Name = ZINCkj00000hdrdY.1
REMARK                            x       y       z     vdW  Elec       q    Type
REMARK                         _______ _______ _______ _____ _____    ______ ____
ROOT
ATOM      1  C   LIG    1        0.590  -0.634   1.124  0.00  0.00    +0.280 C 
ENDROOT
BRANCH   1   2
ATOM      2  C   LIG    1       -0.120   0.002  -0.073  0.00  0.00    +0.150 C 
ATOM      3  C   LIG    1        0.606  -0.389  -1.362  0.00  0.00    +0.070 C 
ATOM      4  C   LIG    1        2.052   0.111  -1.299  0.00  0.00    +0.040 C 
ATOM      5  C   LIG    1        2.048   1.625  -1.072  0.00  0.00    +0.060 C 
ATOM      6  C   LIG    1        1.269   1.942   0.207  0.00  0.00    +0.240 C 
ATOM      7  N   LIG    1       -0.112   1.462   0.074  0.00  0.00    -0.370 N 
ATOM      8  H   LIG    1       -0.536   1.883  -0.739  0.00  0.00    +0.430 HD
BRANCH   7   9
ATOM      9  C   LIG    1       -0.876   1.837   1.271  0.00  0.00    +0.270 C 
BRANCH   9  10
ATOM     10  C   LIG    1       -0.995   3.361   1.344  0.00  0.00    +0.220 C 
BRANCH  10  11
ATOM     11  O   LIG    1       -1.769   3.832   0.238  0.00  0.00    -0.580 OA
ATOM     12  H   LIG    1       -1.886   4.791   0.220  0.00  0.00    +0.410 HD
ENDBRANCH  10  11
ENDBRANCH   9  10
ENDBRANCH   7   9
ENDBRANCH   1   2
BRANCH   1  15
ATOM     13  O   LIG    1        1.467  -2.349   3.009  0.00  0.00    -0.520 OA
ATOM     14  C   LIG    1        0.950  -2.863   2.040  0.00  0.00    +0.530 C 
ATOM     15  N   LIG    1        0.478  -2.092   1.040  0.00  0.00    -0.730 N 
ATOM     16  H   LIG    1        0.064  -2.503   0.265  0.00  0.00    +0.410 HD
BRANCH  14  17
ATOM     17  C   LIG    1        0.834  -4.363   1.954  0.00  0.00    +0.010 C 
ATOM     18  C   LIG    1        1.442  -5.012   3.210  0.00  0.00    +0.080 C 
ATOM     19  C   LIG    1        0.304  -5.798   3.894  0.00  0.00    +0.040 C 
ATOM     20  C   LIG    1       -0.702  -6.083   2.751  0.00  0.00    +0.280 C 
ATOM     21  F   LIG    1       -1.986  -6.295   3.263  0.00  0.00    -0.190 F 
ATOM     22  F   LIG    1       -0.284  -7.176   1.985  0.00  0.00    -0.190 F 
ATOM     23  C   LIG    1       -0.651  -4.778   1.919  0.00  0.00    +0.050 C 
ENDBRANCH  14  17
ENDBRANCH   1  15
TORSDOF 6
