REMARK  Name = ZINCkj00000hdrdY.0
REMARK                            x       y       z     vdW  Elec       q    Type
REMARK                         _______ _______ _______ _____ _____    ______ ____
ROOT
ATOM      1  C   LIG    1        1.673   5.604   1.131  0.00  0.00    +0.300 C 
ENDROOT
BRANCH   1   2
ATOM      2  C   LIG    1        0.287   4.962   1.222  0.00  0.00    +0.170 C 
ATOM      3  C   LIG    1       -0.351   5.318   2.567  0.00  0.00    +0.070 C 
ATOM      4  C   LIG    1       -1.738   4.674   2.654  0.00  0.00    +0.040 C 
ATOM      5  C   LIG    1       -1.600   3.161   2.459  0.00  0.00    +0.040 C 
ATOM      6  C   LIG    1       -0.915   2.885   1.119  0.00  0.00    +0.270 C 
ATOM      7  N   LIG    1        0.415   3.504   1.108  0.00  0.00    -0.380 N 
ATOM      8  H   LIG    1        0.954   3.153   1.886  0.00  0.00    +0.410 HD
BRANCH   7   9
ATOM      9  C   LIG    1        1.099   3.171  -0.149  0.00  0.00    +0.270 C 
BRANCH   9  10
ATOM     10  C   LIG    1        1.394   1.671  -0.186  0.00  0.00    +0.220 C 
BRANCH  10  11
ATOM     11  O   LIG    1        0.171   0.948  -0.344  0.00  0.00    -0.570 OA
ATOM     12  H   LIG    1        0.283  -0.012  -0.376  0.00  0.00    +0.410 HD
ENDBRANCH  10  11
ENDBRANCH   9  10
ENDBRANCH   7   9
ENDBRANCH   1   2
BRANCH   1  15
ATOM     13  O   LIG    1        4.303   6.141   1.374  0.00  0.00    -0.500 OA
ATOM     14  C   LIG    1        3.861   5.340   2.170  0.00  0.00    +0.530 C 
ATOM     15  N   LIG    1        2.557   5.003   2.133  0.00  0.00    -0.750 N 
ATOM     16  H   LIG    1        2.203   4.362   2.769  0.00  0.00    +0.400 HD
BRANCH  14  17
ATOM     17  C   LIG    1        4.771   4.721   3.200  0.00  0.00    +0.000 C 
ATOM     18  C   LIG    1        6.200   5.265   3.036  0.00  0.00    +0.080 C 
ATOM     19  C   LIG    1        6.558   5.973   4.360  0.00  0.00    +0.040 C 
ATOM     20  C   LIG    1        5.627   5.312   5.407  0.00  0.00    +0.280 C 
ATOM     21  F   LIG    1        5.430   6.161   6.501  0.00  0.00    -0.190 F 
ATOM     22  F   LIG    1        6.144   4.079   5.821  0.00  0.00    -0.190 F 
ATOM     23  C   LIG    1        4.309   5.117   4.618  0.00  0.00    +0.050 C 
ENDBRANCH  14  17
ENDBRANCH   1  15
TORSDOF 6
