REMARK  Name = ZINCvU0000000GMw.0
REMARK                            x       y       z     vdW  Elec       q    Type
REMARK                         _______ _______ _______ _____ _____    ______ ____
ROOT
ATOM      1  C   LIG    1       -3.260   1.808   1.388  0.00  0.00    +0.230 A 
ATOM      2  N   LIG    1       -4.171   0.931   1.739  0.00  0.00    -0.270 NA
ATOM      3  N   LIG    1       -3.758  -0.258   1.483  0.00  0.00    -0.290 NA
ATOM      4  C   LIG    1       -2.559  -0.213   0.947  0.00  0.00    +0.150 A 
ATOM      5  N   LIG    1       -2.198   1.102   0.873  0.00  0.00    -0.450 N 
ENDROOT
BRANCH   1   9
ATOM      6  C   LIG    1       -3.540   6.031   1.766  0.00  0.00    +0.150 A 
ATOM      7  C   LIG    1       -2.304   5.407   1.873  0.00  0.00    -0.010 A 
ATOM      8  C   LIG    1       -2.209   4.037   1.751  0.00  0.00    +0.060 A 
ATOM      9  C   LIG    1       -3.358   3.277   1.520  0.00  0.00    -0.060 A 
ATOM     10  C   LIG    1       -4.597   3.909   1.408  0.00  0.00    +0.110 A 
ATOM     11  C   LIG    1       -4.685   5.279   1.537  0.00  0.00    -0.070 A 
BRANCH   6  13
ATOM     12  C   LIG    1       -4.931   7.959   1.766  0.00  0.00    +0.240 C 
ATOM     13  O   LIG    1       -3.629   7.382   1.886  0.00  0.00    -0.310 OA
ENDBRANCH   6  13
ENDBRANCH   1   9
BRANCH   5  14
ATOM     14  C   LIG    1       -0.943   1.647   0.349  0.00  0.00    +0.240 C 
ATOM     15  C   LIG    1        0.218   1.207   1.243  0.00  0.00    +0.070 C 
ATOM     16  C   LIG    1       -0.717   1.130  -1.073  0.00  0.00    +0.070 C 
ENDBRANCH   5  14
BRANCH   4  17
ATOM     17  S   LIG    1       -1.595  -1.593   0.424  0.00  0.00    +0.050 S 
BRANCH  17  18
ATOM     18  C   LIG    1       -2.727  -2.942   0.841  0.00  0.00    -0.010 C 
ATOM     19  C   LIG    1       -2.919  -2.998   2.357  0.00  0.00    +0.090 C 
BRANCH  18  20
ATOM     20  C   LIG    1       -2.150  -4.249   0.360  0.00  0.00    +0.390 C 
ATOM     21  O   LIG    1       -0.957  -4.365   0.217  0.00  0.00    -0.430 OA
BRANCH  20  22
ATOM     22  C   LIG    1       -3.062  -5.410   0.057  0.00  0.00    -0.090 C 
ATOM     23  C   LIG    1       -4.045  -5.012  -1.046  0.00  0.00    +0.040 C 
ATOM     24  C   LIG    1       -4.971  -6.191  -1.353  0.00  0.00    +0.000 C 
ATOM     25  C   LIG    1       -5.747  -6.572  -0.091  0.00  0.00    +0.030 C 
ATOM     26  C   LIG    1       -4.764  -6.970   1.012  0.00  0.00    +0.000 C 
ATOM     27  C   LIG    1       -3.930  -8.165   0.545  0.00  0.00    +0.020 C 
ATOM     28  C   LIG    1       -3.154  -7.784  -0.717  0.00  0.00    -0.020 C 
ATOM     29  C   LIG    1       -4.138  -7.386  -1.820  0.00  0.00    +0.020 C 
ATOM     30  C   LIG    1       -3.838  -5.791   1.319  0.00  0.00    +0.050 C 
ATOM     31  C   LIG    1       -2.228  -6.605  -0.410  0.00  0.00    +0.050 C 
ENDBRANCH  20  22
ENDBRANCH  18  20
ENDBRANCH  17  18
ENDBRANCH   4  17
TORSDOF 7
