REMARK  Name = ZINCpk00000Fdk0b.0
REMARK                            x       y       z     vdW  Elec       q    Type
REMARK                         _______ _______ _______ _____ _____    ______ ____
ROOT
ATOM      1  C   LIG    1        3.374   7.850  -2.566  0.00  0.00    +0.590 C 
ATOM      2  N   LIG    1        3.180   7.064  -1.489  0.00  0.00    -0.620 N 
ATOM      3  C   LIG    1        3.757   7.282  -0.150  0.00  0.00    +0.280 C 
ATOM      4  C   LIG    1        3.774   5.880   0.512  0.00  0.00    +0.050 C 
ATOM      5  C   LIG    1        2.454   5.268  -0.027  0.00  0.00    +0.250 C 
ATOM      6  C   LIG    1        2.358   5.845  -1.455  0.00  0.00    +0.240 C 
ATOM      7  O   LIG    1        4.000   8.887  -2.457  0.00  0.00    -0.540 OA
ENDROOT
BRANCH   1  11
ATOM      8  C   LIG    1        1.779   6.666  -6.263  0.00  0.00    +0.420 A 
ATOM      9  C   LIG    1        2.628   7.771  -6.230  0.00  0.00    -0.110 A 
ATOM     10  C   LIG    1        3.155   8.177  -5.034  0.00  0.00    +0.180 A 
ATOM     11  C   LIG    1        2.826   7.454  -3.877  0.00  0.00    -0.260 A 
ATOM     12  C   LIG    1        1.969   6.357  -3.984  0.00  0.00    +0.340 A 
ATOM     13  N   LIG    1        1.480   6.003  -5.154  0.00  0.00    -0.550 NA
BRANCH   8  15
ATOM     14  C   LIG    1        1.563   6.981  -8.702  0.00  0.00    +0.290 C 
ATOM     15  N   LIG    1        1.240   6.256  -7.471  0.00  0.00    -0.720 N 
ATOM     16  H   LIG    1        0.647   5.488  -7.501  0.00  0.00    +0.410 HD
ENDBRANCH   8  15
ENDBRANCH   1  11
BRANCH   5  17
ATOM     17  N   LIG    1        2.538   3.805  -0.064  0.00  0.00    -0.690 N 
ATOM     18  H   LIG    1        3.404   3.370  -0.095  0.00  0.00    +0.420 HD
BRANCH  17  19
ATOM     19  C   LIG    1        1.375   3.041  -0.053  0.00  0.00    +0.410 A 
ATOM     20  N   LIG    1        0.207   3.638  -0.009  0.00  0.00    -0.350 NA
ATOM     21  N   LIG    1       -0.974   2.890   0.002  0.00  0.00    -0.250 N 
ATOM     22  C   LIG    1       -2.291   3.238   0.043  0.00  0.00    +0.170 A 
ATOM     23  C   LIG    1       -3.010   2.090   0.017  0.00  0.00    +0.200 A 
ATOM     24  N   LIG    1       -2.164   1.060  -0.024  0.00  0.00    -0.460 NA
ATOM     25  C   LIG    1       -0.920   1.521  -0.038  0.00  0.00    +0.140 A 
ATOM     26  C   LIG    1        0.334   0.882  -0.079  0.00  0.00    +0.180 A 
ATOM     27  C   LIG    1        1.464   1.637  -0.089  0.00  0.00    -0.050 A 
ENDBRANCH  17  19
ENDBRANCH   5  17
TORSDOF 4
