REMARK  Name = ZINCnE000001T3iq.1
REMARK                            x       y       z     vdW  Elec       q    Type
REMARK                         _______ _______ _______ _____ _____    ______ ____
ROOT
ATOM      1  O   LIG    1        0.002  -0.004   0.002  0.00  0.00    -0.650 OA
ATOM      2  C   LIG    1       -0.014   1.212   0.009  0.00  0.00    +0.650 C 
ATOM      3  N   LIG    1        1.143   1.901   0.001  0.00  0.00    -0.730 N 
ATOM      4  H   LIG    1        1.130   2.871   0.007  0.00  0.00    +0.390 HD
ATOM      5  N   LIG    1       -1.191   1.870   0.018  0.00  0.00    -0.680 NA
ENDROOT
BRANCH   5   6
ATOM      6  C   LIG    1       -2.385   1.158   0.020  0.00  0.00    +0.370 A 
ATOM      7  N   LIG    1       -3.566   1.691   0.033  0.00  0.00    -0.560 NA
ATOM      8  C   LIG    1       -4.595   0.864   0.029  0.00  0.00    +0.110 A 
ATOM      9  C   LIG    1       -4.267  -0.429   0.021  0.00  0.00    -0.240 A 
ATOM     10  S   LIG    1       -2.509  -0.547   0.012  0.00  0.00    +0.020 S 
BRANCH   8  11
ATOM     11  C   LIG    1       -6.024   1.341   0.039  0.00  0.00    +0.160 C 
BRANCH  11  12
ATOM     12  C   LIG    1       -6.236   2.267   1.209  0.00  0.00    -0.060 A 
ATOM     13  C   LIG    1       -6.646   1.760   2.428  0.00  0.00    +0.000 A 
ATOM     14  C   LIG    1       -6.835   2.609   3.502  0.00  0.00    -0.020 A 
ATOM     15  C   LIG    1       -6.626   3.967   3.354  0.00  0.00    -0.020 A 
ATOM     16  C   LIG    1       -6.221   4.476   2.134  0.00  0.00    +0.000 A 
ATOM     17  C   LIG    1       -6.027   3.626   1.062  0.00  0.00    +0.030 A 
ENDBRANCH  11  12
ENDBRANCH   8  11
ENDBRANCH   5   6
BRANCH   3  18
ATOM     18  C   LIG    1        2.422   1.186  -0.015  0.00  0.00    +0.330 C 
BRANCH  18  19
ATOM     19  C   LIG    1        3.554   2.181  -0.020  0.00  0.00    -0.140 A 
ATOM     20  C   LIG    1        4.074   2.646  -1.218  0.00  0.00    +0.080 A 
ATOM     21  C   LIG    1        5.111   3.566  -1.175  0.00  0.00    -0.050 A 
ATOM     22  C   LIG    1        5.597   3.975   0.052  0.00  0.00    +0.240 A 
ATOM     23  N   LIG    1        5.082   3.507   1.172  0.00  0.00    -0.490 NA
ATOM     24  C   LIG    1        4.091   2.636   1.169  0.00  0.00    +0.280 A 
ENDBRANCH  18  19
ENDBRANCH   3  18
TORSDOF 5
