REMARK  Name = ZINCpe000000TDXG.0
REMARK                            x       y       z     vdW  Elec       q    Type
REMARK                         _______ _______ _______ _____ _____    ______ ____
ROOT
ATOM      1  C   LIG    1       -9.051   2.743   4.968  0.00  0.00    +0.010 C 
ATOM      2  N   LIG    1       -9.288   1.492   5.203  0.00  0.00    -0.110 NA
ATOM      3  N   LIG    1       -8.141   0.705   5.290  0.00  0.00    -0.430 N 
ATOM      4  C   LIG    1       -6.961   1.558   5.083  0.00  0.00    +0.210 C 
ATOM      5  C   LIG    1       -7.559   2.961   4.860  0.00  0.00    +0.140 C 
ENDROOT
BRANCH   3   6
ATOM      6  C   LIG    1       -8.117  -0.669   5.535  0.00  0.00    +0.220 A 
ATOM      7  C   LIG    1       -6.903  -1.344   5.593  0.00  0.00    -0.040 A 
ATOM      8  C   LIG    1       -6.883  -2.703   5.840  0.00  0.00    +0.050 A 
ATOM      9  C   LIG    1       -8.068  -3.393   6.019  0.00  0.00    -0.020 A 
ATOM     10  C   LIG    1       -9.277  -2.725   5.956  0.00  0.00    +0.050 A 
ATOM     11  C   LIG    1       -9.305  -1.366   5.715  0.00  0.00    -0.020 A 
ENDBRANCH   3   6
BRANCH   4  12
ATOM     12  C   LIG    1       -6.191   1.111   3.867  0.00  0.00    +0.500 C 
ATOM     13  N   LIG    1       -4.908   1.491   3.704  0.00  0.00    -0.730 N 
ATOM     14  H   LIG    1       -4.481   2.053   4.369  0.00  0.00    +0.400 HD
ATOM     15  O   LIG    1       -6.725   0.408   3.035  0.00  0.00    -0.500 OA
BRANCH  13  16
ATOM     16  C   LIG    1       -4.160   1.056   2.522  0.00  0.00    +0.290 C 
BRANCH  16  17
ATOM     17  C   LIG    1       -2.740   1.623   2.581  0.00  0.00    +0.110 C 
BRANCH  17  18
ATOM     18  C   LIG    1       -1.970   1.175   1.365  0.00  0.00    +0.460 C 
ATOM     19  O   LIG    1       -2.502   0.475   0.537  0.00  0.00    -0.500 OA
BRANCH  18  20
ATOM     20  O   LIG    1       -0.692   1.554   1.203  0.00  0.00    -0.360 OA
ATOM     21  C   LIG    1       -0.013   1.086   0.008  0.00  0.00    +0.270 C 
ENDBRANCH  18  20
ENDBRANCH  17  18
ENDBRANCH  16  17
ENDBRANCH  13  16
ENDBRANCH   4  12
BRANCH   1  22
ATOM     22  C   LIG    1      -10.039   3.753   4.833  0.00  0.00    +0.550 C 
ATOM     23  O   LIG    1       -9.707   4.902   4.612  0.00  0.00    -0.490 OA
BRANCH  22  24
ATOM     24  O   LIG    1      -11.345   3.438   4.950  0.00  0.00    -0.340 OA
BRANCH  24  26
ATOM     25  C   LIG    1      -13.705   3.959   4.966  0.00  0.00    +0.070 C 
ATOM     26  C   LIG    1      -12.285   4.504   4.803  0.00  0.00    +0.200 C 
ENDBRANCH  24  26
ENDBRANCH  22  24
ENDBRANCH   1  22
TORSDOF 9
