REMARK  Name = ZINCrD000000CH7V.0
REMARK                            x       y       z     vdW  Elec       q    Type
REMARK                         _______ _______ _______ _____ _____    ______ ____
ROOT
ATOM      1  O   LIG    1        3.046   3.325  -0.267  0.00  0.00    -0.520 OA
ATOM      2  C   LIG    1        1.923   3.195   0.178  0.00  0.00    +0.590 C 
ATOM      3  N   LIG    1        1.467   1.972   0.514  0.00  0.00    -0.610 N 
ATOM      4  C   LIG    1        2.256   0.726   0.494  0.00  0.00    +0.260 C 
ATOM      5  C   LIG    1        1.208  -0.404   0.338  0.00  0.00    +0.040 C 
ATOM      6  C   LIG    1        0.037   0.136   1.202  0.00  0.00    +0.040 C 
ATOM      7  C   LIG    1        0.102   1.658   0.959  0.00  0.00    +0.220 C 
ENDROOT
BRANCH   2   8
ATOM      8  C   LIG    1        1.056   4.379   0.352  0.00  0.00    -0.250 A 
ATOM      9  C   LIG    1       -0.329   4.239   0.507  0.00  0.00    +0.350 A 
ATOM     10  N   LIG    1       -1.068   5.321   0.664  0.00  0.00    -0.520 NA
ATOM     11  C   LIG    1       -0.518   6.528   0.665  0.00  0.00    +0.390 A 
ATOM     12  N   LIG    1        0.789   6.702   0.516  0.00  0.00    -0.480 NA
ATOM     13  C   LIG    1        1.597   5.671   0.359  0.00  0.00    +0.400 A 
BRANCH  11  14
ATOM     14  C   LIG    1       -1.388   7.716   0.839  0.00  0.00    +0.160 A 
ATOM     15  C   LIG    1       -2.762   7.550   0.991  0.00  0.00    +0.030 A 
ATOM     16  C   LIG    1       -3.562   8.669   1.157  0.00  0.00    +0.060 A 
ATOM     17  C   LIG    1       -2.960   9.918   1.155  0.00  0.00    -0.010 A 
ATOM     18  C   LIG    1       -1.588  10.010   0.993  0.00  0.00    +0.260 A 
ATOM     19  N   LIG    1       -0.851   8.930   0.842  0.00  0.00    -0.440 NA
ENDBRANCH  11  14
ENDBRANCH   2   8
BRANCH   7  20
ATOM     20  C   LIG    1       -0.206   2.406   2.258  0.00  0.00    -0.010 C 
BRANCH  20  21
ATOM     21  C   LIG    1       -1.648   2.118   2.683  0.00  0.00    +0.310 C 
BRANCH  21  22
ATOM     22  C   LIG    1       -1.910   2.743   4.029  0.00  0.00    -0.220 A 
ATOM     23  C   LIG    1       -1.812   2.113   5.201  0.00  0.00    +0.020 A 
ATOM     24  C   LIG    1       -2.098   2.893   6.308  0.00  0.00    +0.000 A 
ATOM     25  C   LIG    1       -2.437   4.154   6.034  0.00  0.00    -0.040 A 
ATOM     26  S   LIG    1       -2.398   4.411   4.295  0.00  0.00    +0.110 S 
ENDBRANCH  21  22
BRANCH  21  27
ATOM     27  O   LIG    1       -2.547   2.669   1.719  0.00  0.00    -0.550 OA
ATOM     28  H   LIG    1       -2.468   3.627   1.609  0.00  0.00    +0.380 HD
ENDBRANCH  21  27
ENDBRANCH  20  21
ENDBRANCH   7  20
TORSDOF 6
