REMARK  Name = ZINCrH00000No4y1.0
REMARK                            x       y       z     vdW  Elec       q    Type
REMARK                         _______ _______ _______ _____ _____    ______ ____
ROOT
ATOM      1  C   LIG    1        4.098   0.834  -3.236  0.00  0.00    -0.200 A 
ATOM      2  C   LIG    1        3.971   1.369  -1.984  0.00  0.00    +0.290 A 
ATOM      3  N   LIG    1        2.836   0.896  -1.441  0.00  0.00    -0.360 N 
ATOM      4  N   LIG    1        2.209   0.034  -2.346  0.00  0.00    -0.270 NA
ATOM      5  C   LIG    1        2.932  -0.029  -3.443  0.00  0.00    +0.150 A 
ENDROOT
BRANCH   5   6
ATOM      6  C   LIG    1        2.628  -0.825  -4.656  0.00  0.00    -0.010 A 
ATOM      7  C   LIG    1        3.625  -1.592  -5.254  0.00  0.00    +0.080 A 
ATOM      8  C   LIG    1        3.342  -2.339  -6.381  0.00  0.00    +0.020 A 
ATOM      9  C   LIG    1        2.067  -2.315  -6.923  0.00  0.00    +0.080 A 
ATOM     10  O   LIG    1        1.782  -3.047  -8.039  0.00  0.00    -0.320 OA
ATOM     11  C   LIG    1        0.893  -4.150  -7.853  0.00  0.00    +0.220 C 
ATOM     12  C   LIG    1       -0.556  -3.694  -7.920  0.00  0.00    -0.020 C 
ATOM     13  C   LIG    1       -0.919  -2.752  -6.783  0.00  0.00    +0.220 C 
ATOM     14  O   LIG    1       -0.181  -1.533  -6.879  0.00  0.00    -0.320 OA
ATOM     15  C   LIG    1        1.070  -1.548  -6.333  0.00  0.00    +0.060 A 
ATOM     16  C   LIG    1        1.344  -0.802  -5.202  0.00  0.00    +0.050 A 
ENDBRANCH   5   6
BRANCH   1  18
ATOM     17  N   LIG    1        5.132   0.585  -5.387  0.00  0.00    -0.340 NA
ATOM     18  C   LIG    1        5.194   1.077  -4.191  0.00  0.00    +0.300 C 
BRANCH  17  20
ATOM     19  C   LIG    1        5.984   0.217  -7.585  0.00  0.00    +0.240 C 
ATOM     20  O   LIG    1        6.185   0.819  -6.304  0.00  0.00    -0.250 OA
ENDBRANCH  17  20
ENDBRANCH   1  18
BRANCH   3  21
ATOM     21  C   LIG    1        2.335   1.227  -0.105  0.00  0.00    +0.380 C 
BRANCH  21  22
ATOM     22  C   LIG    1        0.930   1.760  -0.212  0.00  0.00    -0.120 A 
ATOM     23  C   LIG    1       -0.145   0.894  -0.148  0.00  0.00    +0.040 A 
ATOM     24  C   LIG    1       -1.434   1.383  -0.252  0.00  0.00    +0.000 A 
ATOM     25  C   LIG    1       -1.648   2.739  -0.411  0.00  0.00    +0.010 A 
ATOM     26  C   LIG    1       -0.573   3.606  -0.476  0.00  0.00    +0.000 A 
ATOM     27  C   LIG    1        0.716   3.116  -0.377  0.00  0.00    +0.020 A 
ENDBRANCH  21  22
ENDBRANCH   3  21
TORSDOF 5
