REMARK  Name = ZINCrH000004jnbZ.0
REMARK                            x       y       z     vdW  Elec       q    Type
REMARK                         _______ _______ _______ _____ _____    ______ ____
ROOT
ATOM      1  C   LIG    1        3.541   1.250   0.467  0.00  0.00    +0.590 C 
ATOM      2  N   LIG    1        2.412   1.153  -0.263  0.00  0.00    -0.610 N 
ATOM      3  C   LIG    1        2.319   0.240  -1.414  0.00  0.00    +0.290 C 
ATOM      4  C   LIG    1        1.218  -0.782  -1.126  0.00  0.00    +0.270 C 
ATOM      5  N   LIG    1        0.019  -0.122  -0.624  0.00  0.00    -0.710 N 
ATOM      6  H   LIG    1       -0.824  -0.593  -0.713  0.00  0.00    +0.410 HD
ATOM      7  C   LIG    1        0.001   1.083  -0.053  0.00  0.00    +0.520 C 
ATOM      8  O   LIG    1       -1.048   1.496   0.392  0.00  0.00    -0.530 OA
ATOM      9  C   LIG    1        1.222   1.955   0.059  0.00  0.00    +0.320 C 
ATOM     10  O   LIG    1        3.783   2.272   1.081  0.00  0.00    -0.490 OA
ENDROOT
BRANCH   1  12
ATOM     11  N   LIG    1        5.737   0.150   1.095  0.00  0.00    -0.440 N 
ATOM     12  C   LIG    1        4.481   0.120   0.520  0.00  0.00    +0.030 A 
ATOM     13  C   LIG    1        4.254  -1.117   0.007  0.00  0.00    +0.000 A 
ATOM     14  C   LIG    1        5.400  -1.908   0.267  0.00  0.00    -0.120 A 
ATOM     15  C   LIG    1        5.737  -3.237  -0.020  0.00  0.00    +0.060 A 
ATOM     16  C   LIG    1        6.950  -3.728   0.368  0.00  0.00    -0.030 A 
ATOM     17  C   LIG    1        7.855  -2.923   1.047  0.00  0.00    +0.040 A 
ATOM     18  C   LIG    1        7.547  -1.613   1.341  0.00  0.00    -0.010 A 
ATOM     19  C   LIG    1        6.317  -1.089   0.955  0.00  0.00    +0.110 A 
BRANCH  11  21
ATOM     20  C   LIG    1        5.894   1.370   3.208  0.00  0.00    +0.040 C 
ATOM     21  C   LIG    1        6.348   1.309   1.749  0.00  0.00    +0.300 C 
ENDBRANCH  11  21
ENDBRANCH   1  12
BRANCH   9  22
ATOM     22  C   LIG    1        1.111   3.105  -0.909  0.00  0.00    -0.070 A 
ATOM     23  C   LIG    1        0.426   2.943  -2.098  0.00  0.00    +0.030 A 
ATOM     24  C   LIG    1        0.324   3.998  -2.986  0.00  0.00    +0.020 A 
ATOM     25  C   LIG    1        0.908   5.214  -2.686  0.00  0.00    +0.030 A 
ATOM     26  C   LIG    1        1.594   5.377  -1.496  0.00  0.00    +0.050 A 
ATOM     27  C   LIG    1        1.691   4.324  -0.605  0.00  0.00    -0.070 A 
ATOM     28 BR   LIG    1        2.623   4.547   1.025  0.00  0.00    -0.010 Br
ENDBRANCH   9  22
TORSDOF 3
