REMARK  Name = ZINCrH00000No57d.0
REMARK                            x       y       z     vdW  Elec       q    Type
REMARK                         _______ _______ _______ _____ _____    ______ ____
ROOT
ATOM      1  N   LIG    1        4.196   1.931  -0.129  0.00  0.00    -0.600 N 
ATOM      2  C   LIG    1        3.587   0.772   0.187  0.00  0.00    +0.600 C 
ATOM      3  O   LIG    1        4.237  -0.252   0.279  0.00  0.00    -0.520 OA
ENDROOT
BRANCH   2   4
ATOM      4  C   LIG    1        2.132   0.744   0.423  0.00  0.00    -0.280 A 
ATOM      5  C   LIG    1        1.478   0.067   1.433  0.00  0.00    +0.320 A 
ATOM      6  N   LIG    1        0.161   0.305   1.289  0.00  0.00    -0.310 N 
ATOM      7  N   LIG    1       -0.020   1.138   0.179  0.00  0.00    -0.270 NA
ATOM      8  C   LIG    1        1.145   1.405  -0.343  0.00  0.00    +0.280 A 
BRANCH   6   9
ATOM      9  C   LIG    1       -0.855  -0.197   2.110  0.00  0.00    +0.200 A 
ATOM     10  C   LIG    1       -0.557  -1.027   3.189  0.00  0.00    -0.050 A 
ATOM     11  C   LIG    1       -1.588  -1.496   3.978  0.00  0.00    +0.300 A 
ATOM     12  N   LIG    1       -2.841  -1.178   3.715  0.00  0.00    -0.490 NA
ATOM     13  C   LIG    1       -3.163  -0.400   2.699  0.00  0.00    +0.300 A 
ATOM     14  C   LIG    1       -2.191   0.115   1.866  0.00  0.00    -0.020 A 
ENDBRANCH   6   9
ENDBRANCH   2   4
BRANCH   1  15
ATOM     15  C   LIG    1        5.616   1.939  -0.487  0.00  0.00    +0.300 C 
BRANCH  15  20
ATOM     16  C   LIG    1        6.181   4.159  -4.810  0.00  0.00    +0.010 C 
ATOM     17  C   LIG    1        6.232   3.198  -3.922  0.00  0.00    -0.120 C 
ATOM     18  C   LIG    1        7.249   2.071  -3.872  0.00  0.00    +0.050 C 
ATOM     19  C   LIG    1        7.257   1.624  -2.389  0.00  0.00    +0.030 C 
ATOM     20  C   LIG    1        5.763   1.746  -1.998  0.00  0.00    -0.030 C 
ATOM     21  C   LIG    1        5.287   3.004  -2.754  0.00  0.00    +0.060 C 
ENDBRANCH  15  20
ENDBRANCH   1  15
BRANCH   1  22
ATOM     22  C   LIG    1        3.438   3.185  -0.116  0.00  0.00    +0.410 C 
BRANCH  22  23
ATOM     23  C   LIG    1        3.402   3.735   1.287  0.00  0.00    +0.020 A 
ATOM     24  N   LIG    1        4.274   4.545   1.785  0.00  0.00    -0.460 NA
ATOM     25  C   LIG    1        4.092   4.931   3.032  0.00  0.00    +0.220 A 
ATOM     26  C   LIG    1        3.006   4.418   3.618  0.00  0.00    -0.080 A 
ATOM     27  S   LIG    1        2.196   3.382   2.446  0.00  0.00    +0.130 S 
ENDBRANCH  22  23
ENDBRANCH   1  22
TORSDOF 6
