REMARK  Name = ZINCpe00000gMGna.0
REMARK                            x       y       z     vdW  Elec       q    Type
REMARK                         _______ _______ _______ _____ _____    ______ ____
ROOT
ATOM      1  C   LIG    1        0.048   6.981  -1.380  0.00  0.00    +0.070 C 
ATOM      2  C   LIG    1       -1.118   6.303  -2.102  0.00  0.00    +0.190 C 
ENDROOT
BRANCH   2   3
ATOM      3  C   LIG    1       -2.227   7.301  -2.313  0.00  0.00    +0.520 C 
ATOM      4  N   LIG    1       -2.033   8.365  -3.118  0.00  0.00    -0.670 N 
ATOM      5  H   LIG    1       -1.159   8.523  -3.509  0.00  0.00    +0.410 HD
ATOM      6  O   LIG    1       -3.295   7.148  -1.759  0.00  0.00    -0.490 OA
BRANCH   4   7
ATOM      7  C   LIG    1       -3.086   9.237  -3.388  0.00  0.00    +0.190 A 
ATOM      8  C   LIG    1       -4.034   9.509  -2.411  0.00  0.00    +0.030 A 
ATOM      9  C   LIG    1       -5.074  10.378  -2.679  0.00  0.00    +0.070 A 
ATOM     10  C   LIG    1       -5.186  10.974  -3.924  0.00  0.00    +0.010 A 
ATOM     11  C   LIG    1       -4.257  10.711  -4.908  0.00  0.00    +0.090 A 
ATOM     12  C   LIG    1       -3.197   9.839  -4.650  0.00  0.00    -0.060 A 
BRANCH  12  13
ATOM     13  C   LIG    1       -2.228   9.562  -5.668  0.00  0.00    +0.250 C 
ATOM     14  N   LIG    1       -1.460   9.342  -6.475  0.00  0.00    -0.410 NA
ENDBRANCH  12  13
ENDBRANCH   4   7
ENDBRANCH   2   3
BRANCH   2  15
ATOM     15  O   LIG    1       -1.609   5.198  -1.297  0.00  0.00    -0.330 OA
BRANCH  15  16
ATOM     16  C   LIG    1       -1.047   3.997  -1.506  0.00  0.00    +0.440 C 
ATOM     17  O   LIG    1       -0.175   3.873  -2.333  0.00  0.00    -0.470 OA
BRANCH  16  18
ATOM     18  C   LIG    1       -1.505   2.803  -0.708  0.00  0.00    +0.290 C 
ATOM     19  C   LIG    1       -1.225   3.035   0.792  0.00  0.00    +0.060 C 
ATOM     20  C   LIG    1       -0.771   1.634   1.284  0.00  0.00    +0.040 C 
ATOM     21  C   LIG    1        0.006   1.110   0.051  0.00  0.00    +0.280 C 
ATOM     22  N   LIG    1       -0.747   1.610  -1.113  0.00  0.00    -1.000 NA
BRANCH  22  23
ATOM     23  S   LIG    1       -0.739   0.940  -2.628  0.00  0.00    +2.620 S 
ATOM     24  O   LIG    1        0.513   0.273  -2.709  0.00  0.00    -0.940 OA
ATOM     25  O   LIG    1       -1.049   2.025  -3.492  0.00  0.00    -0.930 OA
ATOM     26  C   LIG    1       -2.099  -0.260  -2.599  0.00  0.00    -0.290 C 
ENDBRANCH  22  23
ENDBRANCH  16  18
ENDBRANCH  15  16
ENDBRANCH   2  15
TORSDOF 7
