REMARK  Name = ZINCqH0000006ZQy.0
REMARK                            x       y       z     vdW  Elec       q    Type
REMARK                         _______ _______ _______ _____ _____    ______ ____
ROOT
ATOM      1  C   LIG    1       -1.539  10.785  -0.989  0.00  0.00    +0.230 A 
ATOM      2  N   LIG    1       -0.405  10.612  -0.350  0.00  0.00    -0.270 NA
ATOM      3  N   LIG    1       -0.252   9.371  -0.056  0.00  0.00    -0.290 NA
ATOM      4  C   LIG    1       -1.275   8.673  -0.496  0.00  0.00    +0.160 A 
ATOM      5  N   LIG    1       -2.131   9.549  -1.102  0.00  0.00    -0.460 N 
ATOM      6  C   LIG    1       -3.413   9.236  -1.739  0.00  0.00    +0.350 C 
ENDROOT
BRANCH   1  10
ATOM      7  C   LIG    1       -3.088  14.469  -2.433  0.00  0.00    +0.150 A 
ATOM      8  C   LIG    1       -3.941  13.393  -2.224  0.00  0.00    -0.010 A 
ATOM      9  C   LIG    1       -3.442  12.197  -1.756  0.00  0.00    +0.060 A 
ATOM     10  C   LIG    1       -2.078  12.067  -1.491  0.00  0.00    -0.060 A 
ATOM     11  C   LIG    1       -1.224  13.152  -1.698  0.00  0.00    +0.110 A 
ATOM     12  C   LIG    1       -1.730  14.344  -2.172  0.00  0.00    -0.070 A 
BRANCH   7  14
ATOM     13  C   LIG    1       -2.650  16.712  -3.087  0.00  0.00    +0.240 C 
ATOM     14  O   LIG    1       -3.583  15.647  -2.894  0.00  0.00    -0.310 OA
ENDBRANCH   7  14
ENDBRANCH   1  10
BRANCH   4  15
ATOM     15  S   LIG    1       -1.503   6.934  -0.330  0.00  0.00    +0.020 S 
BRANCH  15  16
ATOM     16  C   LIG    1        0.014   6.502   0.558  0.00  0.00    +0.220 C 
BRANCH  16  17
ATOM     17  C   LIG    1        0.038   5.017   0.818  0.00  0.00    +0.060 A 
ATOM     18  C   LIG    1       -0.473   4.399   1.905  0.00  0.00    +0.120 A 
ATOM     19  N   LIG    1       -0.244   3.059   1.752  0.00  0.00    -0.360 N 
ATOM     20  C   LIG    1       -0.530   1.978   2.536  0.00  0.00    +0.220 A 
ATOM     21  C   LIG    1       -0.187   0.734   2.143  0.00  0.00    +0.020 A 
ATOM     22  C   LIG    1        0.471   0.534   0.917  0.00  0.00    +0.030 A 
ATOM     23  C   LIG    1        0.762   1.602   0.127  0.00  0.00    -0.040 A 
ATOM     24  C   LIG    1        1.467   1.405  -1.190  0.00  0.00    +0.130 C 
ATOM     25  C   LIG    1        0.401   2.896   0.554  0.00  0.00    +0.230 A 
ATOM     26  N   LIG    1        0.558   4.093   0.007  0.00  0.00    -0.470 NA
ENDBRANCH  16  17
ENDBRANCH  15  16
ENDBRANCH   4  15
TORSDOF 5
