REMARK  Name = ZINCnE000001Ubnz.0
REMARK                            x       y       z     vdW  Elec       q    Type
REMARK                         _______ _______ _______ _____ _____    ______ ____
ROOT
ATOM      1  O   LIG    1        3.354  -2.546  -1.293  0.00  0.00    -1.010 OA
ATOM      2  S   LIG    1        2.757  -2.844  -0.039  0.00  0.00    +2.600 S 
ATOM      3  O   LIG    1        3.379  -2.558   1.206  0.00  0.00    -1.010 OA
ENDROOT
BRANCH   2   4
ATOM      4  C   LIG    1        2.427  -4.575  -0.044  0.00  0.00    -0.650 A 
ATOM      5  C   LIG    1        2.784  -5.342  -1.137  0.00  0.00    +0.190 A 
ATOM      6  C   LIG    1        2.526  -6.701  -1.144  0.00  0.00    +0.000 A 
ATOM      7  C   LIG    1        1.910  -7.295  -0.056  0.00  0.00    +0.140 A 
ATOM      8  C   LIG    1        1.551  -6.526   1.041  0.00  0.00    +0.010 A 
ATOM      9  F   LIG    1        0.949  -7.104   2.103  0.00  0.00    -0.120 F 
ATOM     10  F   LIG    1        1.659  -8.622  -0.062  0.00  0.00    -0.120 F 
ATOM     11  C   LIG    1        1.815  -5.166   1.048  0.00  0.00    +0.210 A 
ATOM     12  F   LIG    1        1.471  -4.416   2.118  0.00  0.00    -0.090 F 
ENDBRANCH   2   4
BRANCH   2  13
ATOM     13  N   LIG    1        1.295  -2.066  -0.021  0.00  0.00    -1.040 NA
BRANCH  13  14
ATOM     14  C   LIG    1        1.246  -0.673  -0.013  0.00  0.00    +0.320 A 
ATOM     15  C   LIG    1        2.411   0.062  -0.020  0.00  0.00    -0.210 A 
ATOM     16  C   LIG    1        2.377   1.454  -0.013  0.00  0.00    +0.090 A 
ATOM     17  C   LIG    1        1.193   2.125   0.002  0.00  0.00    -0.120 A 
ATOM     18  C   LIG    1       -0.017   1.412   0.010  0.00  0.00    -0.040 A 
ATOM     19  C   LIG    1       -1.258   2.077   0.031  0.00  0.00    +0.030 A 
ATOM     20  C   LIG    1       -2.395   1.319   0.032  0.00  0.00    -0.040 A 
ATOM     21  C   LIG    1       -2.304  -0.070   0.024  0.00  0.00    +0.200 A 
ATOM     22  N   LIG    1       -1.146  -0.685   0.010  0.00  0.00    -0.410 NA
ATOM     23  C   LIG    1        0.002  -0.004   0.002  0.00  0.00    +0.100 A 
ENDBRANCH  13  14
ENDBRANCH   2  13
TORSDOF 3
