REMARK  Name = ZINCqH0000036t6l.0
REMARK                            x       y       z     vdW  Elec       q    Type
REMARK                         _______ _______ _______ _____ _____    ______ ____
ROOT
ATOM      1  S   LIG    1       -1.717  -0.968  -0.054  0.00  0.00    +2.690 S 
ATOM      2  O   LIG    1       -0.877   0.059  -0.565  0.00  0.00    -0.930 OA
ATOM      3  O   LIG    1       -1.291  -2.314   0.102  0.00  0.00    -0.910 OA
ENDROOT
BRANCH   1   4
ATOM      4  C   LIG    1       -3.138  -1.012  -1.094  0.00  0.00    -0.690 A 
ATOM      5  C   LIG    1       -3.208  -0.192  -2.204  0.00  0.00    +0.200 A 
ATOM      6  C   LIG    1       -4.323  -0.227  -3.021  0.00  0.00    -0.180 A 
ATOM      7  C   LIG    1       -5.369  -1.083  -2.728  0.00  0.00    +0.170 A 
ATOM      8  C   LIG    1       -5.300  -1.904  -1.618  0.00  0.00    +0.040 A 
ATOM      9  C   LIG    1       -4.184  -1.869  -0.800  0.00  0.00    +0.080 A 
ATOM     10 CL   LIG    1       -4.094  -2.905   0.590  0.00  0.00    -0.020 Cl
BRANCH   6  11
ATOM     11  C   LIG    1       -4.400   0.668  -4.231  0.00  0.00    +0.510 C 
ATOM     12  F   LIG    1       -3.675   1.840  -3.989  0.00  0.00    -0.170 F 
ATOM     13  F   LIG    1       -5.736   0.990  -4.489  0.00  0.00    -0.170 F 
ATOM     14  F   LIG    1       -3.858   0.004  -5.337  0.00  0.00    -0.170 F 
ENDBRANCH   6  11
ENDBRANCH   1   4
BRANCH   1  15
ATOM     15  N   LIG    1       -2.219  -0.460   1.440  0.00  0.00    -1.050 N 
ATOM     16  H   LIG    1       -2.201  -1.072   2.192  0.00  0.00    +0.440 HD
BRANCH  15  21
ATOM     17  C   LIG    1       -3.745   2.814   0.755  0.00  0.00    -0.640 A 
ATOM     18  C   LIG    1       -3.561   3.450   1.969  0.00  0.00    +0.150 A 
ATOM     19  C   LIG    1       -2.931   2.791   3.010  0.00  0.00    +0.020 A 
ATOM     20  C   LIG    1       -2.484   1.494   2.839  0.00  0.00    +0.140 A 
ATOM     21  C   LIG    1       -2.669   0.852   1.618  0.00  0.00    +0.120 A 
ATOM     22  F   LIG    1       -1.868   0.850   3.855  0.00  0.00    -0.120 F 
ATOM     23  C   LIG    1       -3.297   1.520   0.575  0.00  0.00    +0.090 A 
BRANCH  17  25
ATOM     24  C   LIG    1       -3.201   4.484  -1.460  0.00  0.00    -0.230 C 
ATOM     25  S   LIG    1       -4.547   3.659  -0.566  0.00  0.00    +2.490 S 
ATOM     26  O   LIG    1       -5.375   4.616   0.081  0.00  0.00    -0.930 OA
ATOM     27  O   LIG    1       -5.108   2.620  -1.357  0.00  0.00    -0.930 OA
ENDBRANCH  17  25
ENDBRANCH  15  21
ENDBRANCH   1  15
TORSDOF 5
