REMARK  Name = ZINCrH000004sOlp.0
REMARK                            x       y       z     vdW  Elec       q    Type
REMARK                         _______ _______ _______ _____ _____    ______ ____
ROOT
ATOM      1  C   LIG    1       -3.605   2.422  -0.178  0.00  0.00    -0.040 A 
ATOM      2  C   LIG    1       -4.855   1.823  -0.284  0.00  0.00    -0.010 A 
ATOM      3  C   LIG    1       -4.964   0.448  -0.289  0.00  0.00    +0.060 A 
ATOM      4  C   LIG    1       -3.832  -0.347  -0.195  0.00  0.00    -0.010 A 
ATOM      5  C   LIG    1       -2.584   0.228  -0.095  0.00  0.00    +0.050 A 
ATOM      6  C   LIG    1       -2.456   1.619  -0.088  0.00  0.00    -0.130 A 
ENDROOT
BRANCH   6   7
ATOM      7  C   LIG    1       -1.124   2.240   0.020  0.00  0.00    +0.570 C 
ATOM      8  N   LIG    1       -0.016   1.476  -0.049  0.00  0.00    -0.610 N 
ATOM      9  C   LIG    1        1.372   1.973  -0.062  0.00  0.00    +0.280 C 
ATOM     10  C   LIG    1        2.189   0.850  -0.747  0.00  0.00    +0.100 C 
ATOM     11  C   LIG    1        1.488  -0.422  -0.201  0.00  0.00    +0.080 C 
ATOM     12  C   LIG    1        0.009   0.007  -0.116  0.00  0.00    +0.270 C 
ATOM     13  O   LIG    1       -1.024   3.443   0.170  0.00  0.00    -0.500 OA
BRANCH  11  14
ATOM     14  C   LIG    1        1.657  -1.593  -1.172  0.00  0.00    +0.430 C 
ATOM     15  F   LIG    1        1.090  -1.260  -2.406  0.00  0.00    -0.170 F 
ATOM     16  F   LIG    1        1.017  -2.724  -0.654  0.00  0.00    -0.180 F 
ATOM     17  F   LIG    1        3.019  -1.865  -1.342  0.00  0.00    -0.170 F 
ENDBRANCH  11  14
BRANCH  11  18
ATOM     18  O   LIG    1        1.995  -0.763   1.091  0.00  0.00    -0.510 OA
ATOM     19  H   LIG    1        1.589  -1.552   1.478  0.00  0.00    +0.390 HD
ENDBRANCH  11  18
ENDBRANCH   6   7
BRANCH   1  20
ATOM     20  S   LIG    1       -3.462   4.178  -0.164  0.00  0.00    +0.010 S 
BRANCH  20  21
ATOM     21  C   LIG    1       -5.185   4.729  -0.300  0.00  0.00    +0.120 C 
BRANCH  21  28
ATOM     22  C   LIG    1       -5.465   6.706   2.257  0.00  0.00    +0.170 C 
ATOM     23  C   LIG    1       -5.355   7.103   0.808  0.00  0.00    +0.040 A 
ATOM     24  N   LIG    1       -5.350   8.313   0.329  0.00  0.00    -0.360 NA
ATOM     25  O   LIG    1       -5.253   8.315  -0.876  0.00  0.00    +0.100 OA
ATOM     26  C   LIG    1       -5.174   7.070  -1.366  0.00  0.00    -0.010 A 
ATOM     27  C   LIG    1       -5.046   6.677  -2.815  0.00  0.00    +0.190 C 
ATOM     28  C   LIG    1       -5.233   6.235  -0.301  0.00  0.00    -0.190 A 
ENDBRANCH  21  28
ENDBRANCH  20  21
ENDBRANCH   1  20
TORSDOF 6
