REMARK  Name = ZINCrH00000No4LO.0
REMARK                            x       y       z     vdW  Elec       q    Type
REMARK                         _______ _______ _______ _____ _____    ______ ____
ROOT
ATOM      1  N   LIG    1       -0.698   1.558   1.213  0.00  0.00    -0.540 N 
ENDROOT
BRANCH   1   2
ATOM      2  C   LIG    1       -0.344   2.769   1.781  0.00  0.00    +0.350 A 
ATOM      3  N   LIG    1       -0.861   3.334   2.852  0.00  0.00    -0.560 NA
ATOM      4  C   LIG    1       -0.359   4.492   3.211  0.00  0.00    +0.240 A 
ATOM      5  N   LIG    1        0.596   4.994   2.481  0.00  0.00    -0.480 NA
ATOM      6  S   LIG    1        0.866   3.869   1.237  0.00  0.00    +0.230 S 
BRANCH   4   7
ATOM      7  C   LIG    1       -0.875   5.221   4.424  0.00  0.00    +0.510 C 
ATOM      8  F   LIG    1       -0.687   4.427   5.560  0.00  0.00    -0.180 F 
ATOM      9  F   LIG    1       -2.238   5.489   4.263  0.00  0.00    -0.180 F 
ENDBRANCH   4   7
ENDBRANCH   1   2
BRANCH   1  10
ATOM     10  C   LIG    1       -1.760   0.749   1.817  0.00  0.00    +0.390 C 
BRANCH  10  15
ATOM     11  C   LIG    1        0.495  -2.759   5.686  0.00  0.00    +0.140 C 
ATOM     12  C   LIG    1       -0.105  -1.820   4.671  0.00  0.00    +0.090 A 
ATOM     13  C   LIG    1       -0.140  -2.176   3.335  0.00  0.00    +0.220 A 
ATOM     14  N   LIG    1       -0.666  -1.353   2.445  0.00  0.00    -0.420 NA
ATOM     15  C   LIG    1       -1.159  -0.190   2.832  0.00  0.00    +0.040 A 
ATOM     16  C   LIG    1       -1.120   0.169   4.168  0.00  0.00    +0.260 A 
ATOM     17  N   LIG    1       -0.598  -0.657   5.058  0.00  0.00    -0.440 NA
ENDBRANCH  10  15
ENDBRANCH   1  10
BRANCH   1  18
ATOM     18  C   LIG    1       -0.013   1.086   0.008  0.00  0.00    +0.400 C 
BRANCH  18  19
ATOM     19  C   LIG    1       -0.742   1.585  -1.213  0.00  0.00    -0.280 A 
ATOM     20  C   LIG    1       -1.742   0.944  -1.860  0.00  0.00    +0.260 A 
ATOM     21  N   LIG    1       -2.126   1.720  -2.896  0.00  0.00    -0.350 N 
ATOM     22  N   LIG    1       -1.328   2.872  -2.890  0.00  0.00    -0.280 NA
ATOM     23  C   LIG    1       -0.499   2.790  -1.881  0.00  0.00    +0.240 A 
BRANCH  21  24
ATOM     24  C   LIG    1       -3.185   1.410  -3.859  0.00  0.00    +0.180 C 
ATOM     25  C   LIG    1       -3.055  -0.046  -4.309  0.00  0.00    +0.060 C 
ATOM     26  C   LIG    1       -3.056   2.332  -5.073  0.00  0.00    +0.060 C 
ATOM     27  C   LIG    1       -4.550   1.621  -3.201  0.00  0.00    +0.050 C 
ENDBRANCH  21  24
ENDBRANCH  18  19
ENDBRANCH   1  18
TORSDOF 7
