REMARK  Name = ZINCpe00000VVGgj.0
REMARK                            x       y       z     vdW  Elec       q    Type
REMARK                         _______ _______ _______ _____ _____    ______ ____
ROOT
ATOM      1  C   LIG    1        5.747  -0.746  -1.373  0.00  0.00    +0.520 C 
ATOM      2  N   LIG    1        4.779  -0.083  -0.710  0.00  0.00    -0.710 N 
ATOM      3  H   LIG    1        4.675   0.874  -0.832  0.00  0.00    +0.410 HD
ATOM      4  O   LIG    1        5.877  -1.942  -1.221  0.00  0.00    -0.520 OA
ENDROOT
BRANCH   1   5
ATOM      5  C   LIG    1        6.669  -0.000  -2.304  0.00  0.00    +0.210 C 
BRANCH   5   6
ATOM      6  N   LIG    1        7.692  -0.920  -2.820  0.00  0.00    -0.500 NA
BRANCH   6   8
ATOM      7  C   LIG    1        8.387   0.916  -4.284  0.00  0.00    -0.010 C 
ATOM      8  C   LIG    1        8.856  -0.181  -3.327  0.00  0.00    +0.170 C 
ATOM      9  C   LIG    1        9.608   0.452  -2.154  0.00  0.00    +0.040 C 
ENDBRANCH   6   8
BRANCH   6  10
ATOM     10  C   LIG    1        7.135  -1.799  -3.856  0.00  0.00    +0.200 C 
BRANCH  10  11
ATOM     11  C   LIG    1        8.131  -2.881  -4.185  0.00  0.00    +0.520 C 
ATOM     12  O   LIG    1        9.199  -2.917  -3.613  0.00  0.00    -0.520 OA
ATOM     13  N   LIG    1        7.834  -3.810  -5.116  0.00  0.00    -0.860 N 
ATOM     14  H   LIG    1        8.475  -4.507  -5.327  0.00  0.00    +0.400 HD
ATOM     15  H   LIG    1        6.979  -3.782  -5.573  0.00  0.00    +0.400 HD
ENDBRANCH  10  11
ENDBRANCH   6  10
ENDBRANCH   5   6
ENDBRANCH   1   5
BRANCH   2  16
ATOM     16  C   LIG    1        3.883  -0.807   0.194  0.00  0.00    +0.390 C 
BRANCH  16  17
ATOM     17  C   LIG    1        4.529  -0.928   1.551  0.00  0.00    +0.190 A 
ATOM     18  N   LIG    1        5.145   0.030   2.188  0.00  0.00    -0.470 NA
ATOM     19  C   LIG    1        5.590  -0.436   3.364  0.00  0.00    +0.140 A 
ATOM     20  C   LIG    1        5.244  -1.734   3.456  0.00  0.00    +0.130 A 
ATOM     21  N   LIG    1        4.571  -2.047   2.306  0.00  0.00    -0.450 N 
ATOM     22  C   LIG    1        4.001  -3.351   1.959  0.00  0.00    +0.320 C 
ENDBRANCH  16  17
BRANCH  16  23
ATOM     23  C   LIG    1        2.583  -0.056   0.322  0.00  0.00    -0.090 A 
ATOM     24  C   LIG    1        1.386  -0.747   0.356  0.00  0.00    +0.010 A 
ATOM     25  C   LIG    1        0.193  -0.057   0.473  0.00  0.00    +0.010 A 
ATOM     26  C   LIG    1        0.198   1.322   0.557  0.00  0.00    +0.010 A 
ATOM     27  C   LIG    1        1.395   2.013   0.523  0.00  0.00    +0.010 A 
ATOM     28  C   LIG    1        2.587   1.324   0.405  0.00  0.00    +0.040 A 
ENDBRANCH  16  23
ENDBRANCH   2  16
TORSDOF 8
