REMARK  Name = ZINCb80000003VPz.0
REMARK                            x       y       z     vdW  Elec       q    Type
REMARK                         _______ _______ _______ _____ _____    ______ ____
ROOT
ATOM      1  C   LIG    1        1.699   1.848   1.505  0.00  0.00    +0.230 C 
ATOM      2  C   LIG    1        1.428   1.647  -0.003  0.00  0.00    +0.070 C 
ATOM      3  C   LIG    1       -0.013   1.086   0.008  0.00  0.00    +0.170 C 
ATOM      4  C   LIG    1       -0.601   1.600   1.303  0.00  0.00    +0.490 C 
ATOM      5  O   LIG    1       -1.785   1.626   1.566  0.00  0.00    -0.530 OA
ATOM      6  N   LIG    1        0.378   2.025   2.120  0.00  0.00    -0.720 N 
ATOM      7  H   LIG    1        0.231   2.401   3.002  0.00  0.00    +0.410 HD
ENDROOT
BRANCH   1   9
ATOM      8  C   LIG    1        1.825   4.322   1.181  0.00  0.00    +0.030 C 
ATOM      9  C   LIG    1        2.558   3.095   1.726  0.00  0.00    -0.080 C 
ATOM     10  C   LIG    1        3.892   2.932   0.996  0.00  0.00    +0.040 C 
ATOM     11  C   LIG    1        2.815   3.277   3.224  0.00  0.00    +0.020 C 
ENDBRANCH   1   9
BRANCH   3  12
ATOM     12  O   LIG    1       -0.750   1.581  -1.111  0.00  0.00    -0.540 OA
ATOM     13  H   LIG    1       -1.670   1.283  -1.139  0.00  0.00    +0.390 HD
ENDBRANCH   3  12
TORSDOF 2
