REMARK  Name = ZINCrg000000rSR4.0
REMARK                            x       y       z     vdW  Elec       q    Type
REMARK                         _______ _______ _______ _____ _____    ______ ____
ROOT
ATOM      1  C   LIG    1        5.992   8.685   1.478  0.00  0.00    +0.100 C 
ATOM      2  C   LIG    1        5.810   7.169   1.371  0.00  0.00    +0.170 C 
ATOM      3  N   LIG    1        6.400   6.664   0.119  0.00  0.00    -0.720 N 
ATOM      4  H   LIG    1        7.332   6.716  -0.145  0.00  0.00    +0.440 HD
ATOM      5  C   LIG    1        5.394   6.116  -0.587  0.00  0.00    +0.710 C 
ATOM      6  N   LIG    1        4.219   6.200   0.048  0.00  0.00    -0.560 N 
ATOM      7  O   LIG    1        5.537   5.602  -1.679  0.00  0.00    -0.530 OA
ATOM      8  C   LIG    1        4.341   6.821   1.238  0.00  0.00    +0.540 C 
ATOM      9  O   LIG    1        3.459   7.050   2.037  0.00  0.00    -0.430 OA
ENDROOT
BRANCH   2  10
ATOM     10  C   LIG    1        6.421   6.478   2.562  0.00  0.00    -0.090 A 
ATOM     11  C   LIG    1        7.413   5.533   2.378  0.00  0.00    +0.070 A 
ATOM     12  C   LIG    1        7.979   4.902   3.471  0.00  0.00    +0.050 A 
ATOM     13  C   LIG    1        7.543   5.208   4.748  0.00  0.00    -0.010 A 
ATOM     14  C   LIG    1        6.546   6.149   4.932  0.00  0.00    +0.050 A 
ATOM     15 CL   LIG    1        8.249   4.411   6.120  0.00  0.00    -0.050 Cl
ATOM     16  C   LIG    1        5.985   6.784   3.839  0.00  0.00    -0.010 A 
ATOM     17 CL   LIG    1        4.734   7.966   4.069  0.00  0.00    -0.020 Cl
ENDBRANCH   2  10
BRANCH   6  18
ATOM     18  C   LIG    1        2.956   5.687  -0.488  0.00  0.00    +0.360 C 
BRANCH  18  19
ATOM     19  C   LIG    1        2.768   4.258  -0.050  0.00  0.00    +0.500 C 
ATOM     20  N   LIG    1        1.668   3.576  -0.426  0.00  0.00    -0.710 N 
ATOM     21  H   LIG    1        0.997   4.006  -0.979  0.00  0.00    +0.410 HD
ATOM     22  O   LIG    1        3.607   3.720   0.642  0.00  0.00    -0.520 OA
BRANCH  20  23
ATOM     23  C   LIG    1        1.486   2.187  -0.000  0.00  0.00    +0.270 C 
ATOM     24  C   LIG    1        2.156   1.235  -1.007  0.00  0.00    +0.060 C 
ATOM     25  C   LIG    1        1.667  -0.201  -0.731  0.00  0.00    -0.310 C 
ATOM     26  S   LIG    1        0.002  -0.004   0.002  0.00  0.00    +2.400 S 
ATOM     27  O   LIG    1       -0.977  -0.483  -0.910  0.00  0.00    -0.930 OA
ATOM     28  O   LIG    1        0.017  -0.482   1.340  0.00  0.00    -0.930 OA
ATOM     29  C   LIG    1       -0.023   1.829   0.012  0.00  0.00    -0.310 C 
ENDBRANCH  20  23
ENDBRANCH  18  19
ENDBRANCH   6  18
TORSDOF 4
