REMARK  Name = ZINCpe00000zt59y.0
REMARK                            x       y       z     vdW  Elec       q    Type
REMARK                         _______ _______ _______ _____ _____    ______ ____
ROOT
ATOM      1  N   LIG    1       -0.923  -2.709   1.356  0.00  0.00    -0.570 N 
ATOM      2  C   LIG    1       -1.886  -2.975   2.260  0.00  0.00    +0.520 C 
ATOM      3  C   LIG    1       -1.161  -3.456   3.502  0.00  0.00    +0.310 C 
ATOM      4  N   LIG    1        0.259  -3.400   3.116  0.00  0.00    -0.620 N 
ATOM      5  O   LIG    1       -3.083  -2.853   2.112  0.00  0.00    -0.470 OA
ATOM      6  C   LIG    1        0.297  -2.957   1.847  0.00  0.00    +0.690 C 
ATOM      7  O   LIG    1        1.324  -2.798   1.217  0.00  0.00    -0.500 OA
ENDROOT
BRANCH   1   8
ATOM      8  C   LIG    1       -1.180  -2.215   0.001  0.00  0.00    +0.380 C 
BRANCH   8  15
ATOM      9  O   LIG    1        3.300   0.693  -0.025  0.00  0.00    -0.480 OA
ATOM     10  C   LIG    1        2.085   0.701  -0.014  0.00  0.00    +0.640 A 
ATOM     11  N   LIG    1        1.314   1.807  -0.001  0.00  0.00    -0.650 N 
ATOM     12  H   LIG    1        1.628   2.725   0.001  0.00  0.00    +0.440 HD
ATOM     13  C   LIG    1       -0.017   1.390   0.010  0.00  0.00    +0.060 A 
ATOM     14  C   LIG    1        0.002  -0.004   0.002  0.00  0.00    +0.060 A 
ATOM     15  C   LIG    1       -1.192  -0.708   0.010  0.00  0.00    -0.080 A 
ATOM     16  C   LIG    1       -2.393  -0.026   0.025  0.00  0.00    +0.070 A 
ATOM     17  C   LIG    1       -2.411   1.358   0.032  0.00  0.00    +0.040 A 
ATOM     18  C   LIG    1       -1.226   2.068   0.030  0.00  0.00    +0.050 A 
ATOM     19  O   LIG    1        1.302  -0.389  -0.013  0.00  0.00    -0.210 OA
ENDBRANCH   8  15
ENDBRANCH   1   8
BRANCH   4  20
ATOM     20  C   LIG    1        1.408  -3.761   3.952  0.00  0.00    +0.460 C 
BRANCH  20  21
ATOM     21  C   LIG    1        1.726  -5.222   3.765  0.00  0.00    +0.290 A 
ATOM     22  N   LIG    1        1.152  -6.109   4.553  0.00  0.00    -0.510 NA
ATOM     23  C   LIG    1        1.403  -7.401   4.415  0.00  0.00    +0.320 A 
ATOM     24  C   LIG    1        2.289  -7.814   3.433  0.00  0.00    -0.070 A 
ATOM     25  C   LIG    1        2.877  -6.852   2.627  0.00  0.00    +0.320 A 
ATOM     26  N   LIG    1        2.573  -5.578   2.821  0.00  0.00    -0.490 NA
ENDBRANCH  20  21
ENDBRANCH   4  20
TORSDOF 4
