REMARK  Name = ZINCqH0000006maN.0
REMARK                            x       y       z     vdW  Elec       q    Type
REMARK                         _______ _______ _______ _____ _____    ______ ____
ROOT
ATOM      1  N   LIG    1       -1.615   2.534   0.303  0.00  0.00    -0.700 N 
ATOM      2  H   LIG    1       -2.525   2.687   0.005  0.00  0.00    +0.410 HD
ATOM      3  C   LIG    1       -1.194   1.281   0.567  0.00  0.00    +0.610 C 
ATOM      4  O   LIG    1       -0.052   1.088   0.935  0.00  0.00    -0.540 OA
ENDROOT
BRANCH   3   5
ATOM      5  C   LIG    1       -2.121   0.142   0.409  0.00  0.00    -0.020 A 
ATOM      6  N   LIG    1       -3.379   0.202   0.019  0.00  0.00    -0.250 NA
ATOM      7  N   LIG    1       -3.889  -0.976  -0.009  0.00  0.00    -0.270 N 
ATOM      8  C   LIG    1       -2.972  -1.891   0.370  0.00  0.00    +0.020 A 
ATOM      9  C   LIG    1       -1.826  -1.222   0.641  0.00  0.00    -0.010 A 
BRANCH   7  10
ATOM     10  C   LIG    1       -5.269  -1.283  -0.396  0.00  0.00    +0.170 C 
ATOM     11  C   LIG    1       -5.943  -2.088   0.717  0.00  0.00    +0.060 C 
ATOM     12  C   LIG    1       -5.265  -2.103  -1.688  0.00  0.00    +0.050 C 
ATOM     13  C   LIG    1       -6.037   0.020  -0.621  0.00  0.00    +0.070 C 
ENDBRANCH   7  10
BRANCH   8  14
ATOM     14  C   LIG    1       -3.181  -3.381   0.467  0.00  0.00    +0.060 C 
ATOM     15  C   LIG    1       -3.526  -3.754   1.910  0.00  0.00    +0.040 C 
ATOM     16  C   LIG    1       -1.901  -4.104   0.045  0.00  0.00    +0.040 C 
ENDBRANCH   8  14
ENDBRANCH   3   5
BRANCH   1  17
ATOM     17  C   LIG    1       -0.695   3.663   0.460  0.00  0.00    +0.260 C 
BRANCH  17  18
ATOM     18  C   LIG    1       -0.700   4.126   1.918  0.00  0.00    +0.170 C 
BRANCH  18  20
ATOM     19  C   LIG    1       -2.104   5.103   3.597  0.00  0.00    +0.200 C 
ATOM     20  O   LIG    1       -1.992   4.641   2.250  0.00  0.00    -0.390 OA
ENDBRANCH  18  20
ENDBRANCH  17  18
BRANCH  17  21
ATOM     21  C   LIG    1       -1.143   4.815  -0.443  0.00  0.00    +0.100 C 
BRANCH  21  22
ATOM     22  C   LIG    1       -1.021   4.399  -1.886  0.00  0.00    -0.080 A 
ATOM     23  C   LIG    1        0.155   4.630  -2.575  0.00  0.00    +0.000 A 
ATOM     24  C   LIG    1        0.269   4.244  -3.897  0.00  0.00    +0.000 A 
ATOM     25  C   LIG    1       -0.797   3.637  -4.534  0.00  0.00    +0.000 A 
ATOM     26  C   LIG    1       -1.975   3.410  -3.847  0.00  0.00    +0.000 A 
ATOM     27  C   LIG    1       -2.087   3.791  -2.523  0.00  0.00    +0.010 A 
ENDBRANCH  21  22
ENDBRANCH  17  21
ENDBRANCH   1  17
TORSDOF 8
