REMARK  Name = ZINCqH00000045Pr.0
REMARK                            x       y       z     vdW  Elec       q    Type
REMARK                         _______ _______ _______ _____ _____    ______ ____
ROOT
ATOM      1  C   LIG    1       -2.155   2.979   2.543  0.00  0.00    +0.290 C 
ENDROOT
BRANCH   1   2
ATOM      2  N   LIG    1       -1.583   2.585   1.253  0.00  0.00    -0.590 N 
ATOM      3  C   LIG    1       -2.015   3.310   0.064  0.00  0.00    +0.260 C 
ATOM      4  C   LIG    1       -1.014   3.113  -1.075  0.00  0.00    +0.030 C 
ATOM      5  C   LIG    1       -0.748   1.613  -1.242  0.00  0.00    +0.030 C 
ATOM      6  C   LIG    1       -0.001   1.113  -0.002  0.00  0.00    +0.070 C 
ATOM      7  C   LIG    1       -0.702   1.586   1.239  0.00  0.00    +0.530 C 
ATOM      8  O   LIG    1       -0.451   1.030   2.287  0.00  0.00    -0.530 OA
ENDBRANCH   1   2
BRANCH   1   9
ATOM      9  C   LIG    1       -1.043   3.293   3.511  0.00  0.00    -0.090 A 
ATOM     10  C   LIG    1       -0.195   4.357   3.268  0.00  0.00    +0.020 A 
ATOM     11  C   LIG    1        0.822   4.647   4.159  0.00  0.00    +0.000 A 
ATOM     12  C   LIG    1        0.997   3.867   5.286  0.00  0.00    +0.010 A 
ATOM     13  C   LIG    1        0.152   2.799   5.526  0.00  0.00    +0.000 A 
ATOM     14  C   LIG    1       -0.868   2.512   4.638  0.00  0.00    +0.040 A 
ENDBRANCH   1   9
BRANCH   1  17
ATOM     15  N   LIG    1       -3.620   1.988   4.271  0.00  0.00    -0.730 N 
ATOM     16  H   LIG    1       -3.534   2.814   4.773  0.00  0.00    +0.400 HD
ATOM     17  C   LIG    1       -2.992   1.851   3.087  0.00  0.00    +0.520 C 
ATOM     18  O   LIG    1       -3.100   0.819   2.459  0.00  0.00    -0.500 OA
BRANCH  15  19
ATOM     19  C   LIG    1       -4.434   0.891   4.801  0.00  0.00    +0.350 C 
BRANCH  19  20
ATOM     20  C   LIG    1       -4.511   1.001   6.301  0.00  0.00    +0.040 A 
ATOM     21  N   LIG    1       -4.368   0.017   7.123  0.00  0.00    -0.460 NA
ATOM     22  C   LIG    1       -4.462   0.289   8.409  0.00  0.00    +0.070 A 
ATOM     23  C   LIG    1       -4.707   1.573   8.688  0.00  0.00    -0.070 A 
ATOM     24  C   LIG    1       -4.312  -0.763   9.478  0.00  0.00    +0.160 C 
ATOM     25  S   LIG    1       -4.809   2.449   7.162  0.00  0.00    +0.130 S 
ENDBRANCH  19  20
BRANCH  19  27
ATOM     26  C   LIG    1       -5.777   0.733   2.700  0.00  0.00    +0.030 C 
ATOM     27  C   LIG    1       -5.843   0.970   4.210  0.00  0.00    +0.020 C 
ENDBRANCH  19  27
ENDBRANCH  15  19
ENDBRANCH   1  17
TORSDOF 6
