REMARK  Name = ZINCqH0000031XuH.0
REMARK                            x       y       z     vdW  Elec       q    Type
REMARK                         _______ _______ _______ _____ _____    ______ ____
ROOT
ATOM      1  C   LIG    1        1.164   3.174   0.014  0.00  0.00    +0.160 A 
ATOM      2  C   LIG    1        1.170   1.785   0.004  0.00  0.00    +0.030 A 
ATOM      3  C   LIG    1       -0.022   1.084   0.018  0.00  0.00    +0.040 A 
ATOM      4  C   LIG    1       -1.225   1.759   0.037  0.00  0.00    +0.030 A 
ATOM      5  C   LIG    1       -1.242   3.155   0.054  0.00  0.00    -0.110 A 
ATOM      6  C   LIG    1       -0.040   3.862   0.039  0.00  0.00    +0.110 A 
ENDROOT
BRANCH   1   8
ATOM      7  C   LIG    1        2.463   5.049  -0.665  0.00  0.00    +0.650 C 
ATOM      8  N   LIG    1        2.373   3.880  -0.000  0.00  0.00    -0.650 N 
ATOM      9  H   LIG    1        3.146   3.527   0.468  0.00  0.00    +0.420 HD
ATOM     10  O   LIG    1        1.475   5.532  -1.180  0.00  0.00    -0.540 OA
BRANCH   7  11
ATOM     11  O   LIG    1        3.648   5.681  -0.757  0.00  0.00    -0.360 OA
BRANCH  11  13
ATOM     12  C   LIG    1        2.724   7.933  -0.817  0.00  0.00    +0.030 C 
ATOM     13  C   LIG    1        3.671   6.935  -1.488  0.00  0.00    +0.140 C 
ATOM     14  C   LIG    1        3.220   6.694  -2.930  0.00  0.00    +0.030 C 
ATOM     15  C   LIG    1        5.093   7.501  -1.486  0.00  0.00    +0.080 C 
ENDBRANCH  11  13
ENDBRANCH   7  11
ENDBRANCH   1   8
BRANCH   5  16
ATOM     16  C   LIG    1       -2.529   3.881   0.081  0.00  0.00    +0.570 C 
ATOM     17  N   LIG    1       -3.689   3.195   0.095  0.00  0.00    -0.510 N 
ATOM     18  H   LIG    1       -3.680   2.225   0.087  0.00  0.00    +0.430 HD
ATOM     19  O   LIG    1       -2.542   5.097   0.090  0.00  0.00    -0.510 OA
BRANCH  17  20
ATOM     20  N   LIG    1       -4.910   3.884   0.120  0.00  0.00    -0.300 N 
ATOM     21  C   LIG    1       -5.074   5.234   0.132  0.00  0.00    +0.520 A 
ATOM     22  N   LIG    1       -6.340   5.530   0.155  0.00  0.00    -0.490 NA
ATOM     23  C   LIG    1       -7.076   4.389   0.159  0.00  0.00    +0.060 A 
ATOM     24  C   LIG    1       -8.448   4.128   0.179  0.00  0.00    +0.070 A 
ATOM     25  C   LIG    1       -8.896   2.837   0.177  0.00  0.00    +0.010 A 
ATOM     26  C   LIG    1       -8.000   1.778   0.155  0.00  0.00    +0.030 A 
ATOM     27  C   LIG    1       -6.641   2.012   0.134  0.00  0.00    +0.010 A 
ATOM     28  C   LIG    1       -6.169   3.317   0.131  0.00  0.00    +0.030 A 
ENDBRANCH  17  20
ENDBRANCH   5  16
TORSDOF 5
