REMARK  Name = ZINCqH0000008r19.0
REMARK                            x       y       z     vdW  Elec       q    Type
REMARK                         _______ _______ _______ _____ _____    ______ ____
ROOT
ATOM      1  N   LIG    1       -1.656   2.130   6.063  0.00  0.00    -0.700 N 
ATOM      2  H   LIG    1       -2.074   2.460   5.252  0.00  0.00    +0.410 HD
ATOM      3  C   LIG    1       -0.573   1.332   5.986  0.00  0.00    +0.570 C 
ATOM      4  O   LIG    1       -0.050   0.918   7.002  0.00  0.00    -0.490 OA
ENDROOT
BRANCH   3   5
ATOM      5  C   LIG    1       -0.018   0.959   4.662  0.00  0.00    +0.170 A 
ATOM      6  N   LIG    1       -0.582   1.407   3.542  0.00  0.00    -0.500 NA
ATOM      7  C   LIG    1       -0.090   1.077   2.360  0.00  0.00    +0.500 A 
ATOM      8  N   LIG    1        0.971   0.291   2.240  0.00  0.00    -0.520 NA
ATOM      9  C   LIG    1        1.587  -0.187   3.307  0.00  0.00    +0.390 A 
ATOM     10  C   LIG    1        1.104   0.134   4.570  0.00  0.00    -0.130 A 
ATOM     11 CL   LIG    1        1.879  -0.477   5.999  0.00  0.00    +0.000 Cl
BRANCH   7  12
ATOM     12  N   LIG    1       -0.703   1.561   1.216  0.00  0.00    -0.460 N 
ATOM     13  C   LIG    1       -0.013   1.086   0.008  0.00  0.00    +0.200 C 
ATOM     14  C   LIG    1       -0.755   1.594  -1.231  0.00  0.00    +0.230 C 
ATOM     15  O   LIG    1       -0.837   3.021  -1.180  0.00  0.00    -0.380 OA
ATOM     16  C   LIG    1       -1.504   3.518  -0.017  0.00  0.00    +0.240 C 
ATOM     17  C   LIG    1       -0.769   3.029   1.235  0.00  0.00    +0.200 C 
ENDBRANCH   7  12
ENDBRANCH   3   5
BRANCH   1  19
ATOM     18  C   LIG    1       -3.159   1.402   7.851  0.00  0.00    +0.040 C 
ATOM     19  C   LIG    1       -2.204   2.498   7.371  0.00  0.00    +0.290 C 
BRANCH  19  20
ATOM     20  C   LIG    1       -2.953   3.800   7.253  0.00  0.00    -0.080 A 
ATOM     21  C   LIG    1       -2.853   4.747   8.255  0.00  0.00    +0.050 A 
ATOM     22  C   LIG    1       -3.539   5.942   8.149  0.00  0.00    +0.060 A 
ATOM     23  C   LIG    1       -4.326   6.191   7.039  0.00  0.00    -0.030 A 
ATOM     24  C   LIG    1       -4.426   5.243   6.035  0.00  0.00    -0.030 A 
ATOM     25 CL   LIG    1       -5.413   5.554   4.641  0.00  0.00    -0.040 Cl
ATOM     26 CL   LIG    1       -5.187   7.693   6.904  0.00  0.00    -0.040 Cl
ATOM     27  C   LIG    1       -3.735   4.050   6.141  0.00  0.00    +0.050 A 
ENDBRANCH  19  20
ENDBRANCH   1  19
TORSDOF 4
