REMARK  Name = ZINCkj000005hXlW.0
REMARK                            x       y       z     vdW  Elec       q    Type
REMARK                         _______ _______ _______ _____ _____    ______ ____
ROOT
ATOM      1  N   LIG    1        4.848   4.805   0.681  0.00  0.00    -0.370 N 
ATOM      2  C   LIG    1        5.292   3.754  -0.255  0.00  0.00    +0.270 C 
ATOM      3  C   LIG    1        4.336   2.654  -0.377  0.00  0.00    +0.070 C 
ATOM      4  C   LIG    1        2.978   3.146  -0.926  0.00  0.00    +0.210 C 
ATOM      5  N   LIG    1        2.258   3.820   0.130  0.00  0.00    -0.500 N 
ATOM      6  C   LIG    1        2.475   5.283   0.187  0.00  0.00    +0.240 C 
ATOM      7  C   LIG    1        3.945   5.685  -0.023  0.00  0.00    +0.270 C 
ATOM      8  H   LIG    1        4.372   4.384   1.465  0.00  0.00    +0.430 HD
ENDROOT
BRANCH   5   9
ATOM      9  C   LIG    1        0.901   3.518   0.079  0.00  0.00    +0.280 A 
ATOM     10  N   LIG    1        0.015   4.497  -0.008  0.00  0.00    -0.490 NA
ATOM     11  C   LIG    1       -1.282   4.255  -0.059  0.00  0.00    +0.290 A 
ATOM     12  C   LIG    1       -1.763   2.962  -0.022  0.00  0.00    +0.000 A 
ATOM     13  C   LIG    1       -0.868   1.904   0.069  0.00  0.00    +0.080 A 
ATOM     14  C   LIG    1        0.486   2.189   0.121  0.00  0.00    +0.040 A 
ATOM     15  F   LIG    1        1.393   1.191   0.209  0.00  0.00    -0.120 F 
ENDBRANCH   5   9
BRANCH   1  16
ATOM     16  C   LIG    1        6.010   5.567   1.158  0.00  0.00    +0.320 C 
BRANCH  16  17
ATOM     17  C   LIG    1        6.800   6.096  -0.041  0.00  0.00    +0.310 C 
BRANCH  17  19
ATOM     18  C   LIG    1        8.487   5.338  -1.565  0.00  0.00    +0.230 C 
ATOM     19  O   LIG    1        7.347   4.998  -0.773  0.00  0.00    -0.400 OA
ENDBRANCH  17  19
BRANCH  17  20
ATOM     20  O   LIG    1        5.930   6.848  -0.890  0.00  0.00    -0.400 OA
ATOM     21  C   LIG    1        6.611   7.634  -1.871  0.00  0.00    +0.240 C 
ENDBRANCH  17  20
ENDBRANCH  16  17
ENDBRANCH   1  16
TORSDOF 5
