REMARK  Name = ZINCkj000005hXlW.1
REMARK                            x       y       z     vdW  Elec       q    Type
REMARK                         _______ _______ _______ _____ _____    ______ ____
ROOT
ATOM      1  N   LIG    1       -4.104   3.812  -0.782  0.00  0.00    -0.370 N 
ATOM      2  C   LIG    1       -4.951   2.877  -0.083  0.00  0.00    +0.250 C 
ATOM      3  C   LIG    1       -4.442   2.754   1.366  0.00  0.00    +0.080 C 
ATOM      4  C   LIG    1       -3.299   1.853   1.479  0.00  0.00    +0.210 C 
ATOM      5  N   LIG    1       -2.147   2.327   0.671  0.00  0.00    -0.490 N 
ATOM      6  C   LIG    1       -2.353   2.002  -0.719  0.00  0.00    +0.220 C 
ATOM      7  C   LIG    1       -3.005   3.144  -1.518  0.00  0.00    +0.290 C 
ATOM      8  H   LIG    1       -3.704   4.453  -0.113  0.00  0.00    +0.430 HD
ENDROOT
BRANCH   5   9
ATOM      9  C   LIG    1       -0.954   1.785   1.139  0.00  0.00    +0.270 A 
ATOM     10  N   LIG    1        0.040   2.587   1.485  0.00  0.00    -0.430 NA
ATOM     11  C   LIG    1        1.190   2.114   1.929  0.00  0.00    +0.290 A 
ATOM     12  C   LIG    1        1.399   0.755   2.047  0.00  0.00    +0.030 A 
ATOM     13  C   LIG    1        0.382  -0.123   1.694  0.00  0.00    +0.050 A 
ATOM     14  C   LIG    1       -0.813   0.402   1.232  0.00  0.00    +0.020 A 
ATOM     15  F   LIG    1       -1.829  -0.415   0.878  0.00  0.00    -0.130 F 
ENDBRANCH   5   9
BRANCH   1  16
ATOM     16  C   LIG    1       -4.922   4.571  -1.736  0.00  0.00    +0.310 C 
BRANCH  16  17
ATOM     17  C   LIG    1       -4.064   5.652  -2.396  0.00  0.00    +0.310 C 
BRANCH  17  19
ATOM     18  C   LIG    1       -3.258   7.848  -1.874  0.00  0.00    +0.240 C 
ATOM     19  O   LIG    1       -3.557   6.536  -1.394  0.00  0.00    -0.400 OA
ENDBRANCH  17  19
BRANCH  17  20
ATOM     20  O   LIG    1       -2.973   5.039  -3.087  0.00  0.00    -0.400 OA
ATOM     21  C   LIG    1       -2.293   5.912  -3.991  0.00  0.00    +0.240 C 
ENDBRANCH  17  20
ENDBRANCH  16  17
ENDBRANCH   1  16
TORSDOF 5
