REMARK  Name = ZINCrD000000fKYV.0
REMARK                            x       y       z     vdW  Elec       q    Type
REMARK                         _______ _______ _______ _____ _____    ______ ____
ROOT
ATOM      1  C   LIG    1        2.495   1.054   0.006  0.00  0.00    +0.540 C 
ATOM      2  N   LIG    1        2.381  -0.133  -0.852  0.00  0.00    -0.750 N 
ATOM      3  H   LIG    1        2.297  -1.018  -0.465  0.00  0.00    +0.410 HD
ATOM      4  C   LIG    1        2.398   0.041  -2.231  0.00  0.00    +0.230 A 
ATOM      5  C   LIG    1        1.733  -0.819  -3.086  0.00  0.00    -0.050 A 
ATOM      6  C   LIG    1        1.778  -0.598  -4.450  0.00  0.00    +0.070 A 
ATOM      7  C   LIG    1        2.482   0.478  -4.966  0.00  0.00    -0.040 A 
ATOM      8  C   LIG    1        3.153   1.344  -4.127  0.00  0.00    +0.110 A 
ATOM      9  C   LIG    1        3.119   1.131  -2.752  0.00  0.00    -0.190 A 
ATOM     10  C   LIG    1        3.825   2.019  -1.811  0.00  0.00    +0.580 C 
ATOM     11  O   LIG    1        4.653   2.812  -2.218  0.00  0.00    -0.510 OA
ATOM     12  N   LIG    1        3.542   1.941  -0.498  0.00  0.00    -0.620 N 
ENDROOT
BRANCH   1  16
ATOM     13  C   LIG    1       -1.235   3.140   0.035  0.00  0.00    +0.150 A 
ATOM     14  C   LIG    1       -1.209   1.764  -0.151  0.00  0.00    -0.020 A 
ATOM     15  C   LIG    1       -0.002   1.092  -0.154  0.00  0.00    +0.060 A 
ATOM     16  C   LIG    1        1.180   1.789   0.016  0.00  0.00    -0.140 A 
ATOM     17  C   LIG    1        1.157   3.160   0.197  0.00  0.00    +0.050 A 
ATOM     18  C   LIG    1       -0.046   3.837   0.206  0.00  0.00    +0.010 A 
BRANCH  13  21
ATOM     19  C   LIG    1       -3.814   5.857  -0.326  0.00  0.00    +0.110 C 
ATOM     20  C   LIG    1       -2.530   5.078  -0.443  0.00  0.00    +0.510 C 
ATOM     21  N   LIG    1       -2.456   3.823   0.043  0.00  0.00    -0.680 N 
ATOM     22  H   LIG    1       -3.250   3.394   0.400  0.00  0.00    +0.410 HD
ATOM     23  O   LIG    1       -1.562   5.580  -0.976  0.00  0.00    -0.520 OA
ENDBRANCH  13  21
ENDBRANCH   1  16
BRANCH  12  24
ATOM     24  C   LIG    1        4.301   2.766   0.446  0.00  0.00    +0.310 C 
BRANCH  24  25
ATOM     25  C   LIG    1        5.534   1.994   0.921  0.00  0.00    +0.130 C 
ATOM     26  C   LIG    1        6.281   2.794   2.011  0.00  0.00    +0.010 C 
ATOM     27  C   LIG    1        7.774   2.520   1.720  0.00  0.00    +0.010 C 
ATOM     28  C   LIG    1        7.751   1.587   0.489  0.00  0.00    +0.190 C 
ATOM     29  O   LIG    1        6.487   1.857  -0.155  0.00  0.00    -0.350 OA
ENDBRANCH  24  25
ENDBRANCH  12  24
TORSDOF 4
