REMARK  Name = ZINCnE000001QD17.1
REMARK                            x       y       z     vdW  Elec       q    Type
REMARK                         _______ _______ _______ _____ _____    ______ ____
ROOT
ATOM      1  C   LIG    1       -3.814   1.681   0.029  0.00  0.00    +0.180 C 
ENDROOT
BRANCH   1   2
ATOM      2  C   LIG    1       -4.946   0.686   0.029  0.00  0.00    +0.190 A 
ATOM      3  N   LIG    1       -5.520   0.173   1.081  0.00  0.00    -0.290 NA
ATOM      4  N   LIG    1       -6.448  -0.638   0.713  0.00  0.00    -0.270 NA
ATOM      5  C   LIG    1       -6.498  -0.671  -0.598  0.00  0.00    +0.190 A 
ATOM      6  O   LIG    1       -5.551   0.173  -1.056  0.00  0.00    -0.220 OA
BRANCH   5   7
ATOM      7  C   LIG    1       -7.425  -1.477  -1.421  0.00  0.00    -0.020 A 
ATOM      8  C   LIG    1       -7.369  -1.406  -2.813  0.00  0.00    +0.040 A 
ATOM      9  C   LIG    1       -8.233  -2.166  -3.575  0.00  0.00    +0.010 A 
ATOM     10  C   LIG    1       -9.162  -2.987  -2.961  0.00  0.00    +0.030 A 
ATOM     11  C   LIG    1       -9.226  -3.057  -1.581  0.00  0.00    +0.010 A 
ATOM     12  C   LIG    1       -8.364  -2.308  -0.807  0.00  0.00    +0.070 A 
ENDBRANCH   5   7
ENDBRANCH   1   2
BRANCH   1  13
ATOM     13  C   LIG    1       -2.479   0.934   0.019  0.00  0.00    +0.050 C 
BRANCH  13  14
ATOM     14  C   LIG    1       -1.330   1.944   0.019  0.00  0.00    +0.060 C 
BRANCH  14  16
ATOM     15  N   LIG    1        1.143   1.898   0.001  0.00  0.00    -0.670 NA
ATOM     16  C   LIG    1       -0.014   1.209   0.009  0.00  0.00    +0.450 C 
ATOM     17  O   LIG    1        0.002  -0.004   0.002  0.00  0.00    -0.610 OA
BRANCH  15  22
ATOM     18  C   LIG    1        5.990   1.502  -0.047  0.00  0.00    +0.110 C 
ATOM     19  C   LIG    1        4.574   0.986  -0.036  0.00  0.00    +0.100 A 
ATOM     20  C   LIG    1        4.281  -0.316  -0.041  0.00  0.00    -0.240 A 
ATOM     21  S   LIG    1        2.527  -0.481  -0.017  0.00  0.00    +0.020 S 
ATOM     22  C   LIG    1        2.357   1.220  -0.014  0.00  0.00    +0.350 A 
ATOM     23  N   LIG    1        3.523   1.785  -0.022  0.00  0.00    -0.560 NA
ENDBRANCH  15  22
ENDBRANCH  14  16
ENDBRANCH  13  14
ENDBRANCH   1  13
TORSDOF 6
