REMARK  Name = ZINCpe000000WpFg.0
REMARK                            x       y       z     vdW  Elec       q    Type
REMARK                         _______ _______ _______ _____ _____    ______ ____
ROOT
ATOM      1  N   LIG    1        1.139   2.192   0.003  0.00  0.00    -0.720 N 
ATOM      2  H   LIG    1        1.986   1.719  -0.008  0.00  0.00    +0.400 HD
ATOM      3  C   LIG    1       -0.018   1.503   0.010  0.00  0.00    +0.530 C 
ATOM      4  O   LIG    1       -1.077   2.095   0.018  0.00  0.00    -0.520 OA
ENDROOT
BRANCH   3   5
ATOM      5  C   LIG    1        0.002  -0.004   0.002  0.00  0.00    +0.000 C 
ATOM      6  C   LIG    1        0.246  -0.503  -1.424  0.00  0.00    +0.090 C 
BRANCH   5   7
ATOM      7  S   LIG    1       -1.587  -0.632   0.598  0.00  0.00    +0.110 S 
BRANCH   7   8
ATOM      8  C   LIG    1       -1.242  -2.360   0.629  0.00  0.00    +0.390 A 
ATOM      9  N   LIG    1       -0.046  -2.805   0.254  0.00  0.00    -0.640 NA
ATOM     10  C   LIG    1        0.217  -4.108   0.282  0.00  0.00    +0.640 A 
ATOM     11  N   LIG    1       -0.720  -4.966   0.675  0.00  0.00    -0.660 NA
ATOM     12  C   LIG    1       -1.917  -4.522   1.044  0.00  0.00    +0.640 A 
ATOM     13  N   LIG    1       -2.178  -3.219   1.022  0.00  0.00    -0.620 NA
BRANCH  12  14
ATOM     14  N   LIG    1       -2.889  -5.413   1.452  0.00  0.00    -0.800 N 
ATOM     15  H   LIG    1       -2.698  -6.364   1.469  0.00  0.00    +0.420 HD
ATOM     16  H   LIG    1       -3.762  -5.089   1.722  0.00  0.00    +0.420 HD
ENDBRANCH  12  14
BRANCH  10  17
ATOM     17  N   LIG    1        1.459  -4.570  -0.101  0.00  0.00    -0.810 N 
ATOM     18  H   LIG    1        2.142  -3.944  -0.388  0.00  0.00    +0.420 HD
ATOM     19  H   LIG    1        1.650  -5.521  -0.084  0.00  0.00    +0.420 HD
ENDBRANCH  10  17
ENDBRANCH   7   8
ENDBRANCH   5   7
ENDBRANCH   3   5
BRANCH   1  20
ATOM     20  C   LIG    1        1.120   3.657   0.011  0.00  0.00    +0.330 C 
BRANCH  20  24
ATOM     21  C   LIG    1        5.131   5.138  -0.013  0.00  0.00    +0.110 A 
ATOM     22  C   LIG    1        4.489   4.891   1.189  0.00  0.00    -0.040 A 
ATOM     23  C   LIG    1        3.190   4.417   1.193  0.00  0.00    +0.040 A 
ATOM     24  C   LIG    1        2.534   4.179   0.000  0.00  0.00    -0.110 A 
ATOM     25  C   LIG    1        3.169   4.424  -1.203  0.00  0.00    -0.010 A 
ATOM     26  C   LIG    1        4.469   4.904  -1.215  0.00  0.00    +0.100 A 
BRANCH  21  28
ATOM     27  C   LIG    1        7.025   5.827   1.251  0.00  0.00    +0.240 C 
ATOM     28  O   LIG    1        6.407   5.610  -0.019  0.00  0.00    -0.310 OA
ENDBRANCH  21  28
BRANCH  26  29
ATOM     29  O   LIG    1        5.096   5.145  -2.397  0.00  0.00    -0.310 OA
ATOM     30  C   LIG    1        4.354   4.881  -3.590  0.00  0.00    +0.250 C 
ENDBRANCH  26  29
ENDBRANCH  20  24
ENDBRANCH   1  20
TORSDOF 9
