REMARK  Name = ZINCrg000000shuI.0
REMARK                            x       y       z     vdW  Elec       q    Type
REMARK                         _______ _______ _______ _____ _____    ______ ____
ROOT
ATOM      1  C   LIG    1        0.904   9.113   2.784  0.00  0.00    +0.520 C 
ATOM      2  N   LIG    1        0.333   7.893   2.742  0.00  0.00    -0.610 N 
ATOM      3  C   LIG    1       -0.021   7.277   1.455  0.00  0.00    +0.280 C 
ATOM      4  C   LIG    1       -1.510   6.909   1.481  0.00  0.00    +0.290 C 
ATOM      5  N   LIG    1       -1.790   6.171   2.721  0.00  0.00    -1.010 NA
ATOM      6  C   LIG    1       -1.441   6.790   4.008  0.00  0.00    +0.280 C 
ATOM      7  C   LIG    1        0.053   7.155   3.982  0.00  0.00    +0.270 C 
ATOM      8  O   LIG    1        1.130   9.713   1.754  0.00  0.00    -0.520 OA
ENDROOT
BRANCH   5   9
ATOM      9  S   LIG    1       -2.491   4.672   2.670  0.00  0.00    +2.780 S 
ATOM     10  O   LIG    1       -3.117   4.478   3.931  0.00  0.00    -0.970 OA
ATOM     11  O   LIG    1       -3.191   4.598   1.435  0.00  0.00    -0.970 OA
BRANCH   9  12
ATOM     12  N   LIG    1       -1.267   3.560   2.580  0.00  0.00    -1.010 NA
ATOM     13  C   LIG    1       -0.745   3.112   1.279  0.00  0.00    +0.270 C 
ATOM     14  C   LIG    1       -0.729   1.579   1.267  0.00  0.00    +0.140 C 
ATOM     15  O   LIG    1       -0.038   1.106   2.426  0.00  0.00    -0.370 OA
ATOM     16  C   LIG    1       -0.658   1.464   3.663  0.00  0.00    +0.200 C 
ATOM     17  C   LIG    1       -2.094   0.938   3.687  0.00  0.00    +0.010 C 
ATOM     18  C   LIG    1       -0.013   1.086   0.008  0.00  0.00    +0.070 C 
ATOM     19  C   LIG    1       -0.670   2.991   3.799  0.00  0.00    +0.270 C 
ENDBRANCH   9  12
ENDBRANCH   5   9
BRANCH   1  20
ATOM     20  C   LIG    1        1.261   9.733   4.110  0.00  0.00    +0.100 C 
BRANCH  20  27
ATOM     21  C   LIG    1       -0.425  12.056   3.780  0.00  0.00    +0.080 C 
ATOM     22  C   LIG    1        1.074  12.199   3.723  0.00  0.00    -0.070 A 
ATOM     23  C   LIG    1        1.643  13.442   3.518  0.00  0.00    +0.000 A 
ATOM     24  C   LIG    1        3.018  13.572   3.461  0.00  0.00    +0.010 A 
ATOM     25  C   LIG    1        3.825  12.460   3.613  0.00  0.00    +0.000 A 
ATOM     26  C   LIG    1        3.256  11.217   3.824  0.00  0.00    +0.020 A 
ATOM     27  C   LIG    1        1.881  11.087   3.881  0.00  0.00    -0.070 A 
ENDBRANCH  20  27
ENDBRANCH   1  20
TORSDOF 4
