REMARK  Name = ZINCrH00000tj14V.0
REMARK                            x       y       z     vdW  Elec       q    Type
REMARK                         _______ _______ _______ _____ _____    ______ ____
ROOT
ATOM      1  C   LIG    1       -3.640   2.618   0.171  0.00  0.00    +0.350 C 
ENDROOT
BRANCH   1   2
ATOM      2  C   LIG    1       -4.805   2.149  -0.663  0.00  0.00    -0.110 A 
ATOM      3  C   LIG    1       -5.381   0.936  -0.417  0.00  0.00    +0.120 A 
ATOM      4  C   LIG    1       -6.463   0.487  -1.182  0.00  0.00    -0.010 A 
ATOM      5  C   LIG    1       -6.969   1.246  -2.191  0.00  0.00    +0.050 A 
ATOM      6  C   LIG    1       -6.400   2.501  -2.472  0.00  0.00    -0.060 A 
ATOM      7  C   LIG    1       -6.898   3.311  -3.506  0.00  0.00    +0.030 A 
ATOM      8  C   LIG    1       -6.335   4.529  -3.738  0.00  0.00    +0.010 A 
ATOM      9  C   LIG    1       -5.258   4.979  -2.978  0.00  0.00    +0.030 A 
ATOM     10  C   LIG    1       -4.745   4.218  -1.972  0.00  0.00    +0.020 A 
ATOM     11  C   LIG    1       -5.307   2.961  -1.694  0.00  0.00    -0.020 A 
BRANCH   3  12
ATOM     12  O   LIG    1       -4.898   0.154   0.584  0.00  0.00    -0.500 OA
ATOM     13  H   LIG    1       -5.343   0.282   1.432  0.00  0.00    +0.390 HD
ENDBRANCH   3  12
ENDBRANCH   1   2
BRANCH   1  14
ATOM     14  C   LIG    1       -4.131   3.022   1.537  0.00  0.00    -0.090 A 
ATOM     15  C   LIG    1       -4.228   2.079   2.543  0.00  0.00    +0.010 A 
ATOM     16  C   LIG    1       -4.674   2.450   3.798  0.00  0.00    +0.000 A 
ATOM     17  C   LIG    1       -5.032   3.763   4.043  0.00  0.00    +0.000 A 
ATOM     18  C   LIG    1       -4.940   4.705   3.036  0.00  0.00    +0.000 A 
ATOM     19  C   LIG    1       -4.490   4.334   1.782  0.00  0.00    +0.020 A 
ENDBRANCH   1  14
BRANCH   1  21
ATOM     20  C   LIG    1       -1.370   1.815   0.543  0.00  0.00    +0.600 C 
ATOM     21  N   LIG    1       -2.666   1.532   0.303  0.00  0.00    -0.710 N 
ATOM     22  H   LIG    1       -2.954   0.610   0.218  0.00  0.00    +0.410 HD
ATOM     23  O   LIG    1       -1.010   2.971   0.650  0.00  0.00    -0.550 OA
BRANCH  20  27
ATOM     24  C   LIG    1        2.901  -0.695   1.192  0.00  0.00    +0.350 C 
ATOM     25  N   LIG    1        1.490  -0.375   0.960  0.00  0.00    -0.360 N 
ATOM     26  C   LIG    1        0.963   0.859   0.915  0.00  0.00    +0.320 A 
ATOM     27  C   LIG    1       -0.390   0.722   0.676  0.00  0.00    -0.300 A 
ATOM     28  C   LIG    1       -0.658  -0.662   0.577  0.00  0.00    +0.270 A 
ATOM     29  N   LIG    1        0.465  -1.304   0.747  0.00  0.00    -0.300 NA
ENDBRANCH  20  27
ENDBRANCH   1  21
TORSDOF 5
