REMARK  Name = ZINCpk000000mK4u.0
REMARK                            x       y       z     vdW  Elec       q    Type
REMARK                         _______ _______ _______ _____ _____    ______ ____
ROOT
ATOM      1  C   LIG    1        1.400   3.564   5.489  0.00  0.00    +0.210 A 
ATOM      2  C   LIG    1        1.630   2.196   5.560  0.00  0.00    -0.030 A 
ATOM      3  C   LIG    1        1.197   1.363   4.545  0.00  0.00    +0.050 A 
ATOM      4  C   LIG    1        0.528   1.884   3.457  0.00  0.00    +0.010 A 
ATOM      5  C   LIG    1        0.296   3.258   3.373  0.00  0.00    -0.090 A 
ATOM      6  C   LIG    1        0.733   4.098   4.396  0.00  0.00    -0.030 A 
ENDROOT
BRANCH   5   7
ATOM      7  C   LIG    1       -0.416   3.820   2.205  0.00  0.00    +0.560 C 
ATOM      8  N   LIG    1       -1.341   4.784   2.379  0.00  0.00    -0.600 N 
ATOM      9  C   LIG    1       -1.746   5.196   3.730  0.00  0.00    +0.260 C 
ATOM     10  C   LIG    1       -3.271   5.099   3.839  0.00  0.00    +0.030 C 
ATOM     11  C   LIG    1       -3.913   5.914   2.713  0.00  0.00    +0.040 C 
ATOM     12  C   LIG    1       -3.487   5.341   1.360  0.00  0.00    +0.150 C 
ATOM     13  C   LIG    1       -1.965   5.441   1.223  0.00  0.00    +0.260 C 
ATOM     14  O   LIG    1       -0.166   3.412   1.087  0.00  0.00    -0.530 OA
BRANCH  12  15
ATOM     15  O   LIG    1       -4.111   6.083   0.310  0.00  0.00    -0.560 OA
ATOM     16  H   LIG    1       -3.886   5.774  -0.578  0.00  0.00    +0.380 HD
ENDBRANCH  12  15
ENDBRANCH   5   7
BRANCH   1  17
ATOM     17  N   LIG    1        1.840   4.402   6.516  0.00  0.00    -0.730 N 
ATOM     18  H   LIG    1        1.679   5.357   6.466  0.00  0.00    +0.400 HD
BRANCH  17  22
ATOM     19  N   LIG    1        1.578   4.393   9.732  0.00  0.00    -0.610 N 
ATOM     20  C   LIG    1        2.528   5.470   9.427  0.00  0.00    +0.250 C 
ATOM     21  C   LIG    1        3.451   4.904   8.326  0.00  0.00    +0.060 C 
ATOM     22  C   LIG    1        2.544   3.837   7.670  0.00  0.00    +0.240 C 
ATOM     23  C   LIG    1        1.562   3.466   8.760  0.00  0.00    +0.500 C 
ATOM     24  O   LIG    1        0.862   2.475   8.756  0.00  0.00    -0.510 OA
BRANCH  19  25
ATOM     25  C   LIG    1        0.753   4.337  10.942  0.00  0.00    +0.330 C 
BRANCH  25  27
ATOM     26  C   LIG    1       -1.688   4.405  10.896  0.00  0.00    +0.040 C 
ATOM     27  C   LIG    1       -0.558   5.036  10.688  0.00  0.00    -0.080 C 
ENDBRANCH  25  27
ENDBRANCH  19  25
ENDBRANCH  17  22
ENDBRANCH   1  17
TORSDOF 6
