REMARK  Name = ZINCrg000000tSIm.0
REMARK                            x       y       z     vdW  Elec       q    Type
REMARK                         _______ _______ _______ _____ _____    ______ ____
ROOT
ATOM      1  C   LIG    1       -0.741   1.585  -1.213  0.00  0.00    -0.160 A 
ATOM      2  C   LIG    1       -1.256   2.868  -1.233  0.00  0.00    +0.070 A 
ATOM      3  C   LIG    1       -1.920   3.330  -2.352  0.00  0.00    -0.060 A 
ATOM      4  C   LIG    1       -2.079   2.501  -3.455  0.00  0.00    +0.220 A 
ATOM      5  C   LIG    1       -1.565   1.211  -3.430  0.00  0.00    -0.050 A 
ATOM      6  C   LIG    1       -0.898   0.757  -2.309  0.00  0.00    +0.080 A 
ENDROOT
BRANCH   1  10
ATOM      7  O   LIG    1        3.224   1.140   1.448  0.00  0.00    -0.500 OA
ATOM      8  C   LIG    1        2.042   1.396   1.355  0.00  0.00    +0.520 C 
ATOM      9  C   LIG    1        1.423   1.615  -0.003  0.00  0.00    +0.100 C 
ATOM     10  C   LIG    1       -0.013   1.086   0.008  0.00  0.00    +0.280 C 
ATOM     11  N   LIG    1       -0.699   1.558   1.212  0.00  0.00    -0.720 N 
ATOM     12  H   LIG    1       -1.641   1.786   1.167  0.00  0.00    +0.430 HD
ATOM     13  C   LIG    1       -0.043   1.680   2.377  0.00  0.00    +0.710 C 
ATOM     14  O   LIG    1       -0.664   1.973   3.380  0.00  0.00    -0.550 OA
ATOM     15  N   LIG    1        1.283   1.485   2.462  0.00  0.00    -0.680 N 
ATOM     16  H   LIG    1        1.700   1.407   3.334  0.00  0.00    +0.430 HD
ENDBRANCH   1  10
BRANCH   4  17
ATOM     17  N   LIG    1       -2.754   2.964  -4.588  0.00  0.00    -0.730 N 
ATOM     18  H   LIG    1       -2.864   2.384  -5.357  0.00  0.00    +0.410 HD
BRANCH  17  19
ATOM     19  C   LIG    1       -3.295   4.325  -4.612  0.00  0.00    +0.270 C 
ATOM     20  C   LIG    1       -3.420   4.833  -6.063  0.00  0.00    +0.110 C 
ATOM     21  C   LIG    1       -4.903   5.082  -6.225  0.00  0.00    +0.530 C 
ATOM     22  N   LIG    1       -5.529   4.776  -5.082  0.00  0.00    -0.580 N 
ATOM     23  O   LIG    1       -5.441   5.493  -7.231  0.00  0.00    -0.460 OA
ATOM     24  C   LIG    1       -4.721   4.340  -4.107  0.00  0.00    +0.510 C 
ATOM     25  O   LIG    1       -5.076   4.009  -2.996  0.00  0.00    -0.440 OA
BRANCH  22  26
ATOM     26  C   LIG    1       -6.978   4.908  -4.911  0.00  0.00    +0.340 C 
BRANCH  26  27
ATOM     27  C   LIG    1       -7.660   3.598  -5.312  0.00  0.00    +0.440 C 
ATOM     28  F   LIG    1       -7.372   3.314  -6.651  0.00  0.00    -0.170 F 
ATOM     29  F   LIG    1       -9.044   3.724  -5.149  0.00  0.00    -0.170 F 
ATOM     30  F   LIG    1       -7.188   2.560  -4.503  0.00  0.00    -0.170 F 
ENDBRANCH  26  27
ENDBRANCH  22  26
ENDBRANCH  17  19
ENDBRANCH   4  17
TORSDOF 5
