REMARK  Name = ZINCpe000000YUvZ.0
REMARK                            x       y       z     vdW  Elec       q    Type
REMARK                         _______ _______ _______ _____ _____    ______ ____
ROOT
ATOM      1  O   LIG    1        4.594   5.436   0.015  0.00  0.00    -0.530 OA
ATOM      2  C   LIG    1        3.974   5.176   1.024  0.00  0.00    +0.510 C 
ATOM      3  N   LIG    1        2.883   4.386   0.961  0.00  0.00    -0.710 N 
ATOM      4  H   LIG    1        2.388   4.178   1.768  0.00  0.00    +0.400 HD
ENDROOT
BRANCH   3   5
ATOM      5  C   LIG    1        2.447   3.841  -0.327  0.00  0.00    +0.340 C 
BRANCH   5   6
ATOM      6  C   LIG    1        1.158   3.083  -0.142  0.00  0.00    -0.140 A 
ATOM      7  C   LIG    1        1.156   1.700  -0.111  0.00  0.00    +0.090 A 
ATOM      8  C   LIG    1       -0.055   1.043   0.062  0.00  0.00    -0.030 A 
ATOM      9  C   LIG    1       -1.214   1.783   0.191  0.00  0.00    +0.280 A 
ATOM     10  N   LIG    1       -1.181   3.102   0.163  0.00  0.00    -0.510 NA
ATOM     11  C   LIG    1       -0.046   3.765   0.001  0.00  0.00    +0.310 A 
BRANCH  11  12
ATOM     12  N   LIG    1       -0.059   5.155  -0.028  0.00  0.00    -0.480 N 
ATOM     13  C   LIG    1       -0.562   5.704   1.239  0.00  0.00    +0.160 C 
ATOM     14  C   LIG    1       -0.503   7.232   1.187  0.00  0.00    +0.220 C 
ATOM     15  O   LIG    1       -1.253   7.695   0.060  0.00  0.00    -0.380 OA
ATOM     16  C   LIG    1       -0.789   7.181  -1.191  0.00  0.00    +0.220 C 
ATOM     17  C   LIG    1       -0.852   5.651  -1.162  0.00  0.00    +0.170 C 
ENDBRANCH  11  12
ENDBRANCH   5   6
ENDBRANCH   3   5
BRANCH   2  18
ATOM     18  C   LIG    1        4.422   5.736   2.350  0.00  0.00    +0.300 C 
BRANCH  18  19
ATOM     19  N   LIG    1        5.620   6.556   2.153  0.00  0.00    -0.720 N 
ATOM     20  H   LIG    1        5.994   6.662   1.264  0.00  0.00    +0.410 HD
ATOM     21  C   LIG    1        6.202   7.162   3.206  0.00  0.00    +0.520 C 
ATOM     22  O   LIG    1        5.734   7.030   4.317  0.00  0.00    -0.540 OA
BRANCH  21  23
ATOM     23  C   LIG    1        7.434   8.006   3.004  0.00  0.00    -0.010 C 
ATOM     24  C   LIG    1        8.585   7.137   2.455  0.00  0.00    +0.030 C 
ATOM     25  C   LIG    1        9.850   7.699   3.152  0.00  0.00    +0.020 C 
ATOM     26  C   LIG    1        9.339   8.026   4.577  0.00  0.00    +0.010 C 
ATOM     27  C   LIG    1        7.914   8.571   4.352  0.00  0.00    +0.040 C 
ENDBRANCH  21  23
ENDBRANCH  18  19
ENDBRANCH   2  18
TORSDOF 6
