REMARK  Name = ZINCrg00000bgVkk.1
REMARK                            x       y       z     vdW  Elec       q    Type
REMARK                         _______ _______ _______ _____ _____    ______ ____
ROOT
ATOM      1  C   LIG    1       -8.938  -4.075   3.481  0.00  0.00    +0.020 C 
ATOM      2  C   LIG    1       -7.608  -4.562   4.060  0.00  0.00    +0.000 C 
ATOM      3  C   LIG    1       -7.853  -5.210   5.425  0.00  0.00    +0.020 C 
ATOM      4  C   LIG    1       -8.507  -4.188   6.361  0.00  0.00    +0.290 C 
ATOM      5  N   LIG    1       -7.668  -2.983   6.406  0.00  0.00    -0.590 N 
ATOM      6  C   LIG    1       -7.297  -2.333   5.142  0.00  0.00    +0.290 C 
ATOM      7  C   LIG    1       -7.247  -2.484   7.585  0.00  0.00    +0.570 C 
ATOM      8  O   LIG    1       -6.443  -1.573   7.607  0.00  0.00    -0.520 OA
ATOM      9  C   LIG    1       -6.656  -3.375   4.221  0.00  0.00    -0.020 C 
ENDROOT
BRANCH   7  10
ATOM     10  C   LIG    1       -7.763  -3.047   8.855  0.00  0.00    +0.020 A 
ATOM     11  C   LIG    1       -7.193  -2.669  10.073  0.00  0.00    +0.100 A 
ATOM     12  C   LIG    1       -7.718  -3.222  11.234  0.00  0.00    +0.040 A 
ATOM     13  C   LIG    1       -8.764  -4.122  11.113  0.00  0.00    +0.240 A 
ATOM     14  N   LIG    1       -9.240  -4.427   9.918  0.00  0.00    -0.250 NA
ATOM     15  N   LIG    1       -8.766  -3.917   8.840  0.00  0.00    -0.210 NA
ENDBRANCH   7  10
BRANCH   9  16
ATOM     16  C   LIG    1       -6.386  -2.748   2.851  0.00  0.00    +0.290 C 
BRANCH  16  17
ATOM     17  N   LIG    1       -5.386  -1.686   2.989  0.00  0.00    -0.700 N 
ATOM     18  H   LIG    1       -5.010  -1.484   3.860  0.00  0.00    +0.420 HD
ATOM     19  C   LIG    1       -4.989  -0.990   1.905  0.00  0.00    +0.610 C 
ATOM     20  O   LIG    1       -5.461  -1.243   0.813  0.00  0.00    -0.530 OA
BRANCH  19  21
ATOM     21  C   LIG    1       -3.983   0.079   2.043  0.00  0.00    +0.120 A 
ATOM     22  N   LIG    1       -3.392   0.459   3.156  0.00  0.00    -0.230 NA
ATOM     23  N   LIG    1       -2.574   1.418   2.900  0.00  0.00    -0.280 NA
ATOM     24  C   LIG    1       -2.599   1.698   1.620  0.00  0.00    +0.240 A 
ATOM     25  N   LIG    1       -3.490   0.871   1.038  0.00  0.00    -0.540 N 
ATOM     26  H   LIG    1       -3.731   0.840   0.099  0.00  0.00    +0.440 HD
BRANCH  24  27
ATOM     27  C   LIG    1       -1.785   2.759   0.926  0.00  0.00    +0.060 C 
ATOM     28  C   LIG    1       -0.467   2.327   0.280  0.00  0.00    +0.060 C 
ATOM     29  C   LIG    1       -1.669   2.677  -0.599  0.00  0.00    +0.030 C 
ENDBRANCH  24  27
ENDBRANCH  19  21
ENDBRANCH  16  17
ENDBRANCH   9  16
TORSDOF 5
