REMARK  Name = ZINCrg00000bgVkk.0
REMARK                            x       y       z     vdW  Elec       q    Type
REMARK                         _______ _______ _______ _____ _____    ______ ____
ROOT
ATOM      1  C   LIG    1       -0.463   2.217   1.605  0.00  0.00    +0.020 C 
ATOM      2  C   LIG    1       -0.779   0.728   1.451  0.00  0.00    +0.000 C 
ATOM      3  C   LIG    1       -0.112   0.195   0.181  0.00  0.00    +0.020 C 
ATOM      4  C   LIG    1       -0.623   0.983  -1.029  0.00  0.00    +0.290 C 
ATOM      5  N   LIG    1       -2.091   0.923  -1.048  0.00  0.00    -0.590 N 
ATOM      6  C   LIG    1       -2.830   1.328   0.156  0.00  0.00    +0.290 C 
ATOM      7  C   LIG    1       -2.747   0.505  -2.148  0.00  0.00    +0.580 C 
ATOM      8  O   LIG    1       -3.949   0.329  -2.109  0.00  0.00    -0.520 OA
ATOM      9  C   LIG    1       -2.294   0.535   1.353  0.00  0.00    -0.020 C 
ENDROOT
BRANCH   7  10
ATOM     10  C   LIG    1       -2.003   0.261  -3.406  0.00  0.00    +0.020 A 
ATOM     11  C   LIG    1       -2.638  -0.350  -4.490  0.00  0.00    +0.100 A 
ATOM     12  C   LIG    1       -1.897  -0.556  -5.646  0.00  0.00    +0.040 A 
ATOM     13  C   LIG    1       -0.574  -0.144  -5.654  0.00  0.00    +0.240 A 
ATOM     14  N   LIG    1       -0.052   0.427  -4.582  0.00  0.00    -0.240 NA
ATOM     15  N   LIG    1       -0.731   0.627  -3.511  0.00  0.00    -0.210 NA
ENDBRANCH   7  10
BRANCH   9  16
ATOM     16  C   LIG    1       -2.958   1.039   2.636  0.00  0.00    +0.280 C 
BRANCH  16  17
ATOM     17  N   LIG    1       -4.393   0.748   2.590  0.00  0.00    -0.700 N 
ATOM     18  H   LIG    1       -4.773   0.300   1.818  0.00  0.00    +0.420 HD
ATOM     19  C   LIG    1       -5.186   1.104   3.621  0.00  0.00    +0.610 C 
ATOM     20  O   LIG    1       -4.710   1.665   4.588  0.00  0.00    -0.530 OA
BRANCH  19  21
ATOM     21  C   LIG    1       -6.634   0.811   3.574  0.00  0.00    +0.170 A 
ATOM     22  N   LIG    1       -7.282   0.210   2.592  0.00  0.00    -0.460 NA
ATOM     23  C   LIG    1       -8.562   0.143   2.945  0.00  0.00    +0.230 A 
ATOM     24  N   LIG    1       -8.696   0.695   4.125  0.00  0.00    -0.290 NA
ATOM     25  N   LIG    1       -7.543   1.102   4.531  0.00  0.00    -0.360 N 
ATOM     26  H   LIG    1       -7.360   1.543   5.376  0.00  0.00    +0.460 HD
BRANCH  23  27
ATOM     27  C   LIG    1       -9.671  -0.465   2.126  0.00  0.00    +0.060 C 
ATOM     28  C   LIG    1      -11.106  -0.262   2.618  0.00  0.00    +0.050 C 
ATOM     29  C   LIG    1      -10.442  -1.635   2.739  0.00  0.00    +0.050 C 
ENDBRANCH  23  27
ENDBRANCH  19  21
ENDBRANCH  16  17
ENDBRANCH   9  16
TORSDOF 5
