REMARK  Name = ZINCpk00000l7x5i.0
REMARK                            x       y       z     vdW  Elec       q    Type
REMARK                         _______ _______ _______ _____ _____    ______ ____
ROOT
ATOM      1  O   LIG    1       -6.398   1.656  -1.502  0.00  0.00    -0.540 OA
ATOM      2  C   LIG    1       -6.276   2.587  -0.730  0.00  0.00    +0.610 C 
ATOM      3  N   LIG    1       -7.364   3.266  -0.315  0.00  0.00    -0.600 N 
ATOM      4  C   LIG    1       -7.229   4.486   0.495  0.00  0.00    +0.300 C 
ATOM      5  C   LIG    1       -8.062   5.596  -0.155  0.00  0.00    +0.170 C 
ATOM      6  N   LIG    1       -9.440   5.124  -0.343  0.00  0.00    -0.680 NA
ATOM      7  H   LIG    1      -10.039   5.873  -0.659  0.00  0.00    +0.350 HD
ATOM      8  C   LIG    1       -9.492   3.983  -1.266  0.00  0.00    +0.170 C 
ATOM      9  C   LIG    1       -8.718   2.810  -0.666  0.00  0.00    +0.310 C 
ENDROOT
BRANCH   8  10
ATOM     10  C   LIG    1      -10.927   3.580  -1.488  0.00  0.00    -0.090 A 
ATOM     11  C   LIG    1      -11.815   3.575  -0.428  0.00  0.00    +0.060 A 
ATOM     12  C   LIG    1      -13.132   3.211  -0.632  0.00  0.00    +0.020 A 
ATOM     13  C   LIG    1      -13.560   2.841  -1.895  0.00  0.00    -0.030 A 
ATOM     14  C   LIG    1      -12.669   2.841  -2.954  0.00  0.00    +0.020 A 
ATOM     15 CL   LIG    1      -15.213   2.377  -2.151  0.00  0.00    -0.070 Cl
ATOM     16  C   LIG    1      -11.353   3.210  -2.750  0.00  0.00    +0.030 A 
ENDBRANCH   8  10
BRANCH   2  17
ATOM     17  C   LIG    1       -4.937   2.973  -0.246  0.00  0.00    -0.100 A 
ATOM     18  C   LIG    1       -3.750   2.464  -0.691  0.00  0.00    +0.290 A 
ATOM     19  N   LIG    1       -2.775   3.079   0.008  0.00  0.00    -0.350 N 
ATOM     20  N   LIG    1       -3.406   3.978   0.880  0.00  0.00    -0.050 NA
ATOM     21  N   LIG    1       -4.679   3.889   0.703  0.00  0.00    -0.210 NA
BRANCH  19  22
ATOM     22  C   LIG    1       -1.333   2.856  -0.122  0.00  0.00    +0.270 C 
ATOM     23  C   LIG    1       -0.940   2.100  -1.402  0.00  0.00    +0.060 C 
ATOM     24  C   LIG    1        0.082   1.337  -0.544  0.00  0.00    +0.030 C 
ATOM     25  C   LIG    1       -0.824   1.634   0.663  0.00  0.00    +0.170 C 
BRANCH  25  26
ATOM     26  O   LIG    1       -0.103   1.974   1.850  0.00  0.00    -0.550 OA
ATOM     27  H   LIG    1        0.259   1.212   2.322  0.00  0.00    +0.390 HD
ENDBRANCH  25  26
ENDBRANCH  19  22
ENDBRANCH   2  17
TORSDOF 4
