REMARK  Name = ZINCrH000004kMB4.0
REMARK                            x       y       z     vdW  Elec       q    Type
REMARK                         _______ _______ _______ _____ _____    ______ ____
ROOT
ATOM      1  N   LIG    1       -1.980   4.633   0.045  0.00  0.00    -0.620 N 
ATOM      2  H   LIG    1       -2.916   4.376   0.053  0.00  0.00    +0.430 HD
ATOM      3  C   LIG    1       -1.640   5.938   0.049  0.00  0.00    +0.580 C 
ATOM      4  O   LIG    1       -0.468   6.260   0.040  0.00  0.00    -0.500 OA
ENDROOT
BRANCH   3   5
ATOM      5  C   LIG    1       -2.688   6.972   0.064  0.00  0.00    -0.290 A 
ATOM      6  C   LIG    1       -2.369   8.323   0.074  0.00  0.00    +0.270 A 
ATOM      7  C   LIG    1       -3.437   9.257   0.115  0.00  0.00    -0.180 A 
ATOM      8  C   LIG    1       -3.198  10.622  -0.097  0.00  0.00    +0.110 A 
ATOM      9  C   LIG    1       -4.244  11.499  -0.114  0.00  0.00    +0.000 A 
ATOM     10  C   LIG    1       -5.543  11.053   0.087  0.00  0.00    +0.110 A 
ATOM     11  C   LIG    1       -5.798   9.718   0.323  0.00  0.00    +0.010 A 
ATOM     12  C   LIG    1       -4.750   8.808   0.353  0.00  0.00    +0.150 A 
ATOM     13  O   LIG    1       -4.988   7.500   0.612  0.00  0.00    -0.260 OA
ATOM     14  C   LIG    1       -4.118   6.615   0.075  0.00  0.00    +0.530 A 
ATOM     15  O   LIG    1       -4.504   5.556  -0.384  0.00  0.00    -0.440 OA
ENDBRANCH   3   5
BRANCH   1  17
ATOM     16  C   LIG    1       -1.232   2.313   0.033  0.00  0.00    -0.190 A 
ATOM     17  C   LIG    1       -0.995   3.661   0.031  0.00  0.00    +0.050 A 
ATOM     18  S   LIG    1        0.678   3.978   0.017  0.00  0.00    +0.310 S 
ATOM     19  C   LIG    1        1.087   2.270   0.004  0.00  0.00    -0.240 A 
ATOM     20  C   LIG    1        2.499   1.717  -0.013  0.00  0.00    +0.120 C 
ATOM     21  C   LIG    1        2.454   0.241   0.395  0.00  0.00    +0.020 C 
ATOM     22  C   LIG    1        1.389  -0.475  -0.441  0.00  0.00    +0.020 C 
ATOM     23  C   LIG    1        0.002  -0.004   0.002  0.00  0.00    +0.100 C 
ATOM     24  C   LIG    1       -0.018   1.516   0.010  0.00  0.00    -0.040 A 
BRANCH  16  25
ATOM     25  C   LIG    1       -2.576   1.732   0.049  0.00  0.00    +0.530 C 
ATOM     26  O   LIG    1       -3.119   1.486   1.109  0.00  0.00    -0.490 OA
BRANCH  25  28
ATOM     27  C   LIG    1       -4.542   0.896  -1.019  0.00  0.00    +0.270 C 
ATOM     28  O   LIG    1       -3.212   1.471  -1.111  0.00  0.00    -0.350 OA
ENDBRANCH  25  28
ENDBRANCH  16  25
ENDBRANCH   1  17
TORSDOF 4
