REMARK  Name = ZINCrH00000No57z.0
REMARK                            x       y       z     vdW  Elec       q    Type
REMARK                         _______ _______ _______ _____ _____    ______ ____
ROOT
ATOM      1  N   LIG    1        0.847   6.051  -1.358  0.00  0.00    -0.600 N 
ATOM      2  C   LIG    1       -0.266   6.488  -1.981  0.00  0.00    +0.560 C 
ATOM      3  O   LIG    1       -1.335   6.478  -1.396  0.00  0.00    -0.540 OA
ENDROOT
BRANCH   1   5
ATOM      4  C   LIG    1        2.326   4.732  -2.790  0.00  0.00    +0.020 C 
ATOM      5  C   LIG    1        2.132   6.063  -2.061  0.00  0.00    +0.260 C 
ENDBRANCH   1   5
BRANCH   2   6
ATOM      6  C   LIG    1       -0.193   6.956  -3.308  0.00  0.00    -0.060 C 
ATOM      7  C   LIG    1       -1.317   7.397  -3.938  0.00  0.00    +0.150 C 
BRANCH   7   8
ATOM      8  C   LIG    1       -1.244   7.865  -5.264  0.00  0.00    -0.050 A 
ATOM      9  C   LIG    1       -0.347   8.800  -5.771  0.00  0.00    +0.150 A 
ATOM     10  N   LIG    1       -0.607   8.965  -7.058  0.00  0.00    -0.480 NA
ATOM     11  C   LIG    1       -1.627   8.187  -7.418  0.00  0.00    +0.250 A 
ATOM     12  C   LIG    1       -2.273   8.000  -8.653  0.00  0.00    +0.080 A 
ATOM     13  C   LIG    1       -3.311   7.121  -8.739  0.00  0.00    +0.060 A 
ATOM     14  C   LIG    1       -3.720   6.418  -7.598  0.00  0.00    +0.030 A 
ATOM     15  C   LIG    1       -3.087   6.610  -6.418  0.00  0.00    +0.230 A 
ATOM     16 CL   LIG    1        0.897   9.610  -4.871  0.00  0.00    +0.020 Cl
ATOM     17  N   LIG    1       -2.046   7.481  -6.325  0.00  0.00    -0.340 N 
ENDBRANCH   7   8
ENDBRANCH   2   6
BRANCH   1  18
ATOM     18  C   LIG    1        0.771   5.565   0.022  0.00  0.00    +0.350 C 
BRANCH  18  19
ATOM     19  C   LIG    1        0.496   4.083   0.018  0.00  0.00    -0.100 A 
ATOM     20  C   LIG    1       -0.808   3.624   0.028  0.00  0.00    +0.060 A 
ATOM     21  C   LIG    1       -1.065   2.265   0.019  0.00  0.00    +0.040 A 
ATOM     22  C   LIG    1       -0.016   1.361   0.009  0.00  0.00    +0.040 A 
ATOM     23  O   LIG    1        0.002  -0.004   0.002  0.00  0.00    -0.310 OA
ATOM     24  C   LIG    1        1.336  -0.373   0.399  0.00  0.00    +0.430 C 
ATOM     25  O   LIG    1        2.139   0.749  -0.014  0.00  0.00    -0.310 OA
ATOM     26  C   LIG    1        1.297   1.824  -0.001  0.00  0.00    +0.030 A 
ATOM     27  C   LIG    1        1.548   3.186   0.004  0.00  0.00    +0.040 A 
ENDBRANCH  18  19
ENDBRANCH   1  18
TORSDOF 5
