REMARK  Name = ZINCb70000004SOe.0
REMARK                            x       y       z     vdW  Elec       q    Type
REMARK                         _______ _______ _______ _____ _____    ______ ____
ROOT
ATOM      1  C   LIG    1       -0.019   1.534   0.011  0.00  0.00    +0.210 C 
ATOM      2  C   LIG    1        1.453   1.995  -0.001  0.00  0.00    +0.070 C 
ATOM      3  C   LIG    1        2.232   0.792   0.586  0.00  0.00    +0.080 C 
ATOM      4  C   LIG    1        1.486  -0.425  -0.014  0.00  0.00    +0.090 C 
ATOM      5  C   LIG    1        0.002  -0.004   0.002  0.00  0.00    -0.430 C 
ENDROOT
BRANCH   1   7
ATOM      6  C   LIG    1       -0.830   3.497  -1.105  0.00  0.00    +0.350 C 
ATOM      7  N   LIG    1       -0.712   2.035  -1.184  0.00  0.00    -0.550 N 
ATOM      8  H   LIG    1       -1.633   1.625  -1.235  0.00  0.00    +0.430 HD
ATOM      9  H   LIG    1       -0.186   1.784  -2.008  0.00  0.00    +0.430 HD
ENDBRANCH   1   7
BRANCH   5  10
ATOM     10  S   LIG    1       -0.839  -0.629  -1.479  0.00  0.00    +2.370 S 
ATOM     11  O   LIG    1       -0.088  -0.243  -2.622  0.00  0.00    -0.920 OA
ATOM     12  O   LIG    1       -2.213  -0.278  -1.401  0.00  0.00    -0.930 OA
ATOM     13  C   LIG    1       -0.687  -2.424  -1.267  0.00  0.00    -0.190 C 
ENDBRANCH   5  10
TORSDOF 2
