REMARK  Name = ZINCrH000004pSrR.0
REMARK                            x       y       z     vdW  Elec       q    Type
REMARK                         _______ _______ _______ _____ _____    ______ ____
ROOT
ATOM      1  C   LIG    1        3.410   3.550   1.768  0.00  0.00    -0.070 A 
ATOM      2  C   LIG    1        2.714   4.046   0.664  0.00  0.00    +0.030 A 
ATOM      3  C   LIG    1        2.622   5.409   0.466  0.00  0.00    +0.130 A 
ATOM      4  C   LIG    1        3.225   6.282   1.353  0.00  0.00    -0.660 A 
ATOM      5  C   LIG    1        3.921   5.797   2.447  0.00  0.00    +0.130 A 
ATOM      6  C   LIG    1        4.017   4.437   2.659  0.00  0.00    +0.060 A 
ENDROOT
BRANCH   1  13
ATOM      7  C   LIG    1       -1.288   1.806   1.633  0.00  0.00    +0.030 C 
ATOM      8  C   LIG    1        0.067   1.327   2.158  0.00  0.00    -0.030 C 
ATOM      9  C   LIG    1        0.106  -0.203   2.151  0.00  0.00    +0.030 C 
ATOM     10  C   LIG    1        1.448  -0.683   2.707  0.00  0.00    -0.020 C 
ATOM     11  C   LIG    1        2.581  -0.167   1.813  0.00  0.00    +0.280 C 
ATOM     12  N   LIG    1        2.463   1.293   1.697  0.00  0.00    -0.600 N 
ATOM     13  C   LIG    1        3.509   2.092   1.988  0.00  0.00    +0.550 C 
ATOM     14  O   LIG    1        4.534   1.613   2.432  0.00  0.00    -0.520 OA
ATOM     15  C   LIG    1        1.634  -0.147   4.128  0.00  0.00    +0.030 C 
ATOM     16  C   LIG    1        1.184   1.867   1.258  0.00  0.00    +0.270 C 
ENDBRANCH   1  13
BRANCH   4  17
ATOM     17  S   LIG    1        3.108   8.020   1.090  0.00  0.00    +2.690 S 
ATOM     18  O   LIG    1        3.422   8.636   2.331  0.00  0.00    -0.940 OA
ATOM     19  O   LIG    1        1.884   8.240   0.402  0.00  0.00    -0.940 OA
BRANCH  17  20
ATOM     20  N   LIG    1        4.317   8.440   0.040  0.00  0.00    -1.050 N 
ATOM     21  H   LIG    1        4.098   8.831  -0.821  0.00  0.00    +0.430 HD
BRANCH  20  22
ATOM     22  C   LIG    1        5.654   8.230   0.392  0.00  0.00    +0.130 A 
ATOM     23  C   LIG    1        6.109   8.610   1.648  0.00  0.00    +0.050 A 
ATOM     24  C   LIG    1        7.429   8.397   1.996  0.00  0.00    +0.020 A 
ATOM     25  C   LIG    1        8.300   7.815   1.091  0.00  0.00    +0.100 A 
ATOM     26  C   LIG    1        7.849   7.440  -0.164  0.00  0.00    +0.000 A 
ATOM     27  F   LIG    1        9.591   7.612   1.431  0.00  0.00    -0.140 F 
ATOM     28  C   LIG    1        6.529   7.646  -0.514  0.00  0.00    +0.040 A 
ENDBRANCH  20  22
ENDBRANCH  17  20
ENDBRANCH   4  17
TORSDOF 4
