REMARK  Name = ZINCpk00000y6xmW.0
REMARK                            x       y       z     vdW  Elec       q    Type
REMARK                         _______ _______ _______ _____ _____    ______ ____
ROOT
ATOM      1  C   LIG    1        1.919  -1.735  -0.025  0.00  0.00    +0.620 C 
ATOM      2  N   LIG    1        3.253  -1.927  -0.039  0.00  0.00    -0.600 N 
ATOM      3  C   LIG    1        4.274  -0.864  -0.050  0.00  0.00    +0.250 C 
ATOM      4  C   LIG    1        5.528  -1.523  -0.672  0.00  0.00    +0.170 C 
ATOM      5  C   LIG    1        5.449  -2.960  -0.093  0.00  0.00    +0.080 C 
ATOM      6  C   LIG    1        3.930  -3.232  -0.051  0.00  0.00    +0.270 C 
ATOM      7  O   LIG    1        1.167  -2.691  -0.022  0.00  0.00    -0.520 OA
ENDROOT
BRANCH   6   8
ATOM      8  C   LIG    1        3.582  -4.003   1.196  0.00  0.00    -0.050 A 
ATOM      9  C   LIG    1        3.477  -3.345   2.407  0.00  0.00    -0.020 A 
ATOM     10  C   LIG    1        3.153  -4.049   3.553  0.00  0.00    +0.040 A 
ATOM     11  C   LIG    1        2.943  -5.413   3.491  0.00  0.00    -0.080 A 
ATOM     12  C   LIG    1        3.053  -6.076   2.277  0.00  0.00    +0.130 A 
ATOM     13  C   LIG    1        3.373  -5.367   1.129  0.00  0.00    +0.000 A 
BRANCH  12  14
ATOM     14  O   LIG    1        2.848  -7.418   2.214  0.00  0.00    -0.320 OA
ATOM     15  C   LIG    1        2.521  -8.083   3.436  0.00  0.00    +0.250 C 
ENDBRANCH  12  14
ENDBRANCH   6   8
BRANCH   1  19
ATOM     16  N   LIG    1        1.268   1.767  -0.001  0.00  0.00    -0.280 N 
ATOM     17  C   LIG    1       -0.016   1.349   0.009  0.00  0.00    +0.180 A 
ATOM     18  C   LIG    1        0.002  -0.004   0.002  0.00  0.00    -0.020 A 
ATOM     19  C   LIG    1        1.371  -0.364  -0.013  0.00  0.00    -0.010 A 
ATOM     20  N   LIG    1        2.063   0.758  -0.014  0.00  0.00    -0.260 NA
BRANCH  16  21
ATOM     21  C   LIG    1        1.693   3.169   0.003  0.00  0.00    +0.330 C 
BRANCH  21  22
ATOM     22  C   LIG    1        2.644   3.411   1.176  0.00  0.00    +0.180 C 
BRANCH  22  24
ATOM     23  C   LIG    1        3.954   5.112   2.242  0.00  0.00    +0.210 C 
ATOM     24  O   LIG    1        3.059   4.778   1.179  0.00  0.00    -0.390 OA
ENDBRANCH  22  24
ENDBRANCH  21  22
ENDBRANCH  16  21
ENDBRANCH   1  19
BRANCH   4  25
ATOM     25  O   LIG    1        5.439  -1.540  -2.099  0.00  0.00    -0.550 OA
ATOM     26  H   LIG    1        5.484  -0.664  -2.506  0.00  0.00    +0.380 HD
ENDBRANCH   4  25
TORSDOF 7
