REMARK  Name = ZINCvU0000000DlG.0
REMARK                            x       y       z     vdW  Elec       q    Type
REMARK                         _______ _______ _______ _____ _____    ______ ____
ROOT
ATOM      1  C   LIG    1        0.474  10.236  -0.095  0.00  0.00    +0.050 C 
ENDROOT
BRANCH   1   2
ATOM      2  C   LIG    1       -0.472  10.318  -1.265  0.00  0.00    -0.090 A 
ATOM      3  C   LIG    1        0.019  10.549  -2.536  0.00  0.00    +0.040 A 
ATOM      4  C   LIG    1       -0.848  10.621  -3.610  0.00  0.00    +0.010 A 
ATOM      5  C   LIG    1       -2.208  10.469  -3.412  0.00  0.00    +0.010 A 
ATOM      6  C   LIG    1       -2.700  10.243  -2.140  0.00  0.00    +0.000 A 
ATOM      7  C   LIG    1       -1.832  10.168  -1.067  0.00  0.00    +0.040 A 
ENDBRANCH   1   2
BRANCH   1  10
ATOM      8  N   LIG    1        0.688  12.566   0.708  0.00  0.00    -0.660 N 
ATOM      9  H   LIG    1       -0.218  12.501   1.047  0.00  0.00    +0.420 HD
ATOM     10  C   LIG    1        1.230  11.533   0.032  0.00  0.00    +0.550 C 
ATOM     11  O   LIG    1        2.326  11.648  -0.475  0.00  0.00    -0.500 OA
BRANCH   8  15
ATOM     12  C   LIG    1        2.910  16.037   1.342  0.00  0.00    +0.130 A 
ATOM     13  C   LIG    1        3.545  14.805   1.306  0.00  0.00    -0.040 A 
ATOM     14  C   LIG    1        2.808  13.654   1.102  0.00  0.00    +0.080 A 
ATOM     15  C   LIG    1        1.434  13.732   0.921  0.00  0.00    +0.120 A 
ATOM     16  C   LIG    1        0.799  14.966   0.957  0.00  0.00    +0.040 A 
ATOM     17  C   LIG    1        1.535  16.116   1.167  0.00  0.00    -0.050 A 
ATOM     18 CL   LIG    1        0.742  17.660   1.211  0.00  0.00    -0.050 Cl
BRANCH  12  20
ATOM     19  C   LIG    1        5.045  17.014   1.720  0.00  0.00    +0.240 C 
ATOM     20  O   LIG    1        3.635  17.169   1.548  0.00  0.00    -0.300 OA
ENDBRANCH  12  20
ENDBRANCH   8  15
ENDBRANCH   1  10
BRANCH   1  21
ATOM     21  S   LIG    1        1.645   8.876  -0.359  0.00  0.00    +0.110 S 
BRANCH  21  22
ATOM     22  C   LIG    1        0.610   7.451  -0.333  0.00  0.00    +0.200 A 
ATOM     23  N   LIG    1       -0.691   7.456  -0.158  0.00  0.00    -0.300 NA
ATOM     24  N   LIG    1       -1.117   6.119  -0.212  0.00  0.00    -0.470 N 
ATOM     25  H   LIG    1       -2.027   5.795  -0.120  0.00  0.00    +0.440 HD
ATOM     26  C   LIG    1       -0.008   5.373  -0.414  0.00  0.00    +0.340 A 
ATOM     27  N   LIG    1        1.023   6.191  -0.488  0.00  0.00    -0.500 NA
BRANCH  26  28
ATOM     28  C   LIG    1        0.039   3.900  -0.537  0.00  0.00    -0.040 A 
ATOM     29  C   LIG    1        1.256   3.253  -0.751  0.00  0.00    +0.080 A 
ATOM     30  C   LIG    1        1.294   1.879  -0.864  0.00  0.00    +0.010 A 
ATOM     31  C   LIG    1        0.127   1.141  -0.765  0.00  0.00    +0.030 A 
ATOM     32  C   LIG    1       -1.084   1.777  -0.559  0.00  0.00    +0.010 A 
ATOM     33  C   LIG    1       -1.134   3.151  -0.438  0.00  0.00    +0.020 A 
ENDBRANCH  26  28
ENDBRANCH  21  22
ENDBRANCH   1  21
TORSDOF 7
