REMARK  Name = ZINCpe00000gNkYw.0
REMARK                            x       y       z     vdW  Elec       q    Type
REMARK                         _______ _______ _______ _____ _____    ______ ____
ROOT
ATOM      1  C   LIG    1        0.022  -0.522   1.442  0.00  0.00    +0.190 C 
ENDROOT
BRANCH   1   5
ATOM      2  C   LIG    1        0.643  -4.062   1.416  0.00  0.00    +0.240 A 
ATOM      3  N   LIG    1       -0.664  -3.996   1.429  0.00  0.00    -0.380 NA
ATOM      4  O   LIG    1       -1.022  -2.837   1.438  0.00  0.00    +0.090 OA
ATOM      5  C   LIG    1        0.043  -2.029   1.433  0.00  0.00    +0.190 A 
ATOM      6  N   LIG    1        1.107  -2.792   1.414  0.00  0.00    -0.460 NA
BRANCH   2  11
ATOM      7  O   LIG    1        3.581  -8.641   1.365  0.00  0.00    -0.540 OA
ATOM      8  C   LIG    1        2.936  -7.605   1.377  0.00  0.00    +0.520 A 
ATOM      9  C   LIG    1        3.601  -6.366   1.377  0.00  0.00    -0.070 A 
ATOM     10  C   LIG    1        2.871  -5.216   1.385  0.00  0.00    +0.160 A 
ATOM     11  C   LIG    1        1.461  -5.299   1.403  0.00  0.00    -0.130 A 
ATOM     12  C   LIG    1        0.856  -6.522   1.402  0.00  0.00    +0.360 A 
ATOM     13  N   LIG    1        1.591  -7.654   1.389  0.00  0.00    -0.600 N 
ATOM     14  H   LIG    1        1.144  -8.514   1.389  0.00  0.00    +0.420 HD
ENDBRANCH   2  11
ENDBRANCH   1   5
BRANCH   1  15
ATOM     15  C   LIG    1        0.002  -0.004   0.002  0.00  0.00    +0.340 C 
BRANCH  15  16
ATOM     16  N   LIG    1       -0.018   1.461   0.010  0.00  0.00    -0.580 N 
ATOM     17  C   LIG    1        1.079   2.229   0.004  0.00  0.00    +0.700 C 
ATOM     18  N   LIG    1        0.786   3.545   0.014  0.00  0.00    -0.720 N 
ATOM     19  H   LIG    1        1.416   4.282   0.012  0.00  0.00    +0.440 HD
ATOM     20  C   LIG    1       -0.675   3.637   0.028  0.00  0.00    +0.120 C 
ATOM     21  C   LIG    1       -1.196   4.390  -1.204  0.00  0.00    +0.050 C 
ATOM     22  C   LIG    1       -2.433   5.162  -0.676  0.00  0.00    +0.030 C 
ATOM     23  C   LIG    1       -1.993   5.587   0.748  0.00  0.00    +0.030 C 
ATOM     24  C   LIG    1       -1.176   4.383   1.267  0.00  0.00    +0.050 C 
ATOM     25  O   LIG    1        2.212   1.789  -0.009  0.00  0.00    -0.530 OA
ATOM     26  C   LIG    1       -1.145   2.205   0.019  0.00  0.00    +0.530 C 
ATOM     27  O   LIG    1       -2.290   1.806   0.022  0.00  0.00    -0.450 OA
ENDBRANCH  15  16
ENDBRANCH   1  15
TORSDOF 4
