REMARK  Name = ZINCqH0000002eV5.0
REMARK                            x       y       z     vdW  Elec       q    Type
REMARK                         _______ _______ _______ _____ _____    ______ ____
ROOT
ATOM      1  N   LIG    1       -3.995   1.660   0.196  0.00  0.00    -0.730 N 
ATOM      2  H   LIG    1       -3.873   2.487  -0.296  0.00  0.00    +0.400 HD
ATOM      3  C   LIG    1       -2.921   0.964   0.619  0.00  0.00    +0.560 C 
ATOM      4  O   LIG    1       -3.073  -0.073   1.235  0.00  0.00    -0.530 OA
ENDROOT
BRANCH   3   5
ATOM      5  C   LIG    1       -1.559   1.461   0.335  0.00  0.00    -0.140 A 
ATOM      6  C   LIG    1       -0.459   0.742   0.772  0.00  0.00    +0.110 A 
ATOM      7  C   LIG    1        0.831   1.216   0.492  0.00  0.00    -0.060 A 
ATOM      8  C   LIG    1        1.972   0.511   0.914  0.00  0.00    +0.030 A 
ATOM      9  C   LIG    1        3.210   0.999   0.627  0.00  0.00    +0.010 A 
ATOM     10  C   LIG    1        3.365   2.189  -0.081  0.00  0.00    +0.030 A 
ATOM     11  C   LIG    1        2.283   2.899  -0.505  0.00  0.00    +0.020 A 
ATOM     12  C   LIG    1        0.989   2.428  -0.228  0.00  0.00    -0.030 A 
ATOM     13  C   LIG    1       -0.149   3.139  -0.653  0.00  0.00    +0.020 A 
ATOM     14  C   LIG    1       -1.389   2.664  -0.374  0.00  0.00    +0.030 A 
ENDBRANCH   3   5
BRANCH   1  15
ATOM     15  C   LIG    1       -5.345   1.167   0.478  0.00  0.00    +0.290 C 
BRANCH  15  16
ATOM     16  C   LIG    1       -6.374   2.126  -0.123  0.00  0.00    +0.130 C 
BRANCH  16  17
ATOM     17  N   LIG    1       -6.362   3.390   0.624  0.00  0.00    -0.520 NA
ATOM     18  C   LIG    1       -7.169   4.413  -0.057  0.00  0.00    +0.140 C 
ATOM     19  C   LIG    1       -7.177   5.692   0.784  0.00  0.00    +0.220 C 
ATOM     20  O   LIG    1       -5.830   6.122   1.003  0.00  0.00    -0.380 OA
ATOM     21  C   LIG    1       -5.016   5.150   1.665  0.00  0.00    +0.220 C 
ATOM     22  C   LIG    1       -4.986   3.865   0.832  0.00  0.00    +0.140 C 
ENDBRANCH  16  17
BRANCH  16  23
ATOM     23  C   LIG    1       -7.767   1.497  -0.039  0.00  0.00    +0.010 C 
BRANCH  23  25
ATOM     24  C   LIG    1       -7.691   0.705  -2.408  0.00  0.00    +0.010 C 
ATOM     25  C   LIG    1       -7.827   0.268  -0.948  0.00  0.00    +0.010 C 
ENDBRANCH  23  25
BRANCH  23  26
ATOM     26  C   LIG    1       -8.051   1.079   1.405  0.00  0.00    +0.000 C 
ATOM     27  C   LIG    1       -8.152   2.325   2.286  0.00  0.00    +0.020 C 
ENDBRANCH  23  26
ENDBRANCH  16  23
ENDBRANCH  15  16
ENDBRANCH   1  15
TORSDOF 7
