REMARK  Name = ZINCrH000004vJqS.0
REMARK                            x       y       z     vdW  Elec       q    Type
REMARK                         _______ _______ _______ _____ _____    ______ ____
ROOT
ATOM      1  O   LIG    1       -2.315   1.854   1.616  0.00  0.00    -0.510 OA
ATOM      2  C   LIG    1       -2.131   2.360   0.529  0.00  0.00    +0.510 C 
ATOM      3  C   LIG    1       -1.151   1.732  -0.429  0.00  0.00    +0.340 C 
ATOM      4  N   LIG    1       -1.571   2.024  -1.808  0.00  0.00    -0.560 N 
ATOM      5  C   LIG    1       -2.031   3.319  -2.093  0.00  0.00    +0.110 A 
ATOM      6  C   LIG    1       -1.879   3.870  -3.352  0.00  0.00    +0.060 A 
ATOM      7  C   LIG    1       -2.338   5.152  -3.601  0.00  0.00    +0.010 A 
ATOM      8  C   LIG    1       -2.948   5.879  -2.595  0.00  0.00    +0.030 A 
ATOM      9  C   LIG    1       -3.105   5.333  -1.334  0.00  0.00    +0.000 A 
ATOM     10  C   LIG    1       -2.649   4.050  -1.077  0.00  0.00    +0.130 A 
ATOM     11  C   LIG    1       -1.516   1.079  -2.767  0.00  0.00    +0.520 C 
ATOM     12  O   LIG    1       -1.867   1.341  -3.898  0.00  0.00    -0.480 OA
ATOM     13  N   LIG    1       -2.807   3.475   0.189  0.00  0.00    -0.660 N 
ATOM     14  H   LIG    1       -3.409   3.885   0.830  0.00  0.00    +0.420 HD
ENDROOT
BRANCH  11  15
ATOM     15  C   LIG    1       -1.019  -0.304  -2.434  0.00  0.00    +0.210 C 
BRANCH  15  16
ATOM     16  N   LIG    1       -1.056  -1.142  -3.640  0.00  0.00    -0.510 NA
BRANCH  16  17
ATOM     17  C   LIG    1       -0.807  -2.551  -3.310  0.00  0.00    +0.270 C 
BRANCH  17  18
ATOM     18  C   LIG    1       -2.030  -3.138  -2.653  0.00  0.00    -0.180 A 
ATOM     19  C   LIG    1       -3.084  -3.638  -3.299  0.00  0.00    +0.030 A 
ATOM     20  C   LIG    1       -4.092  -4.123  -2.483  0.00  0.00    +0.010 A 
ATOM     21  C   LIG    1       -3.856  -4.016  -1.175  0.00  0.00    -0.040 A 
ATOM     22  S   LIG    1       -2.282  -3.274  -0.918  0.00  0.00    +0.080 S 
ENDBRANCH  17  18
ENDBRANCH  16  17
BRANCH  16  23
ATOM     23  C   LIG    1       -0.100  -0.659  -4.646  0.00  0.00    +0.280 C 
BRANCH  23  24
ATOM     24  C   LIG    1       -0.435  -1.261  -5.986  0.00  0.00    -0.170 A 
ATOM     25  C   LIG    1       -1.336  -0.778  -6.842  0.00  0.00    +0.030 A 
ATOM     26  C   LIG    1       -1.473  -1.500  -8.015  0.00  0.00    +0.010 A 
ATOM     27  C   LIG    1       -0.682  -2.570  -8.111  0.00  0.00    -0.050 A 
ATOM     28  S   LIG    1        0.309  -2.703  -6.664  0.00  0.00    +0.080 S 
ENDBRANCH  23  24
ENDBRANCH  16  23
ENDBRANCH  15  16
ENDBRANCH  11  15
TORSDOF 6
