REMARK  Name = ZINCrg00000SjSwG.0
REMARK                            x       y       z     vdW  Elec       q    Type
REMARK                         _______ _______ _______ _____ _____    ______ ____
ROOT
ATOM      1  C   LIG    1       -2.432   0.832   0.044  0.00  0.00    +0.100 C 
ENDROOT
BRANCH   1   4
ATOM      2  C   LIG    1       -5.319   2.834  -1.346  0.00  0.00    +0.160 A 
ATOM      3  C   LIG    1       -4.191   2.034  -1.270  0.00  0.00    -0.020 A 
ATOM      4  C   LIG    1       -3.656   1.708  -0.037  0.00  0.00    -0.010 A 
ATOM      5  C   LIG    1       -4.238   2.188   1.121  0.00  0.00    -0.040 A 
ATOM      6  C   LIG    1       -5.361   2.992   1.052  0.00  0.00    +0.060 A 
ATOM      7  C   LIG    1       -5.905   3.318  -0.179  0.00  0.00    +0.100 A 
BRANCH   5   8
ATOM      8  N   LIG    1       -3.658   1.842   2.438  0.00  0.00    +0.040 N 
ATOM      9  O   LIG    1       -2.609   1.226   2.498  0.00  0.00    -0.150 OA
ATOM     10  O   LIG    1       -4.230   2.172   3.461  0.00  0.00    -0.170 OA
ENDBRANCH   5   8
BRANCH   2  12
ATOM     11  C   LIG    1       -5.195   2.620  -3.711  0.00  0.00    +0.250 C 
ATOM     12  O   LIG    1       -5.849   3.151  -2.557  0.00  0.00    -0.290 OA
ENDBRANCH   2  12
BRANCH   7  13
ATOM     13  O   LIG    1       -7.010   4.108  -0.249  0.00  0.00    -0.290 OA
ATOM     14  C   LIG    1       -7.558   4.567   0.988  0.00  0.00    +0.250 C 
ENDBRANCH   7  13
ENDBRANCH   1   4
BRANCH   1  15
ATOM     15  C   LIG    1       -1.188   1.708   0.209  0.00  0.00    +0.280 C 
BRANCH  15  16
ATOM     16  N   LIG    1        0.001   0.857   0.288  0.00  0.00    -1.120 NA
ATOM     17  H   LIG    1       -0.092  -0.092   0.467  0.00  0.00    +0.420 HD
BRANCH  16  18
ATOM     18  S   LIG    1        1.505   1.512   0.064  0.00  0.00    +2.790 S 
ATOM     19  O   LIG    1        1.437   2.274  -1.134  0.00  0.00    -0.970 OA
ATOM     20  O   LIG    1        2.437   0.458   0.262  0.00  0.00    -0.970 OA
BRANCH  18  21
ATOM     21  N   LIG    1        1.756   2.595   1.292  0.00  0.00    -1.010 NA
ATOM     22  C   LIG    1        2.460   2.196   2.521  0.00  0.00    +0.280 C 
ATOM     23  C   LIG    1        3.569   3.225   2.793  0.00  0.00    +0.200 C 
ATOM     24  O   LIG    1        3.003   4.538   2.784  0.00  0.00    -0.370 OA
ATOM     25  C   LIG    1        2.437   4.922   1.528  0.00  0.00    +0.140 C 
ATOM     26  C   LIG    1        1.922   6.360   1.618  0.00  0.00    +0.060 C 
ATOM     27  C   LIG    1        4.644   3.124   1.709  0.00  0.00    +0.010 C 
ATOM     28  C   LIG    1        1.275   3.982   1.189  0.00  0.00    +0.270 C 
ENDBRANCH  18  21
ENDBRANCH  16  18
ENDBRANCH  15  16
ENDBRANCH   1  15
TORSDOF 8
