REMARK  Name = ZINCqH0000037tQg.0
REMARK                            x       y       z     vdW  Elec       q    Type
REMARK                         _______ _______ _______ _____ _____    ______ ____
ROOT
ATOM      1  C   LIG    1        5.917  -0.130  -0.528  0.00  0.00    -0.150 A 
ATOM      2  C   LIG    1        5.457  -0.664   0.679  0.00  0.00    +0.130 A 
ATOM      3  C   LIG    1        4.205  -0.333   1.144  0.00  0.00    -0.020 A 
ATOM      4  C   LIG    1        3.397   0.533   0.413  0.00  0.00    +0.190 A 
ATOM      5  C   LIG    1        3.849   1.063  -0.792  0.00  0.00    -0.040 A 
ATOM      6  C   LIG    1        5.103   0.740  -1.260  0.00  0.00    +0.180 A 
ENDROOT
BRANCH   1  17
ATOM      7  C   LIG    1        6.340  -3.054   0.371  0.00  0.00    +0.060 C 
ATOM      8  C   LIG    1        7.542  -2.194   0.766  0.00  0.00    +0.220 C 
ATOM      9  C   LIG    1        8.735  -3.090   1.139  0.00  0.00    +0.120 C 
ATOM     10  C   LIG    1        9.815  -2.718   0.148  0.00  0.00    -0.130 A 
ATOM     11  C   LIG    1       11.105  -3.186  -0.003  0.00  0.00    +0.050 A 
ATOM     12  C   LIG    1       11.915  -2.680  -1.002  0.00  0.00    -0.010 A 
ATOM     13  C   LIG    1       11.430  -1.702  -1.852  0.00  0.00    +0.040 A 
ATOM     14  C   LIG    1       10.143  -1.232  -1.705  0.00  0.00    +0.010 A 
ATOM     15  C   LIG    1        9.319  -1.738  -0.698  0.00  0.00    +0.140 A 
ATOM     16  N   LIG    1        8.000  -1.403  -0.380  0.00  0.00    -0.540 N 
ATOM     17  C   LIG    1        7.258  -0.484  -1.029  0.00  0.00    +0.570 C 
ATOM     18  O   LIG    1        7.696   0.055  -2.028  0.00  0.00    -0.500 OA
ENDBRANCH   1  17
BRANCH   4  19
ATOM     19  N   LIG    1        2.132   0.866   0.886  0.00  0.00    -0.490 N 
ATOM     20  C   LIG    1        1.280  -0.336   1.013  0.00  0.00    +0.180 C 
ATOM     21  C   LIG    1        0.377  -0.052   2.239  0.00  0.00    +0.030 C 
ATOM     22  C   LIG    1        1.354   0.699   3.182  0.00  0.00    +0.010 C 
ATOM     23  C   LIG    1        2.216   1.524   2.203  0.00  0.00    +0.200 C 
ENDBRANCH   4  19
BRANCH   5  24
ATOM     24  N   LIG    1        2.984   1.979  -1.569  0.00  0.00    +0.030 N 
ATOM     25  O   LIG    1        1.915   2.341  -1.111  0.00  0.00    -0.090 OA
ATOM     26  O   LIG    1        3.341   2.370  -2.666  0.00  0.00    -0.190 OA
ENDBRANCH   5  24
TORSDOF 3
