REMARK  Name = ZINCrg000000sfm5.0
REMARK                            x       y       z     vdW  Elec       q    Type
REMARK                         _______ _______ _______ _____ _____    ______ ____
ROOT
ATOM      1  N   LIG    1       -1.703  -3.081   0.448  0.00  0.00    -0.520 NA
ATOM      2  C   LIG    1       -2.031  -2.799   1.852  0.00  0.00    +0.180 C 
ATOM      3  C   LIG    1       -3.499  -3.152   2.111  0.00  0.00    +0.290 C 
ATOM      4  N   LIG    1       -3.727  -4.542   1.686  0.00  0.00    -0.600 N 
ATOM      5  C   LIG    1       -3.297  -4.936   0.336  0.00  0.00    +0.300 C 
ATOM      6  C   LIG    1       -4.313  -5.431   2.513  0.00  0.00    +0.590 C 
ATOM      7  O   LIG    1       -4.410  -6.597   2.182  0.00  0.00    -0.520 OA
ATOM      8  C   LIG    1       -1.837  -4.512   0.147  0.00  0.00    +0.170 C 
ENDROOT
BRANCH   6   9
ATOM      9  C   LIG    1       -4.838  -4.988   3.821  0.00  0.00    -0.030 A 
ATOM     10  N   LIG    1       -5.992  -4.330   3.890  0.00  0.00    -0.370 NA
ATOM     11  C   LIG    1       -6.457  -3.937   5.058  0.00  0.00    +0.170 A 
ATOM     12  C   LIG    1       -5.750  -4.207   6.221  0.00  0.00    +0.310 A 
ATOM     13  N   LIG    1       -4.604  -4.860   6.168  0.00  0.00    -0.500 NA
ATOM     14  C   LIG    1       -4.125  -5.266   4.998  0.00  0.00    +0.390 A 
BRANCH  14  15
ATOM     15  N   LIG    1       -2.927  -5.955   4.939  0.00  0.00    -0.830 N 
ATOM     16  H   LIG    1       -2.473  -6.210   5.758  0.00  0.00    +0.410 HD
ATOM     17  H   LIG    1       -2.541  -6.183   4.079  0.00  0.00    +0.410 HD
ENDBRANCH  14  15
ENDBRANCH   6   9
BRANCH   1  18
ATOM     18  C   LIG    1       -0.357  -2.596   0.114  0.00  0.00    +0.220 C 
BRANCH  18  21
ATOM     19  N   LIG    1        0.810  -0.422  -0.065  0.00  0.00    -0.680 N 
ATOM     20  H   LIG    1        1.590  -0.901  -0.388  0.00  0.00    +0.410 HD
ATOM     21  C   LIG    1       -0.329  -1.092   0.201  0.00  0.00    +0.510 C 
ATOM     22  O   LIG    1       -1.331  -0.483   0.511  0.00  0.00    -0.500 OA
BRANCH  19  30
ATOM     23  C   LIG    1       -1.081   1.202  -1.438  0.00  0.00    +0.100 C 
ATOM     24  C   LIG    1       -0.035   1.792  -0.527  0.00  0.00    -0.060 A 
ATOM     25  C   LIG    1        0.022   3.159  -0.335  0.00  0.00    +0.010 A 
ATOM     26  C   LIG    1        0.984   3.702   0.497  0.00  0.00    +0.010 A 
ATOM     27  C   LIG    1        1.889   2.879   1.143  0.00  0.00    +0.010 A 
ATOM     28  C   LIG    1        1.833   1.511   0.958  0.00  0.00    -0.090 A 
ATOM     29  C   LIG    1        2.819   0.615   1.663  0.00  0.00    +0.090 C 
ATOM     30  C   LIG    1        0.868   0.963   0.124  0.00  0.00    +0.130 A 
ENDBRANCH  19  30
ENDBRANCH  18  21
ENDBRANCH   1  18
TORSDOF 5
