REMARK  Name = ZINCvU00000006lW.0
REMARK                            x       y       z     vdW  Elec       q    Type
REMARK                         _______ _______ _______ _____ _____    ______ ____
ROOT
ATOM      1  C   LIG    1        3.329   4.388   1.265  0.00  0.00    +0.260 A 
ATOM      2  N   LIG    1        4.508   4.889   1.037  0.00  0.00    -0.460 NA
ATOM      3  C   LIG    1        4.687   5.042  -0.300  0.00  0.00    +0.040 A 
ATOM      4  C   LIG    1        5.739   5.528  -1.082  0.00  0.00    +0.070 A 
ATOM      5  C   LIG    1        5.618   5.558  -2.443  0.00  0.00    +0.000 A 
ATOM      6  C   LIG    1        4.460   5.109  -3.061  0.00  0.00    +0.030 A 
ATOM      7  C   LIG    1        3.410   4.625  -2.309  0.00  0.00    +0.010 A 
ATOM      8  C   LIG    1        3.514   4.587  -0.926  0.00  0.00    +0.050 A 
ATOM      9  N   LIG    1        2.675   4.176   0.091  0.00  0.00    -0.490 N 
ENDROOT
BRANCH   1  10
ATOM     10  C   LIG    1        2.770   4.082   2.631  0.00  0.00    +0.420 C 
BRANCH  10  12
ATOM     11  C   LIG    1        0.801   5.651   2.947  0.00  0.00    +0.300 C 
ATOM     12  N   LIG    1        2.199   5.302   3.209  0.00  0.00    -0.610 N 
ATOM     13  C   LIG    1        2.961   6.102   3.981  0.00  0.00    +0.600 C 
ATOM     14  O   LIG    1        4.147   5.867   4.116  0.00  0.00    -0.490 OA
BRANCH  13  15
ATOM     15  C   LIG    1        2.359   7.255   4.659  0.00  0.00    -0.080 A 
ATOM     16  C   LIG    1        3.030   8.201   5.380  0.00  0.00    +0.050 A 
ATOM     17  C   LIG    1        2.067   9.113   5.842  0.00  0.00    -0.060 A 
ATOM     18  C   LIG    1        0.866   8.683   5.397  0.00  0.00    +0.200 A 
ATOM     19  O   LIG    1        1.046   7.564   4.684  0.00  0.00    -0.160 OA
ENDBRANCH  13  15
ENDBRANCH  10  12
ENDBRANCH   1  10
BRANCH   9  20
ATOM     20  C   LIG    1        1.329   3.621  -0.066  0.00  0.00    +0.300 C 
BRANCH  20  21
ATOM     21  C   LIG    1        1.407   2.094  -0.101  0.00  0.00    +0.020 C 
BRANCH  21  22
ATOM     22  C   LIG    1       -0.007   1.510  -0.139  0.00  0.00    +0.040 C 
BRANCH  22  23
ATOM     23  C   LIG    1        0.072  -0.017  -0.173  0.00  0.00    +0.200 C 
BRANCH  23  24
ATOM     24  O   LIG    1       -1.248  -0.562  -0.209  0.00  0.00    -0.310 OA
BRANCH  24  25
ATOM     25  C   LIG    1       -1.357  -1.916  -0.243  0.00  0.00    +0.140 A 
ATOM     26  C   LIG    1       -0.215  -2.704  -0.248  0.00  0.00    -0.060 A 
ATOM     27  C   LIG    1       -0.327  -4.081  -0.278  0.00  0.00    +0.070 A 
ATOM     28  C   LIG    1       -1.577  -4.673  -0.313  0.00  0.00    -0.070 A 
ATOM     29  C   LIG    1       -2.717  -3.889  -0.313  0.00  0.00    +0.070 A 
ATOM     30 CL   LIG    1       -1.716  -6.403  -0.357  0.00  0.00    -0.070 Cl
ATOM     31  C   LIG    1       -2.609  -2.512  -0.279  0.00  0.00    +0.000 A 
ENDBRANCH  24  25
ENDBRANCH  23  24
ENDBRANCH  22  23
ENDBRANCH  21  22
ENDBRANCH  20  21
ENDBRANCH   9  20
TORSDOF 9
