REMARK  Name = ZINCnE000001T8C2.0
REMARK                            x       y       z     vdW  Elec       q    Type
REMARK                         _______ _______ _______ _____ _____    ______ ____
ROOT
ATOM      1  O   LIG    1        6.448   2.624  -0.045  0.00  0.00    -0.590 OA
ATOM      2  C   LIG    1        6.113   1.454  -0.049  0.00  0.00    +0.580 C 
ATOM      3  N   LIG    1        7.050   0.485  -0.062  0.00  0.00    -1.120 NA
ENDROOT
BRANCH   2   4
ATOM      4  C   LIG    1        4.689   1.099  -0.037  0.00  0.00    -0.130 A 
ATOM      5  C   LIG    1        3.684   1.983  -0.023  0.00  0.00    -0.030 A 
ATOM      6  C   LIG    1        2.392   1.431  -0.013  0.00  0.00    -0.060 A 
ATOM      7  C   LIG    1        1.143   2.095   0.002  0.00  0.00    +0.080 A 
ATOM      8  C   LIG    1       -0.017   1.386   0.010  0.00  0.00    +0.020 A 
ATOM      9  C   LIG    1        0.002  -0.004   0.002  0.00  0.00    -0.020 A 
ATOM     10  C   LIG    1        1.201  -0.679  -0.013  0.00  0.00    +0.070 A 
ATOM     11 CL   LIG    1       -1.490  -0.890   0.011  0.00  0.00    -0.070 Cl
ATOM     12  C   LIG    1        2.406   0.030  -0.020  0.00  0.00    -0.160 A 
ATOM     13 CL   LIG    1        3.958   3.697  -0.017  0.00  0.00    -0.020 Cl
ATOM     14  S   LIG    1        4.070  -0.543  -0.039  0.00  0.00    +0.230 S 
ENDBRANCH   2   4
BRANCH   3  15
ATOM     15  S   LIG    1        8.656   0.886  -0.075  0.00  0.00    +2.580 S 
ATOM     16  O   LIG    1        8.861   1.551   1.163  0.00  0.00    -1.010 OA
ATOM     17  O   LIG    1        8.838   1.565  -1.311  0.00  0.00    -1.010 OA
BRANCH  15  18
ATOM     18  C   LIG    1        9.521  -0.709  -0.092  0.00  0.00    -0.480 C 
ATOM     19  C   LIG    1       11.030  -0.474   0.024  0.00  0.00    +0.050 C 
ATOM     20  C   LIG    1       11.742  -1.829   0.087  0.00  0.00    -0.010 C 
ATOM     21  C   LIG    1       11.187  -2.634   1.265  0.00  0.00    +0.200 C 
ATOM     22  O   LIG    1        9.775  -2.789   1.111  0.00  0.00    -0.380 OA
ATOM     23  C   LIG    1        9.050  -1.558   1.092  0.00  0.00    +0.270 C 
ENDBRANCH  15  18
ENDBRANCH   3  15
TORSDOF 3
