REMARK  Name = ZINCvU00000006KF.0
REMARK                            x       y       z     vdW  Elec       q    Type
REMARK                         _______ _______ _______ _____ _____    ______ ____
ROOT
ATOM      1  C   LIG    1        8.018   2.149  -0.075  0.00  0.00    +0.190 C 
ATOM      2  C   LIG    1        8.517   2.175  -1.521  0.00  0.00    +0.090 C 
ENDROOT
BRANCH   1   3
ATOM      3  C   LIG    1        8.508   3.378   0.648  0.00  0.00    +0.520 C 
ATOM      4  N   LIG    1        9.831   3.609   0.763  0.00  0.00    -0.660 N 
ATOM      5  H   LIG    1       10.468   2.947   0.453  0.00  0.00    +0.420 HD
ATOM      6  O   LIG    1        7.712   4.158   1.125  0.00  0.00    -0.480 OA
BRANCH   4   7
ATOM      7  C   LIG    1       10.285   4.805   1.331  0.00  0.00    +0.160 A 
ATOM      8  C   LIG    1        9.482   5.937   1.305  0.00  0.00    +0.100 A 
ATOM      9  C   LIG    1        9.931   7.114   1.871  0.00  0.00    -0.160 A 
ATOM     10  C   LIG    1       11.183   7.170   2.454  0.00  0.00    +0.070 A 
ATOM     11  C   LIG    1       11.989   6.046   2.477  0.00  0.00    +0.060 A 
ATOM     12  C   LIG    1       11.544   4.864   1.918  0.00  0.00    -0.040 A 
ATOM     13 CL   LIG    1       12.556   3.454   1.947  0.00  0.00    -0.050 Cl
BRANCH   9  14
ATOM     14  C   LIG    1        9.056   8.342   1.848  0.00  0.00    +0.510 C 
ATOM     15  F   LIG    1        7.863   8.077   2.529  0.00  0.00    -0.170 F 
ATOM     16  F   LIG    1        8.770   8.686   0.523  0.00  0.00    -0.170 F 
ATOM     17  F   LIG    1        9.723   9.402   2.471  0.00  0.00    -0.170 F 
ENDBRANCH   9  14
ENDBRANCH   4   7
ENDBRANCH   1   3
BRANCH   1  18
ATOM     18  O   LIG    1        6.566   2.128  -0.064  0.00  0.00    -0.310 OA
BRANCH  18  19
ATOM     19  C   LIG    1        5.972   0.917  -0.074  0.00  0.00    +0.560 C 
ATOM     20  O   LIG    1        6.649  -0.092  -0.093  0.00  0.00    -0.470 OA
BRANCH  19  22
ATOM     21  C   LIG    1        3.801  -0.343  -0.073  0.00  0.00    -0.060 A 
ATOM     22  C   LIG    1        4.507   0.819  -0.064  0.00  0.00    +0.010 A 
ATOM     23  O   LIG    1        3.658   1.868  -0.043  0.00  0.00    -0.160 OA
ATOM     24  C   LIG    1        2.378   1.449  -0.038  0.00  0.00    +0.080 A 
ATOM     25  C   LIG    1        1.158   2.115  -0.019  0.00  0.00    +0.030 A 
ATOM     26  C   LIG    1       -0.017   1.394  -0.018  0.00  0.00    +0.070 A 
ATOM     27  C   LIG    1        0.001   0.007  -0.037  0.00  0.00    +0.010 A 
ATOM     28  C   LIG    1        1.188  -0.670  -0.056  0.00  0.00    +0.080 A 
ATOM     29  C   LIG    1        2.390   0.041  -0.057  0.00  0.00    -0.140 A 
BRANCH  21  30
ATOM     30  C   LIG    1        4.360  -1.742  -0.096  0.00  0.00    +0.270 C 
BRANCH  30  32
ATOM     31  C   LIG    1        5.051  -3.489  -1.584  0.00  0.00    +0.210 C 
ATOM     32  O   LIG    1        4.525  -2.168  -1.450  0.00  0.00    -0.380 OA
ENDBRANCH  30  32
ENDBRANCH  21  30
ENDBRANCH  19  22
ENDBRANCH  18  19
ENDBRANCH   1  18
TORSDOF 8
