REMARK  Name = ZINCvU0000000Jac.0
REMARK                            x       y       z     vdW  Elec       q    Type
REMARK                         _______ _______ _______ _____ _____    ______ ____
ROOT
ATOM      1  N   LIG    1       -4.588   2.806   2.765  0.00  0.00    -0.510 N 
ATOM      2  C   LIG    1       -3.491   2.593   2.013  0.00  0.00    +0.560 A 
ATOM      3  C   LIG    1       -3.550   1.629   0.966  0.00  0.00    -0.230 A 
ATOM      4  C   LIG    1       -4.746   0.947   0.769  0.00  0.00    +0.090 A 
ATOM      5  S   LIG    1       -4.579  -0.183  -0.568  0.00  0.00    +0.220 S 
ATOM      6  C   LIG    1       -2.911   0.279  -0.845  0.00  0.00    -0.040 A 
ATOM      7  N   LIG    1       -5.803   1.214   1.564  0.00  0.00    -0.520 NA
ATOM      8  C   LIG    1       -2.519   1.214   0.020  0.00  0.00    +0.040 A 
ATOM      9  O   LIG    1       -2.465   3.216   2.225  0.00  0.00    -0.500 OA
ATOM     10  C   LIG    1       -5.734   2.104   2.523  0.00  0.00    +0.360 A 
ENDROOT
BRANCH   8  11
ATOM     11  C   LIG    1       -1.157   1.788   0.017  0.00  0.00    -0.140 A 
ATOM     12  C   LIG    1       -0.013   1.076   0.008  0.00  0.00    +0.020 A 
ATOM     13  C   LIG    1        1.140   1.837   0.001  0.00  0.00    +0.000 A 
ATOM     14  C   LIG    1        0.945   3.158   0.010  0.00  0.00    -0.060 A 
ATOM     15  S   LIG    1       -0.778   3.506   0.028  0.00  0.00    +0.180 S 
ENDBRANCH   8  11
BRANCH   1  17
ATOM     16  C   LIG    1       -4.972   5.160   3.304  0.00  0.00    +0.050 C 
ATOM     17  C   LIG    1       -4.552   3.793   3.847  0.00  0.00    +0.290 C 
ENDBRANCH   1  17
BRANCH  10  18
ATOM     18  S   LIG    1       -7.153   2.403   3.524  0.00  0.00    +0.100 S 
BRANCH  18  19
ATOM     19  C   LIG    1       -8.318   1.238   2.774  0.00  0.00    +0.100 C 
BRANCH  19  20
ATOM     20  C   LIG    1       -9.642   1.320   3.489  0.00  0.00    +0.530 C 
ATOM     21  N   LIG    1      -10.668   0.537   3.100  0.00  0.00    -0.720 N 
ATOM     22  H   LIG    1      -10.554  -0.079   2.359  0.00  0.00    +0.410 HD
ATOM     23  O   LIG    1       -9.784   2.090   4.415  0.00  0.00    -0.520 OA
BRANCH  21  24
ATOM     24  C   LIG    1      -11.955   0.617   3.795  0.00  0.00    +0.300 C 
BRANCH  24  25
ATOM     25  C   LIG    1      -12.939  -0.367   3.160  0.00  0.00    +0.070 C 
BRANCH  25  26
ATOM     26  S   LIG    1      -14.533  -0.269   4.021  0.00  0.00    -0.090 S 
BRANCH  26  27
ATOM     27  C   LIG    1      -15.519  -1.452   3.166  0.00  0.00    -0.090 A 
ATOM     28  C   LIG    1      -14.982  -2.170   2.104  0.00  0.00    -0.010 A 
ATOM     29  C   LIG    1      -15.756  -3.100   1.440  0.00  0.00    +0.030 A 
ATOM     30  C   LIG    1      -17.068  -3.311   1.824  0.00  0.00    +0.010 A 
ATOM     31  C   LIG    1      -17.608  -2.595   2.877  0.00  0.00    +0.030 A 
ATOM     32  C   LIG    1      -16.838  -1.666   3.549  0.00  0.00    +0.030 A 
ENDBRANCH  26  27
ENDBRANCH  25  26
ENDBRANCH  24  25
ENDBRANCH  21  24
ENDBRANCH  19  20
ENDBRANCH  18  19
ENDBRANCH  10  18
TORSDOF 9
