REMARK  Name = ZINCvU00000004d9.0
REMARK                            x       y       z     vdW  Elec       q    Type
REMARK                         _______ _______ _______ _____ _____    ______ ____
ROOT
ATOM      1  C   LIG    1        3.313   6.979  -1.431  0.00  0.00    +0.100 C 
ATOM      2  C   LIG    1        2.862   6.728   0.010  0.00  0.00    +0.040 C 
ENDROOT
BRANCH   2   3
ATOM      3  C   LIG    1        1.732   5.732   0.016  0.00  0.00    +0.540 C 
ATOM      4  N   LIG    1        1.998   4.411   0.006  0.00  0.00    -0.610 N 
ATOM      5  H   LIG    1        2.917   4.101  -0.005  0.00  0.00    +0.430 HD
ATOM      6  O   LIG    1        0.582   6.119   0.030  0.00  0.00    -0.480 OA
BRANCH   4   7
ATOM      7  C   LIG    1        0.955   3.492   0.012  0.00  0.00    +0.270 A 
ATOM      8  N   LIG    1        1.093   2.203   0.004  0.00  0.00    -0.490 NA
ATOM      9  C   LIG    1       -0.018   1.479   0.010  0.00  0.00    +0.130 A 
ATOM     10  C   LIG    1       -1.165   2.182   0.019  0.00  0.00    -0.110 A 
ATOM     11  S   LIG    1       -0.758   3.897   0.030  0.00  0.00    +0.210 S 
BRANCH   9  12
ATOM     12  C   LIG    1        0.002  -0.004   0.002  0.00  0.00    -0.030 A 
ATOM     13  C   LIG    1       -1.194  -0.720   0.015  0.00  0.00    +0.030 A 
ATOM     14  C   LIG    1       -1.169  -2.100   0.003  0.00  0.00    +0.010 A 
ATOM     15  C   LIG    1        0.040  -2.772  -0.012  0.00  0.00    +0.010 A 
ATOM     16  C   LIG    1        1.230  -2.067  -0.020  0.00  0.00    +0.010 A 
ATOM     17  C   LIG    1        1.217  -0.687  -0.013  0.00  0.00    +0.040 A 
ENDBRANCH   9  12
ENDBRANCH   4   7
ENDBRANCH   2   3
BRANCH   2  18
ATOM     18  S   LIG    1        2.299   8.287   0.747  0.00  0.00    +0.100 S 
BRANCH  18  19
ATOM     19  C   LIG    1        3.767   9.259   0.789  0.00  0.00    +0.130 A 
ATOM     20  N   LIG    1        4.959   8.888   0.378  0.00  0.00    -0.240 NA
ATOM     21  N   LIG    1        5.807   9.840   0.550  0.00  0.00    -0.240 NA
ATOM     22  C   LIG    1        5.203  10.881   1.094  0.00  0.00    +0.210 A 
ATOM     23  C   LIG    1        5.643  12.160   1.492  0.00  0.00    +0.010 A 
ATOM     24  C   LIG    1        4.750  13.030   2.035  0.00  0.00    +0.120 A 
ATOM     25  C   LIG    1        3.405  12.646   2.193  0.00  0.00    -0.190 A 
ATOM     26  C   LIG    1        2.995  11.421   1.809  0.00  0.00    +0.340 A 
ATOM     27 CL   LIG    1        7.305  12.619   1.291  0.00  0.00    +0.010 Cl
ATOM     28  N   LIG    1        3.879  10.534   1.261  0.00  0.00    -0.380 N 
BRANCH  25  29
ATOM     29  C   LIG    1        2.417  13.612   2.795  0.00  0.00    +0.530 C 
ATOM     30  F   LIG    1        1.127  13.295   2.354  0.00  0.00    -0.170 F 
ATOM     31  F   LIG    1        2.737  14.915   2.400  0.00  0.00    -0.160 F 
ATOM     32  F   LIG    1        2.468  13.521   4.190  0.00  0.00    -0.160 F 
ENDBRANCH  25  29
ENDBRANCH  18  19
ENDBRANCH   2  18
TORSDOF 6
