REMARK  Name = ZINCpe000000TnHT.0
REMARK                            x       y       z     vdW  Elec       q    Type
REMARK                         _______ _______ _______ _____ _____    ______ ____
ROOT
ATOM      1  C   LIG    1       -0.718   1.572   1.248  0.00  0.00    +0.500 C 
ATOM      2  N   LIG    1       -1.822   0.936   1.688  0.00  0.00    -0.730 N 
ATOM      3  H   LIG    1       -2.162   0.166   1.207  0.00  0.00    +0.400 HD
ATOM      4  O   LIG    1       -0.292   2.535   1.849  0.00  0.00    -0.500 OA
ENDROOT
BRANCH   1   5
ATOM      5  C   LIG    1       -0.013   1.086   0.008  0.00  0.00    +0.270 C 
BRANCH   5   6
ATOM      6  N   LIG    1        1.362   1.593  -0.002  0.00  0.00    -0.730 N 
ATOM      7  H   LIG    1        2.107   0.973  -0.013  0.00  0.00    +0.400 HD
ATOM      8  C   LIG    1        1.590   2.921   0.003  0.00  0.00    +0.710 C 
ATOM      9  O   LIG    1        0.655   3.699   0.016  0.00  0.00    -0.570 OA
ATOM     10  N   LIG    1        2.854   3.388  -0.007  0.00  0.00    -0.870 N 
ATOM     11  H   LIG    1        3.019   4.344  -0.003  0.00  0.00    +0.410 HD
ATOM     12  H   LIG    1        3.600   2.768  -0.018  0.00  0.00    +0.390 HD
ENDBRANCH   5   6
BRANCH   5  13
ATOM     13  C   LIG    1       -0.753   1.593  -1.232  0.00  0.00    +0.030 C 
BRANCH  13  15
ATOM     14  C   LIG    1       -0.851   1.505  -3.727  0.00  0.00    +0.010 C 
ATOM     15  C   LIG    1       -0.111   0.998  -2.487  0.00  0.00    +0.000 C 
ENDBRANCH  13  15
ENDBRANCH   5  13
ENDBRANCH   1   5
BRANCH   2  16
ATOM     16  C   LIG    1       -2.508   1.409   2.894  0.00  0.00    +0.320 C 
BRANCH  16  17
ATOM     17  C   LIG    1       -3.702   0.532   3.168  0.00  0.00    -0.130 A 
ATOM     18  C   LIG    1       -4.934   0.853   2.628  0.00  0.00    +0.090 A 
ATOM     19  C   LIG    1       -6.029   0.047   2.877  0.00  0.00    +0.000 A 
ATOM     20  C   LIG    1       -5.894  -1.076   3.672  0.00  0.00    +0.130 A 
ATOM     21  C   LIG    1       -4.664  -1.394   4.216  0.00  0.00    -0.680 A 
ATOM     22  C   LIG    1       -3.568  -0.590   3.964  0.00  0.00    +0.140 A 
BRANCH  21  23
ATOM     23  S   LIG    1       -4.492  -2.825   5.230  0.00  0.00    +2.690 S 
ATOM     24  O   LIG    1       -3.122  -3.195   5.173  0.00  0.00    -0.960 OA
ATOM     25  O   LIG    1       -5.550  -3.702   4.868  0.00  0.00    -0.950 OA
BRANCH  23  26
ATOM     26  N   LIG    1       -4.786  -2.357   6.791  0.00  0.00    -1.110 NA
ATOM     27  H   LIG    1       -4.077  -2.399   7.451  0.00  0.00    +0.420 HD
BRANCH  26  28
ATOM     28  C   LIG    1       -6.117  -1.881   7.175  0.00  0.00    +0.230 C 
ATOM     29  C   LIG    1       -6.154  -0.354   7.097  0.00  0.00    +0.010 C 
ATOM     30  C   LIG    1       -6.425  -2.326   8.606  0.00  0.00    +0.040 C 
ENDBRANCH  26  28
ENDBRANCH  23  26
ENDBRANCH  21  23
ENDBRANCH  16  17
ENDBRANCH   2  16
TORSDOF 9
