REMARK  Name = ZINCqH0000051d7U.0
REMARK                            x       y       z     vdW  Elec       q    Type
REMARK                         _______ _______ _______ _____ _____    ______ ____
ROOT
ATOM      1  O   LIG    1       -3.471   2.449   1.066  0.00  0.00    -0.510 OA
ATOM      2  C   LIG    1       -3.547   3.541   0.545  0.00  0.00    +0.520 C 
ATOM      3  N   LIG    1       -2.441   4.127   0.044  0.00  0.00    -0.670 N 
ATOM      4  H   LIG    1       -2.487   5.031  -0.304  0.00  0.00    +0.420 HD
ENDROOT
BRANCH   3   5
ATOM      5  C   LIG    1       -1.227   3.429   0.025  0.00  0.00    +0.150 A 
ATOM      6  C   LIG    1       -0.031   4.114   0.187  0.00  0.00    +0.010 A 
ATOM      7  C   LIG    1        1.171   3.429   0.169  0.00  0.00    +0.040 A 
ATOM      8  C   LIG    1        1.177   2.057  -0.013  0.00  0.00    +0.050 A 
ATOM      9  O   LIG    1        2.358   1.371  -0.033  0.00  0.00    -0.320 OA
ATOM     10  C   LIG    1        2.590   0.493   1.071  0.00  0.00    +0.230 C 
ATOM     11  C   LIG    1        1.931  -0.857   0.833  0.00  0.00    -0.010 C 
ATOM     12  C   LIG    1        0.415  -0.759   0.771  0.00  0.00    +0.230 C 
ATOM     13  O   LIG    1        0.003   0.016  -0.356  0.00  0.00    -0.320 OA
ATOM     14  C   LIG    1       -0.017   1.368  -0.176  0.00  0.00    +0.090 A 
ATOM     15  C   LIG    1       -1.220   2.052  -0.163  0.00  0.00    +0.030 A 
ENDBRANCH   3   5
BRANCH   2  16
ATOM     16  C   LIG    1       -4.877   4.244   0.458  0.00  0.00    +0.160 C 
BRANCH  16  17
ATOM     17  C   LIG    1       -5.942   3.383   1.087  0.00  0.00    -0.100 A 
ATOM     18  C   LIG    1       -6.641   2.472   0.314  0.00  0.00    +0.140 A 
ATOM     19  C   LIG    1       -7.617   1.676   0.892  0.00  0.00    +0.060 A 
ATOM     20  C   LIG    1       -7.901   1.800   2.243  0.00  0.00    +0.100 A 
ATOM     21  C   LIG    1       -7.205   2.717   3.015  0.00  0.00    +0.060 A 
ATOM     22  F   LIG    1       -7.481   2.839   4.332  0.00  0.00    -0.100 F 
ATOM     23  F   LIG    1       -8.856   1.029   2.806  0.00  0.00    -0.090 F 
ATOM     24  F   LIG    1       -8.295   0.783   0.139  0.00  0.00    -0.100 F 
ATOM     25  F   LIG    1       -6.367   2.355  -1.004  0.00  0.00    -0.100 F 
ATOM     26  C   LIG    1       -6.226   3.508   2.436  0.00  0.00    +0.140 A 
ATOM     27  F   LIG    1       -5.548   4.402   3.188  0.00  0.00    -0.100 F 
ENDBRANCH  16  17
ENDBRANCH   2  16
TORSDOF 3
