REMARK  Name = ZINCtV000002vs4N.0
REMARK                            x       y       z     vdW  Elec       q    Type
REMARK                         _______ _______ _______ _____ _____    ______ ____
ROOT
ATOM      1  N   LIG    1       -1.070  -2.193  -0.101  0.00  0.00    -0.610 N 
ATOM      2  C   LIG    1       -1.213  -0.903   0.261  0.00  0.00    +0.590 C 
ATOM      3  O   LIG    1       -2.322  -0.407   0.323  0.00  0.00    -0.490 OA
ENDROOT
BRANCH   2   4
ATOM      4  C   LIG    1       -0.029  -0.095   0.581  0.00  0.00    -0.250 A 
ATOM      5  C   LIG    1       -0.044   1.228   0.787  0.00  0.00    +0.050 A 
ATOM      6  C   LIG    1        1.202   1.808   1.081  0.00  0.00    -0.090 A 
ATOM      7  C   LIG    1        1.510   3.164   1.345  0.00  0.00    +0.070 A 
ATOM      8  C   LIG    1        2.788   3.542   1.613  0.00  0.00    +0.010 A 
ATOM      9  C   LIG    1        3.814   2.607   1.633  0.00  0.00    +0.060 A 
ATOM     10  C   LIG    1        3.547   1.282   1.382  0.00  0.00    +0.040 A 
ATOM     11  C   LIG    1        2.241   0.869   1.103  0.00  0.00    -0.160 A 
ATOM     12 CL   LIG    1       -1.502   2.164   0.689  0.00  0.00    -0.010 Cl
ATOM     13  S   LIG    1        1.598  -0.730   0.747  0.00  0.00    +0.200 S 
ENDBRANCH   2   4
BRANCH   1  14
ATOM     14  C   LIG    1        0.260  -2.806  -0.117  0.00  0.00    +0.290 C 
BRANCH  14  16
ATOM     15  C   LIG    1        2.022  -3.895   1.280  0.00  0.00    +0.040 C 
ATOM     16  C   LIG    1        0.632  -3.255   1.297  0.00  0.00    +0.010 C 
ENDBRANCH  14  16
ENDBRANCH   1  14
BRANCH   1  17
ATOM     17  C   LIG    1       -2.245  -2.982  -0.479  0.00  0.00    +0.480 C 
BRANCH  17  18
ATOM     18  C   LIG    1       -2.481  -2.854  -1.962  0.00  0.00    +0.140 A 
ATOM     19  N   LIG    1       -1.986  -3.625  -2.889  0.00  0.00    -0.270 NA
ATOM     20  N   LIG    1       -2.394  -3.227  -4.043  0.00  0.00    -0.270 NA
ATOM     21  C   LIG    1       -3.171  -2.180  -3.889  0.00  0.00    +0.210 A 
ATOM     22  O   LIG    1       -3.244  -1.928  -2.567  0.00  0.00    -0.190 OA
BRANCH  21  23
ATOM     23  C   LIG    1       -3.844  -1.423  -4.965  0.00  0.00    -0.020 A 
ATOM     24  C   LIG    1       -3.681  -1.803  -6.298  0.00  0.00    +0.090 A 
ATOM     25  C   LIG    1       -4.312  -1.092  -7.298  0.00  0.00    +0.020 A 
ATOM     26  C   LIG    1       -5.105  -0.003  -6.982  0.00  0.00    +0.060 A 
ATOM     27  C   LIG    1       -5.271   0.380  -5.663  0.00  0.00    +0.030 A 
ATOM     28  C   LIG    1       -4.651  -0.326  -4.652  0.00  0.00    -0.010 A 
ATOM     29 CL   LIG    1       -4.866   0.152  -2.998  0.00  0.00    -0.030 Cl
ENDBRANCH  21  23
ENDBRANCH  17  18
ENDBRANCH   1  17
TORSDOF 6
