REMARK  Name = ZINCrH000004nH1i.0
REMARK                            x       y       z     vdW  Elec       q    Type
REMARK                         _______ _______ _______ _____ _____    ______ ____
ROOT
ATOM      1  C   LIG    1       -1.989   2.447   3.521  0.00  0.00    +0.280 C 
ATOM      2  C   LIG    1       -3.238   1.549   3.390  0.00  0.00    +0.050 C 
ATOM      3  C   LIG    1       -4.273   2.264   4.302  0.00  0.00    +0.040 C 
ATOM      4  C   LIG    1       -3.371   2.797   5.443  0.00  0.00    +0.270 C 
ATOM      5  N   LIG    1       -2.120   3.201   4.776  0.00  0.00    -0.600 N 
ATOM      6  C   LIG    1       -1.240   4.111   5.241  0.00  0.00    +0.620 C 
ATOM      7  O   LIG    1       -0.236   4.366   4.604  0.00  0.00    -0.530 OA
ENDROOT
BRANCH   1  13
ATOM      8  C   LIG    1       -0.149   1.182   2.380  0.00  0.00    +0.140 A 
ATOM      9  C   LIG    1        0.991   0.392   2.421  0.00  0.00    -0.080 A 
ATOM     10  C   LIG    1        1.533   0.027   3.638  0.00  0.00    +0.040 A 
ATOM     11  C   LIG    1        0.935   0.440   4.814  0.00  0.00    -0.040 A 
ATOM     12  C   LIG    1       -0.204   1.223   4.776  0.00  0.00    +0.060 A 
ATOM     13  C   LIG    1       -0.747   1.595   3.562  0.00  0.00    -0.110 A 
BRANCH   8  15
ATOM     14  C   LIG    1       -0.013   1.086   0.008  0.00  0.00    +0.250 C 
ATOM     15  O   LIG    1       -0.682   1.547   1.184  0.00  0.00    -0.310 OA
ENDBRANCH   8  15
ENDBRANCH   1  13
BRANCH   6  16
ATOM     16  C   LIG    1       -1.496   4.797   6.521  0.00  0.00    -0.110 A 
ATOM     17  C   LIG    1       -0.689   5.734   7.101  0.00  0.00    +0.130 A 
ATOM     18  N   LIG    1       -1.284   6.104   8.252  0.00  0.00    -0.360 N 
ATOM     19  N   LIG    1       -2.471   5.364   8.352  0.00  0.00    -0.070 NA
ATOM     20  C   LIG    1        0.616   6.255   6.556  0.00  0.00    +0.180 C 
ATOM     21  N   LIG    1       -2.566   4.609   7.313  0.00  0.00    -0.200 NA
BRANCH  18  22
ATOM     22  C   LIG    1       -0.786   7.089   9.215  0.00  0.00    +0.330 C 
BRANCH  22  23
ATOM     23  C   LIG    1       -1.321   8.475   8.850  0.00  0.00    -0.030 C 
ATOM     24  C   LIG    1       -0.695   8.951   7.523  0.00  0.00    +0.010 C 
ATOM     25  C   LIG    1       -0.483  10.472   7.726  0.00  0.00    +0.020 C 
ATOM     26  C   LIG    1       -0.047  10.561   9.210  0.00  0.00    +0.010 C 
ATOM     27  C   LIG    1       -0.909   9.499   9.922  0.00  0.00    +0.020 C 
ENDBRANCH  22  23
ENDBRANCH  18  22
ENDBRANCH   6  16
TORSDOF 5
