REMARK  Name = ZINCrD00000l5TUo.1
REMARK                            x       y       z     vdW  Elec       q    Type
REMARK                         _______ _______ _______ _____ _____    ______ ____
ROOT
ATOM      1  N   LIG    1        2.214   4.092   0.893  0.00  0.00    -0.680 NA
ATOM      2  H   LIG    1        3.107   4.089   0.422  0.00  0.00    +0.340 HD
ENDROOT
BRANCH   1   3
ATOM      3  C   LIG    1        1.152   3.593   0.010  0.00  0.00    +0.220 C 
ATOM      4  C   LIG    1        1.382   4.113  -1.410  0.00  0.00    +0.010 C 
BRANCH   3   5
ATOM      5  C   LIG    1        1.172   2.086   0.002  0.00  0.00    -0.060 A 
ATOM      6  C   LIG    1        2.381   1.413  -0.013  0.00  0.00    +0.040 A 
ATOM      7  C   LIG    1        2.410   0.032  -0.021  0.00  0.00    +0.030 A 
ATOM      8  C   LIG    1        1.222  -0.683  -0.013  0.00  0.00    +0.090 A 
ATOM      9  N   LIG    1        0.926  -2.044  -0.017  0.00  0.00    -0.640 N 
ATOM     10  H   LIG    1        1.573  -2.766  -0.027  0.00  0.00    +0.440 HD
ATOM     11  C   LIG    1       -0.413  -2.186  -0.005  0.00  0.00    +0.680 A 
ATOM     12  N   LIG    1       -0.998  -0.974   0.007  0.00  0.00    -0.640 N 
ATOM     13  H   LIG    1       -1.953  -0.804   0.017  0.00  0.00    +0.440 HD
ATOM     14  O   LIG    1       -1.005  -3.250  -0.005  0.00  0.00    -0.560 OA
ATOM     15  C   LIG    1        0.002  -0.004   0.002  0.00  0.00    +0.090 A 
ATOM     16  C   LIG    1       -0.017   1.382   0.010  0.00  0.00    +0.030 A 
ENDBRANCH   3   5
ENDBRANCH   1   3
BRANCH   1  17
ATOM     17  C   LIG    1        1.891   5.433   1.399  0.00  0.00    +0.260 C 
BRANCH  17  23
ATOM     18  C   LIG    1        4.654   6.663   0.455  0.00  0.00    +0.160 C 
ATOM     19  C   LIG    1        4.222   6.454   1.883  0.00  0.00    +0.090 A 
ATOM     20  N   LIG    1        4.922   6.752   2.948  0.00  0.00    -0.290 NA
ATOM     21  N   LIG    1        4.172   6.400   4.078  0.00  0.00    -0.320 N 
ATOM     22  C   LIG    1        2.997   5.885   3.652  0.00  0.00    +0.260 A 
ATOM     23  C   LIG    1        3.002   5.911   2.299  0.00  0.00    -0.220 A 
BRANCH  21  24
ATOM     24  C   LIG    1        4.571   6.553   5.414  0.00  0.00    +0.150 A 
ATOM     25  C   LIG    1        3.722   6.165   6.441  0.00  0.00    +0.030 A 
ATOM     26  C   LIG    1        4.118   6.312   7.756  0.00  0.00    +0.030 A 
ATOM     27  C   LIG    1        5.356   6.858   8.050  0.00  0.00    +0.090 A 
ATOM     28  C   LIG    1        6.202   7.251   7.026  0.00  0.00    +0.020 A 
ATOM     29  F   LIG    1        5.740   7.007   9.337  0.00  0.00    -0.130 F 
ATOM     30  C   LIG    1        5.812   7.100   5.710  0.00  0.00    +0.060 A 
ENDBRANCH  21  24
ENDBRANCH  17  23
ENDBRANCH   1  17
TORSDOF 5
