REMARK  Name = ZINCnE000001TCH6.0
REMARK                            x       y       z     vdW  Elec       q    Type
REMARK                         _______ _______ _______ _____ _____    ______ ____
ROOT
ATOM      1  C   LIG    1       -1.442   2.984  -3.532  0.00  0.00    -0.150 A 
ATOM      2  C   LIG    1       -2.595   2.239  -3.786  0.00  0.00    +0.120 A 
ATOM      3  C   LIG    1       -2.991   1.253  -2.902  0.00  0.00    -0.140 A 
ATOM      4  C   LIG    1       -2.242   1.000  -1.766  0.00  0.00    -0.010 A 
ATOM      5  C   LIG    1       -1.099   1.742  -1.507  0.00  0.00    -0.670 A 
ATOM      6  C   LIG    1       -2.885  -0.114  -0.968  0.00  0.00    +0.070 C 
ATOM      7  C   LIG    1       -4.327  -0.221  -1.509  0.00  0.00    +0.030 C 
ATOM      8  C   LIG    1       -4.182   0.320  -2.947  0.00  0.00    +0.080 C 
ATOM      9  C   LIG    1       -0.694   2.727  -2.381  0.00  0.00    +0.170 A 
ENDROOT
BRANCH   1  11
ATOM     10  O   LIG    1       -0.007   4.689  -4.248  0.00  0.00    -0.680 OA
ATOM     11  C   LIG    1       -1.017   4.037  -4.474  0.00  0.00    +0.520 C 
ATOM     12  O   LIG    1       -1.675   4.259  -5.481  0.00  0.00    -0.680 OA
ENDBRANCH   1  11
BRANCH   5  13
ATOM     13  S   LIG    1       -0.155   1.418  -0.055  0.00  0.00    +2.690 S 
ATOM     14  O   LIG    1        0.926   2.340  -0.065  0.00  0.00    -0.950 OA
ATOM     15  O   LIG    1        0.026   0.009  -0.001  0.00  0.00    -0.950 OA
BRANCH  13  16
ATOM     16  N   LIG    1       -1.100   1.818   1.244  0.00  0.00    -1.060 N 
ATOM     17  H   LIG    1       -1.349   1.140   1.891  0.00  0.00    +0.420 HD
BRANCH  16  18
ATOM     18  C   LIG    1       -1.540   3.134   1.408  0.00  0.00    +0.160 A 
ATOM     19  C   LIG    1       -0.650   4.189   1.256  0.00  0.00    +0.030 A 
ATOM     20  C   LIG    1       -1.089   5.490   1.413  0.00  0.00    +0.050 A 
ATOM     21  C   LIG    1       -2.411   5.741   1.733  0.00  0.00    +0.040 A 
ATOM     22  C   LIG    1       -3.299   4.692   1.892  0.00  0.00    -0.070 A 
ATOM     23 BR   LIG    1       -5.105   5.041   2.331  0.00  0.00    -0.050 Br
ATOM     24  C   LIG    1       -2.867   3.389   1.730  0.00  0.00    +0.040 A 
ENDBRANCH  16  18
ENDBRANCH  13  16
ENDBRANCH   5  13
TORSDOF 4
