REMARK  Name = ZINCb80000003W7W.0
REMARK                            x       y       z     vdW  Elec       q    Type
REMARK                         _______ _______ _______ _____ _____    ______ ____
ROOT
ATOM      1  O   LIG    1        1.130   2.868   0.007  0.00  0.00    -0.440 OA
ATOM      2  C   LIG    1        1.147   1.655   0.000  0.00  0.00    +0.510 C 
ATOM      3  N   LIG    1       -0.011   0.966   0.007  0.00  0.00    -0.690 N 
ATOM      4  H   LIG    1        0.002  -0.004   0.002  0.00  0.00    +0.410 HD
ATOM      5  C   LIG    1       -1.187   1.624   0.017  0.00  0.00    +0.700 C 
ATOM      6  N   LIG    1       -2.345   0.934   0.018  0.00  0.00    -0.710 N 
ATOM      7  H   LIG    1       -2.332  -0.036   0.013  0.00  0.00    +0.400 HD
ATOM      8  O   LIG    1       -1.204   2.839   0.023  0.00  0.00    -0.520 OA
ENDROOT
BRANCH   6   9
ATOM      9  C   LIG    1       -3.624   1.649   0.028  0.00  0.00    +0.230 C 
ATOM     10  C   LIG    1       -4.715   1.133   0.969  0.00  0.00    +0.020 C 
ATOM     11  C   LIG    1       -4.844   0.923  -0.542  0.00  0.00    +0.020 C 
ENDBRANCH   6   9
BRANCH   2  12
ATOM     12  C   LIG    1        2.462   0.920  -0.017  0.00  0.00    +0.190 C 
ATOM     13 CL   LIG    1        3.816   2.110  -0.023  0.00  0.00    -0.120 Cl
ENDBRANCH   2  12
TORSDOF 2
