REMARK  Name = ZINCtV000002GfZo.0
REMARK                            x       y       z     vdW  Elec       q    Type
REMARK                         _______ _______ _______ _____ _____    ______ ____
ROOT
ATOM      1  C   LIG    1       -2.530   1.699   0.193  0.00  0.00    +0.550 C 
ATOM      2  N   LIG    1       -3.688   2.368   0.032  0.00  0.00    -0.670 N 
ATOM      3  H   LIG    1       -3.687   3.337  -0.011  0.00  0.00    +0.410 HD
ATOM      4  O   LIG    1       -2.540   0.492   0.343  0.00  0.00    -0.490 OA
ENDROOT
BRANCH   1  10
ATOM      5  C   LIG    1       -0.039   1.737   0.351  0.00  0.00    -0.040 A 
ATOM      6  C   LIG    1        1.161   2.437   0.337  0.00  0.00    -0.020 A 
ATOM      7  C   LIG    1        1.161   3.806   0.164  0.00  0.00    +0.070 A 
ATOM      8  C   LIG    1       -0.033   4.493   0.005  0.00  0.00    +0.000 A 
ATOM      9  C   LIG    1       -1.233   3.817   0.017  0.00  0.00    +0.070 A 
ATOM     10  C   LIG    1       -1.250   2.430   0.185  0.00  0.00    -0.130 A 
BRANCH   5  11
ATOM     11  S   LIG    1       -0.042  -0.012   0.571  0.00  0.00    +0.030 S 
BRANCH  11  12
ATOM     12  C   LIG    1        1.721  -0.406   0.728  0.00  0.00    +0.120 C 
BRANCH  12  16
ATOM     13  C   LIG    1        2.347  -5.407   0.010  0.00  0.00    +0.190 C 
ATOM     14  C   LIG    1        2.157  -4.031   0.596  0.00  0.00    -0.030 A 
ATOM     15  C   LIG    1        2.050  -2.866  -0.087  0.00  0.00    -0.050 A 
ATOM     16  C   LIG    1        1.888  -1.891   0.924  0.00  0.00    +0.030 A 
ATOM     17  N   LIG    1        1.918  -2.529   2.058  0.00  0.00    -0.350 NA
ATOM     18  O   LIG    1        2.060  -3.719   1.896  0.00  0.00    +0.110 OA
ENDBRANCH  12  16
ENDBRANCH  11  12
ENDBRANCH   5  11
ENDBRANCH   1  10
BRANCH   2  19
ATOM     19  C   LIG    1       -4.892   1.666  -0.071  0.00  0.00    +0.150 A 
ATOM     20  C   LIG    1       -4.919   0.422  -0.690  0.00  0.00    +0.020 A 
ATOM     21  C   LIG    1       -6.104  -0.275  -0.788  0.00  0.00    +0.040 A 
ATOM     22  C   LIG    1       -7.279   0.274  -0.277  0.00  0.00    -0.060 A 
ATOM     23  C   LIG    1       -7.251   1.525   0.338  0.00  0.00    +0.040 A 
ATOM     24  C   LIG    1       -6.062   2.216   0.439  0.00  0.00    -0.010 A 
BRANCH  22  25
ATOM     25  C   LIG    1       -8.557  -0.471  -0.388  0.00  0.00    -0.040 A 
ATOM     26  C   LIG    1       -9.731   0.075   0.127  0.00  0.00    +0.010 A 
ATOM     27  C   LIG    1      -10.918  -0.621   0.018  0.00  0.00    +0.000 A 
ATOM     28  C   LIG    1      -10.942  -1.861  -0.594  0.00  0.00    +0.000 A 
ATOM     29  C   LIG    1       -9.778  -2.410  -1.102  0.00  0.00    +0.000 A 
ATOM     30  C   LIG    1       -8.587  -1.721  -1.002  0.00  0.00    +0.020 A 
ENDBRANCH  22  25
ENDBRANCH   2  19
TORSDOF 6
