REMARK  Name = ZINCkj000005mfB8.1
REMARK                            x       y       z     vdW  Elec       q    Type
REMARK                         _______ _______ _______ _____ _____    ______ ____
ROOT
ATOM      1  O   LIG    1       -1.327   6.259   0.589  0.00  0.00    -0.930 OA
ATOM      2  S   LIG    1       -0.078   5.877   0.031  0.00  0.00    +2.700 S 
ATOM      3  O   LIG    1        1.172   6.293   0.565  0.00  0.00    -0.920 OA
ENDROOT
BRANCH   2   4
ATOM      4  C   LIG    1       -0.054   4.115   0.023  0.00  0.00    -0.790 A 
ATOM      5  C   LIG    1        1.154   3.439   0.009  0.00  0.00    +0.260 A 
ATOM      6  C   LIG    1        1.173   2.055   0.002  0.00  0.00    -0.050 A 
ATOM      7  C   LIG    1       -0.016   1.347   0.009  0.00  0.00    +0.230 A 
ATOM      8  C   LIG    1       -1.224   2.023   0.019  0.00  0.00    -0.050 A 
ATOM      9  F   LIG    1        0.002  -0.004   0.002  0.00  0.00    -0.100 F 
ATOM     10  F   LIG    1        2.315   4.131   0.001  0.00  0.00    -0.090 F 
ATOM     11  C   LIG    1       -1.243   3.407   0.031  0.00  0.00    +0.260 A 
ATOM     12  F   LIG    1       -2.422   4.066   0.046  0.00  0.00    -0.100 F 
ENDBRANCH   2   4
BRANCH   2  13
ATOM     13  N   LIG    1       -0.100   6.374  -1.548  0.00  0.00    -1.110 NA
ATOM     14  H   LIG    1        0.651   6.869  -1.912  0.00  0.00    +0.420 HD
BRANCH  13  15
ATOM     15  C   LIG    1       -1.254   6.067  -2.397  0.00  0.00    +0.300 C 
BRANCH  15  16
ATOM     16  C   LIG    1       -1.204   6.932  -3.658  0.00  0.00    -0.010 C 
ATOM     17  C   LIG    1       -1.371   8.405  -3.274  0.00  0.00    +0.050 C 
ATOM     18  C   LIG    1       -1.399   9.254  -4.548  0.00  0.00    +0.060 C 
ATOM     19  C   LIG    1       -2.525   8.761  -5.459  0.00  0.00    +0.250 C 
ATOM     20  N   LIG    1       -2.295   7.355  -5.811  0.00  0.00    -0.500 N 
ATOM     21  H   LIG    1       -3.010   7.050  -6.454  0.00  0.00    +0.430 HD
ATOM     22  H   LIG    1       -1.390   7.263  -6.248  0.00  0.00    +0.430 HD
ATOM     23  C   LIG    1       -2.338   6.525  -4.601  0.00  0.00    +0.270 C 
ENDBRANCH  15  16
ENDBRANCH  13  15
ENDBRANCH   2  13
TORSDOF 4
