REMARK  Name = ZINCrD000000CNhV.0
REMARK                            x       y       z     vdW  Elec       q    Type
REMARK                         _______ _______ _______ _____ _____    ______ ____
ROOT
ATOM      1  N   LIG    1        3.421  -2.257  -0.719  0.00  0.00    -0.730 N 
ATOM      2  H   LIG    1        3.741  -2.255  -1.635  0.00  0.00    +0.400 HD
ENDROOT
BRANCH   1   3
ATOM      3  C   LIG    1        3.614  -1.076   0.127  0.00  0.00    +0.260 C 
ATOM      4  C   LIG    1        4.816  -0.277  -0.382  0.00  0.00    +0.040 C 
ATOM      5  C   LIG    1        4.832   1.081   0.331  0.00  0.00    +0.050 C 
ATOM      6  C   LIG    1        3.623   1.893  -0.134  0.00  0.00    +0.260 C 
ATOM      7  N   LIG    1        2.403   1.105  -0.015  0.00  0.00    -0.570 N 
ATOM      8  C   LIG    1        2.378  -0.225   0.087  0.00  0.00    +0.490 C 
ATOM      9  O   LIG    1        1.299  -0.776   0.145  0.00  0.00    -0.510 OA
BRANCH   7  10
ATOM     10  C   LIG    1        1.180   1.787   0.000  0.00  0.00    +0.120 A 
ATOM     11  C   LIG    1        0.517   2.051  -1.190  0.00  0.00    +0.050 A 
ATOM     12  C   LIG    1       -0.687   2.729  -1.174  0.00  0.00    -0.010 A 
ATOM     13  C   LIG    1       -1.238   3.134   0.030  0.00  0.00    +0.110 A 
ATOM     14  C   LIG    1       -0.578   2.872   1.219  0.00  0.00    +0.000 A 
ATOM     15  F   LIG    1       -2.418   3.791   0.044  0.00  0.00    -0.140 F 
ATOM     16  C   LIG    1        0.629   2.200   1.206  0.00  0.00    +0.050 A 
ENDBRANCH   7  10
ENDBRANCH   1   3
BRANCH   1  21
ATOM     17  C   LIG    1        1.954  -5.619  -0.498  0.00  0.00    -0.060 A 
ATOM     18  C   LIG    1        1.498  -5.620   0.807  0.00  0.00    -0.040 A 
ATOM     19  C   LIG    1        1.680  -4.506   1.607  0.00  0.00    +0.050 A 
ATOM     20  C   LIG    1        2.317  -3.389   1.104  0.00  0.00    -0.050 A 
ATOM     21  C   LIG    1        2.776  -3.385  -0.207  0.00  0.00    +0.220 A 
ATOM     22  C   LIG    1        2.588  -4.503  -1.009  0.00  0.00    -0.060 A 
BRANCH  17  27
ATOM     23  O   LIG    1       -0.372  -9.541  -0.779  0.00  0.00    -0.530 OA
ATOM     24  C   LIG    1        0.553  -8.788  -0.997  0.00  0.00    +0.520 C 
ATOM     25  C   LIG    1        1.989  -9.216  -1.207  0.00  0.00    +0.050 C 
ATOM     26  C   LIG    1        2.805  -7.914  -1.024  0.00  0.00    +0.060 C 
ATOM     27  C   LIG    1        1.754  -6.835  -1.366  0.00  0.00    +0.260 C 
ATOM     28  N   LIG    1        0.452  -7.450  -1.086  0.00  0.00    -0.720 N 
ATOM     29  H   LIG    1       -0.375  -6.956  -0.978  0.00  0.00    +0.410 HD
ENDBRANCH  17  27
ENDBRANCH   1  21
TORSDOF 4
