REMARK  Name = ZINCpk00000xI6de.1
REMARK                            x       y       z     vdW  Elec       q    Type
REMARK                         _______ _______ _______ _____ _____    ______ ____
ROOT
ATOM      1  C   LIG    1        1.223   5.610  -3.713  0.00  0.00    +0.510 C 
ATOM      2  N   LIG    1        0.531   4.836  -2.854  0.00  0.00    -0.660 N 
ATOM      3  H   LIG    1        0.939   4.550  -2.022  0.00  0.00    +0.420 HD
ATOM      4  O   LIG    1        0.681   6.050  -4.705  0.00  0.00    -0.500 OA
ENDROOT
BRANCH   2   5
ATOM      5  C   LIG    1       -0.779   4.444  -3.163  0.00  0.00    +0.180 A 
ATOM      6  C   LIG    1       -1.193   4.384  -4.484  0.00  0.00    +0.020 A 
ATOM      7  C   LIG    1       -2.486   3.997  -4.787  0.00  0.00    +0.030 A 
ATOM      8  C   LIG    1       -3.368   3.669  -3.775  0.00  0.00    -0.010 A 
ATOM      9  C   LIG    1       -2.962   3.720  -2.454  0.00  0.00    +0.000 A 
ATOM     10  C   LIG    1       -1.669   4.113  -2.141  0.00  0.00    +0.050 A 
BRANCH  10  11
ATOM     11  N   LIG    1       -1.257   4.171  -0.805  0.00  0.00    -0.500 N 
ATOM     12  C   LIG    1       -1.372   2.855  -0.161  0.00  0.00    +0.160 C 
ATOM     13  C   LIG    1       -0.857   2.951   1.278  0.00  0.00    +0.220 C 
ATOM     14  O   LIG    1       -1.589   3.961   1.976  0.00  0.00    -0.380 OA
ATOM     15  C   LIG    1       -1.500   5.256   1.375  0.00  0.00    +0.220 C 
ATOM     16  C   LIG    1       -2.022   5.184  -0.062  0.00  0.00    +0.160 C 
ENDBRANCH  10  11
ENDBRANCH   2   5
BRANCH   1  17
ATOM     17  C   LIG    1        2.671   5.929  -3.442  0.00  0.00    +0.220 C 
BRANCH  17  21
ATOM     18  N   LIG    1        5.036   7.525  -6.557  0.00  0.00    -0.540 NA
ATOM     19  C   LIG    1        4.997   8.251  -5.280  0.00  0.00    +0.180 C 
ATOM     20  C   LIG    1        4.523   7.307  -4.173  0.00  0.00    +0.190 C 
ATOM     21  N   LIG    1        3.194   6.782  -4.517  0.00  0.00    -0.520 NA
ATOM     22  C   LIG    1        3.233   6.055  -5.794  0.00  0.00    +0.190 C 
ATOM     23  C   LIG    1        3.707   7.000  -6.901  0.00  0.00    +0.180 C 
BRANCH  18  24
ATOM     24  C   LIG    1        5.559   8.378  -7.633  0.00  0.00    +0.160 C 
BRANCH  24  26
ATOM     25  C   LIG    1        6.364   8.416  -9.998  0.00  0.00    +0.010 C 
ATOM     26  C   LIG    1        5.819   7.527  -8.878  0.00  0.00    +0.010 C 
ENDBRANCH  24  26
ENDBRANCH  18  24
ENDBRANCH  17  21
ENDBRANCH   1  17
TORSDOF 6
