REMARK  Name = ZINCtV000002qrMl.0
REMARK                            x       y       z     vdW  Elec       q    Type
REMARK                         _______ _______ _______ _____ _____    ______ ____
ROOT
ATOM      1  C   LIG    1        6.041   2.716   0.156  0.00  0.00    +0.170 A 
ATOM      2  C   LIG    1        7.277   2.092   0.233  0.00  0.00    +0.060 A 
ATOM      3  C   LIG    1        7.356   0.712   0.229  0.00  0.00    +0.090 A 
ATOM      4  C   LIG    1        6.206  -0.051   0.147  0.00  0.00    -0.180 A 
ATOM      5  C   LIG    1        4.969   0.563   0.075  0.00  0.00    +0.110 A 
ATOM      6  C   LIG    1        4.880   1.947   0.073  0.00  0.00    +0.120 A 
ENDROOT
BRANCH   1   8
ATOM      7  C   LIG    1        6.919   4.848  -0.435  0.00  0.00    +0.650 C 
ATOM      8  N   LIG    1        5.959   4.114   0.161  0.00  0.00    -0.650 N 
ATOM      9  H   LIG    1        5.210   4.554   0.593  0.00  0.00    +0.420 HD
ATOM     10  O   LIG    1        7.897   4.302  -0.905  0.00  0.00    -0.540 OA
BRANCH   7  11
ATOM     11  O   LIG    1        6.795   6.187  -0.509  0.00  0.00    -0.360 OA
BRANCH  11  13
ATOM     12  C   LIG    1        8.000   6.432  -2.611  0.00  0.00    +0.040 C 
ATOM     13  C   LIG    1        7.868   6.913  -1.164  0.00  0.00    +0.140 C 
ATOM     14  C   LIG    1        9.182   6.663  -0.421  0.00  0.00    +0.040 C 
ATOM     15  C   LIG    1        7.553   8.410  -1.152  0.00  0.00    +0.080 C 
ENDBRANCH  11  13
ENDBRANCH   7  11
ENDBRANCH   1   8
BRANCH   4  16
ATOM     16  C   LIG    1        6.300  -1.555   0.142  0.00  0.00    +0.510 C 
ATOM     17  F   LIG    1        5.747  -2.053  -1.043  0.00  0.00    -0.180 F 
ATOM     18  F   LIG    1        5.597  -2.070   1.236  0.00  0.00    -0.170 F 
ATOM     19  F   LIG    1        7.642  -1.938   0.228  0.00  0.00    -0.180 F 
ENDBRANCH   4  16
BRANCH   6  20
ATOM     20  N   LIG    1        3.629   2.570  -0.005  0.00  0.00    -0.670 N 
ATOM     21  H   LIG    1        3.533   3.406  -0.488  0.00  0.00    +0.410 HD
ATOM     22  C   LIG    1        2.558   2.009   0.590  0.00  0.00    +0.550 C 
ATOM     23  O   LIG    1        2.660   0.922   1.124  0.00  0.00    -0.480 OA
BRANCH  22  24
ATOM     24  C   LIG    1        1.261   2.714   0.592  0.00  0.00    -0.130 A 
ATOM     25  C   LIG    1        1.141   3.963  -0.021  0.00  0.00    +0.090 A 
ATOM     26  C   LIG    1       -0.072   4.617  -0.016  0.00  0.00    +0.000 A 
ATOM     27  C   LIG    1       -1.173   4.038   0.597  0.00  0.00    +0.140 A 
ATOM     28  C   LIG    1       -1.062   2.796   1.202  0.00  0.00    +0.030 A 
ATOM     29  F   LIG    1       -2.360   4.684   0.599  0.00  0.00    -0.120 F 
ATOM     30  C   LIG    1        0.148   2.134   1.208  0.00  0.00    -0.010 A 
ATOM     31 BR   LIG    1        0.300   0.443   2.041  0.00  0.00    +0.020 Br
ENDBRANCH  22  24
ENDBRANCH   6  20
TORSDOF 6
