REMARK  Name = ZINCrH000004sKG7.0
REMARK                            x       y       z     vdW  Elec       q    Type
REMARK                         _______ _______ _______ _____ _____    ______ ____
ROOT
ATOM      1  C   LIG    1        5.605   2.400  -3.692  0.00  0.00    +0.170 C 
ATOM      2  C   LIG    1        4.597   1.606  -2.901  0.00  0.00    +0.160 A 
ATOM      3  N   LIG    1        4.148   1.907  -1.710  0.00  0.00    -0.270 NA
ATOM      4  N   LIG    1        3.230   0.921  -1.326  0.00  0.00    -0.350 N 
ATOM      5  C   LIG    1        3.149   0.018  -2.325  0.00  0.00    +0.210 A 
ATOM      6  C   LIG    1        2.284  -1.216  -2.338  0.00  0.00    +0.160 C 
ATOM      7  C   LIG    1        3.980   0.421  -3.314  0.00  0.00    -0.820 A 
ENDROOT
BRANCH   7   8
ATOM      8  S   LIG    1        4.243  -0.406  -4.847  0.00  0.00    +2.720 S 
ATOM      9  O   LIG    1        4.596   0.598  -5.789  0.00  0.00    -0.950 OA
ATOM     10  O   LIG    1        3.141  -1.284  -5.025  0.00  0.00    -0.950 OA
BRANCH   8  11
ATOM     11  N   LIG    1        5.580  -1.365  -4.663  0.00  0.00    -1.000 NA
ATOM     12  C   LIG    1        6.919  -0.800  -4.850  0.00  0.00    +0.310 C 
BRANCH  11  13
ATOM     13  C   LIG    1        5.425  -2.780  -4.315  0.00  0.00    +0.420 C 
BRANCH  13  14
ATOM     14  C   LIG    1        5.476  -3.615  -5.568  0.00  0.00    -0.040 A 
ATOM     15  C   LIG    1        6.568  -4.226  -6.062  0.00  0.00    -0.040 A 
ATOM     16  C   LIG    1        6.165  -4.893  -7.242  0.00  0.00    -0.070 A 
ATOM     17  C   LIG    1        4.851  -4.651  -7.397  0.00  0.00    +0.170 A 
ATOM     18  O   LIG    1        4.438  -3.881  -6.378  0.00  0.00    -0.160 OA
ENDBRANCH  13  14
ENDBRANCH  11  13
ENDBRANCH   8  11
ENDBRANCH   7   8
BRANCH   4  19
ATOM     19  C   LIG    1        2.492   0.876  -0.061  0.00  0.00    +0.400 C 
BRANCH  19  20
ATOM     20  C   LIG    1        1.187   1.613  -0.214  0.00  0.00    -0.130 A 
ATOM     21  C   LIG    1        0.017   0.908  -0.427  0.00  0.00    +0.090 A 
ATOM     22  C   LIG    1       -1.181   1.583  -0.573  0.00  0.00    +0.000 A 
ATOM     23  C   LIG    1       -1.210   2.965  -0.495  0.00  0.00    +0.130 A 
ATOM     24  C   LIG    1       -0.039   3.671  -0.282  0.00  0.00    +0.000 A 
ATOM     25  F   LIG    1       -2.382   3.624  -0.632  0.00  0.00    -0.130 F 
ATOM     26  C   LIG    1        1.159   2.994  -0.141  0.00  0.00    +0.020 A 
ATOM     27 CL   LIG    1        2.629   3.879   0.126  0.00  0.00    -0.030 Cl
ENDBRANCH  19  20
ENDBRANCH   4  19
TORSDOF 6
