REMARK  Name = ZINCrD00000hQ7nI.0
REMARK                            x       y       z     vdW  Elec       q    Type
REMARK                         _______ _______ _______ _____ _____    ______ ____
ROOT
ATOM      1  N   LIG    1       -3.292  -1.337  10.023  0.00  0.00    -0.470 NA
ATOM      2  C   LIG    1       -3.119  -1.668   8.773  0.00  0.00    +0.330 C 
ATOM      3  N   LIG    1       -1.958  -2.286   8.327  0.00  0.00    -0.580 N 
ATOM      4  H   LIG    1       -1.513  -2.951   8.875  0.00  0.00    +0.430 HD
ATOM      5  N   LIG    1       -1.440  -1.939   7.079  0.00  0.00    -0.240 NA
ATOM      6  C   LIG    1       -1.986  -1.182   6.212  0.00  0.00    +0.150 C 
ATOM      7  C   LIG    1       -3.300  -0.469   6.351  0.00  0.00    +0.150 C 
ATOM      8  S   LIG    1       -4.351  -1.358   7.536  0.00  0.00    -0.050 S 
ENDROOT
BRANCH   1  11
ATOM      9  C   LIG    1       -3.260  -3.852  11.458  0.00  0.00    +0.020 C 
ATOM     10  C   LIG    1       -2.795  -2.541  12.093  0.00  0.00    +0.010 C 
ATOM     11  C   LIG    1       -2.243  -1.616  11.006  0.00  0.00    +0.130 C 
ATOM     12  C   LIG    1       -1.777  -0.304  11.641  0.00  0.00    +0.030 C 
ATOM     13  C   LIG    1       -0.682  -0.595  12.669  0.00  0.00    +0.010 C 
ATOM     14  C   LIG    1       -1.234  -1.520  13.755  0.00  0.00    +0.020 C 
ATOM     15  C   LIG    1       -1.699  -2.832  13.120  0.00  0.00    -0.020 C 
ATOM     16  C   LIG    1       -2.252  -3.756  14.207  0.00  0.00    +0.030 C 
ENDBRANCH   1  11
BRANCH   6  17
ATOM     17  C   LIG    1       -1.252  -0.982   4.949  0.00  0.00    -0.070 A 
ATOM     18  C   LIG    1       -0.019  -1.608   4.749  0.00  0.00    +0.090 A 
ATOM     19  C   LIG    1        0.664  -1.418   3.568  0.00  0.00    -0.010 A 
ATOM     20  C   LIG    1        0.128  -0.604   2.576  0.00  0.00    +0.190 A 
ATOM     21  C   LIG    1       -1.096   0.026   2.774  0.00  0.00    -0.030 A 
ATOM     22  C   LIG    1       -1.788  -0.164   3.950  0.00  0.00    +0.080 A 
BRANCH  20  23
ATOM     23  N   LIG    1        0.823  -0.414   1.381  0.00  0.00    -0.940 N 
ATOM     24  C   LIG    1        2.278  -0.577   1.346  0.00  0.00    +0.330 C 
BRANCH  23  25
ATOM     25  S   LIG    1        0.002  -0.004   0.002  0.00  0.00    +2.600 S 
ATOM     26  O   LIG    1        0.825  -0.486  -1.052  0.00  0.00    -0.940 OA
ATOM     27  O   LIG    1       -1.306  -0.522   0.206  0.00  0.00    -0.940 OA
ATOM     28  C   LIG    1       -0.022   1.810   0.012  0.00  0.00    -0.270 C 
ENDBRANCH  23  25
ENDBRANCH  20  23
ENDBRANCH   6  17
TORSDOF 4
