REMARK  Name = ZINCqH00000386bh.0
REMARK                            x       y       z     vdW  Elec       q    Type
REMARK                         _______ _______ _______ _____ _____    ______ ____
ROOT
ATOM      1  C   LIG    1       -1.893   5.375  -1.579  0.00  0.00    +0.270 C 
ENDROOT
BRANCH   1   5
ATOM      2  N   LIG    1       -1.235   2.068   0.019  0.00  0.00    -0.490 N 
ATOM      3  C   LIG    1       -1.355   2.918   1.218  0.00  0.00    +0.190 C 
ATOM      4  C   LIG    1       -1.602   4.362   0.732  0.00  0.00    +0.010 C 
ATOM      5  C   LIG    1       -2.174   4.157  -0.696  0.00  0.00    -0.010 C 
ATOM      6  C   LIG    1       -1.372   2.923  -1.179  0.00  0.00    +0.200 C 
BRANCH   2  14
ATOM      7  C   LIG    1       -1.292  -0.776   0.011  0.00  0.00    +0.100 C 
ATOM      8  C   LIG    1        0.002  -0.004   0.002  0.00  0.00    -0.050 A 
ATOM      9  C   LIG    1        1.208  -0.677  -0.013  0.00  0.00    +0.040 A 
ATOM     10  C   LIG    1        2.396   0.030  -0.020  0.00  0.00    +0.020 A 
ATOM     11  C   LIG    1        2.382   1.413  -0.013  0.00  0.00    -0.030 A 
ATOM     12  C   LIG    1        1.178   2.093   0.002  0.00  0.00    -0.010 A 
ATOM     13 CL   LIG    1        3.876   2.297  -0.022  0.00  0.00    -0.070 Cl
ATOM     14  C   LIG    1       -0.017   1.385   0.010  0.00  0.00    +0.090 A 
ENDBRANCH   2  14
ENDBRANCH   1   5
BRANCH   1  15
ATOM     15  N   LIG    1       -2.642   6.528  -1.074  0.00  0.00    -0.730 N 
ATOM     16  H   LIG    1       -3.206   6.434  -0.290  0.00  0.00    +0.400 HD
ATOM     17  C   LIG    1       -2.549   7.718  -1.698  0.00  0.00    +0.600 C 
ATOM     18  O   LIG    1       -1.841   7.836  -2.682  0.00  0.00    -0.580 OA
BRANCH  17  19
ATOM     19  C   LIG    1       -3.298   8.871  -1.194  0.00  0.00    -0.330 A 
ATOM     20  C   LIG    1       -3.304  10.175  -1.725  0.00  0.00    +0.110 A 
ATOM     21  N   LIG    1       -2.693  10.768  -2.789  0.00  0.00    -0.480 N 
ATOM     22  H   LIG    1       -2.100  10.249  -3.354  0.00  0.00    +0.430 HD
ATOM     23  C   LIG    1       -2.901  12.067  -3.061  0.00  0.00    +0.320 A 
ATOM     24  C   LIG    1       -3.727  12.829  -2.290  0.00  0.00    -0.040 A 
ATOM     25  C   LIG    1       -4.380  12.276  -1.196  0.00  0.00    +0.190 A 
ATOM     26  C   LIG    1       -4.175  10.925  -0.900  0.00  0.00    +0.020 A 
ATOM     27  N   LIG    1       -4.644  10.108   0.063  0.00  0.00    -0.510 NA
ATOM     28  C   LIG    1       -4.154   8.900  -0.076  0.00  0.00    +0.310 A 
ENDBRANCH  17  19
ENDBRANCH   1  15
TORSDOF 4
