REMARK  Name = ZINCrH00000lnSAn.0
REMARK                            x       y       z     vdW  Elec       q    Type
REMARK                         _______ _______ _______ _____ _____    ______ ____
ROOT
ATOM      1  O   LIG    1        3.541   6.086   0.101  0.00  0.00    -0.340 OA
ENDROOT
BRANCH   1   2
ATOM      2  C   LIG    1        2.374   5.419   0.007  0.00  0.00    +0.520 C 
ATOM      3  O   LIG    1        1.329   6.032  -0.072  0.00  0.00    -0.490 OA
BRANCH   2   8
ATOM      4  C   LIG    1       -2.571   3.840   0.116  0.00  0.00    +0.100 C 
ATOM      5  C   LIG    1       -1.239   3.135   0.081  0.00  0.00    -0.070 A 
ATOM      6  C   LIG    1       -0.091   3.868   0.057  0.00  0.00    +0.050 A 
ATOM      7  C   LIG    1        1.148   3.215   0.025  0.00  0.00    -0.060 A 
ATOM      8  C   LIG    1        2.366   3.941   0.000  0.00  0.00    -0.070 A 
ATOM      9  C   LIG    1        3.551   3.217  -0.031  0.00  0.00    +0.050 A 
ATOM     10  C   LIG    1        3.506   1.825  -0.037  0.00  0.00    +0.140 A 
ATOM     11  N   LIG    1        2.372   1.169  -0.014  0.00  0.00    -0.450 NA
ATOM     12  C   LIG    1        4.799   1.051  -0.070  0.00  0.00    +0.130 C 
ATOM     13  C   LIG    1        1.195   1.799   0.016  0.00  0.00    +0.120 A 
ATOM     14  C   LIG    1       -0.012   1.076   0.041  0.00  0.00    +0.050 A 
ATOM     15  C   LIG    1       -1.198   1.742   0.066  0.00  0.00    +0.030 A 
ENDBRANCH   2   8
ENDBRANCH   1   2
BRANCH   1  16
ATOM     16  C   LIG    1        3.473   7.536   0.102  0.00  0.00    +0.340 C 
BRANCH  16  17
ATOM     17  C   LIG    1        4.864   8.104   0.213  0.00  0.00    +0.370 A 
ATOM     18  N   LIG    1        5.532   8.345  -0.889  0.00  0.00    -0.530 NA
ATOM     19  C   LIG    1        6.774   8.851  -0.836  0.00  0.00    +0.190 A 
ATOM     20  C   LIG    1        7.516   9.121  -1.993  0.00  0.00    +0.030 A 
ATOM     21  C   LIG    1        8.774   9.635  -1.882  0.00  0.00    +0.070 A 
ATOM     22  C   LIG    1        9.334   9.897  -0.635  0.00  0.00    +0.000 A 
ATOM     23  C   LIG    1        8.638   9.646   0.512  0.00  0.00    +0.060 A 
ATOM     24  C   LIG    1        7.345   9.118   0.432  0.00  0.00    -0.190 A 
ATOM     25  C   LIG    1        6.574   8.837   1.586  0.00  0.00    +0.480 A 
ATOM     26  N   LIG    1        5.355   8.342   1.419  0.00  0.00    -0.580 NA
BRANCH  25  27
ATOM     27  N   LIG    1        7.075   9.075   2.848  0.00  0.00    -0.820 N 
ATOM     28  H   LIG    1        6.535   8.877   3.630  0.00  0.00    +0.410 HD
ATOM     29  H   LIG    1        7.968   9.440   2.955  0.00  0.00    +0.410 HD
ENDBRANCH  25  27
ENDBRANCH  16  17
ENDBRANCH   1  16
TORSDOF 5
