REMARK  Name = ZINCrD00000fLDmw.0
REMARK                            x       y       z     vdW  Elec       q    Type
REMARK                         _______ _______ _______ _____ _____    ______ ____
ROOT
ATOM      1  C   LIG    1       -0.015   1.387   0.003  0.00  0.00    +0.140 A 
ATOM      2  C   LIG    1        1.176   2.102  -0.013  0.00  0.00    +0.060 A 
ATOM      3  C   LIG    1        2.387   1.435  -0.035  0.00  0.00    +0.020 A 
ATOM      4  C   LIG    1        2.419   0.053  -0.040  0.00  0.00    +0.100 A 
ATOM      5  C   LIG    1        1.227  -0.672  -0.023  0.00  0.00    -0.020 A 
ATOM      6  F   LIG    1        3.604  -0.595  -0.060  0.00  0.00    -0.130 F 
ATOM      7  C   LIG    1        0.009  -0.000  -0.002  0.00  0.00    +0.060 A 
ENDROOT
BRANCH   5   8
ATOM      8  C   LIG    1        1.259  -2.156  -0.028  0.00  0.00    +0.010 A 
ATOM      9  C   LIG    1        2.367  -2.952  -0.048  0.00  0.00    +0.170 A 
ATOM     10  N   LIG    1        1.913  -4.226  -0.045  0.00  0.00    -0.290 N 
ATOM     11  N   LIG    1        0.627  -4.200  -0.024  0.00  0.00    -0.080 NA
ATOM     12  N   LIG    1        0.201  -2.987  -0.008  0.00  0.00    -0.250 NA
BRANCH  10  13
ATOM     13  C   LIG    1        2.745  -5.432  -0.061  0.00  0.00    +0.340 C 
BRANCH  13  14
ATOM     14  C   LIG    1        2.372  -6.325   1.124  0.00  0.00    -0.050 C 
ATOM     15  C   LIG    1        3.259  -7.593   1.147  0.00  0.00    +0.030 C 
ATOM     16  C   LIG    1        2.241  -8.694   1.538  0.00  0.00    +0.210 C 
ATOM     17  O   LIG    1        1.035  -8.299   0.850  0.00  0.00    -0.380 OA
ATOM     18  C   LIG    1        0.939  -6.869   0.960  0.00  0.00    +0.210 C 
ENDBRANCH  13  14
ENDBRANCH  10  13
ENDBRANCH   5   8
BRANCH   1  21
ATOM     19  O   LIG    1       -0.381   3.725   1.221  0.00  0.00    -0.510 OA
ATOM     20  C   LIG    1       -1.357   3.225   0.696  0.00  0.00    +0.560 C 
ATOM     21  N   LIG    1       -1.238   2.066   0.019  0.00  0.00    -0.670 N 
ATOM     22  H   LIG    1       -2.001   1.702  -0.457  0.00  0.00    +0.410 HD
BRANCH  20  23
ATOM     23  C   LIG    1       -2.673   3.890   0.798  0.00  0.00    -0.140 A 
ATOM     24  C   LIG    1       -3.794   3.322   0.191  0.00  0.00    +0.040 A 
ATOM     25  C   LIG    1       -5.021   3.946   0.294  0.00  0.00    +0.000 A 
ATOM     26  C   LIG    1       -5.139   5.136   0.990  0.00  0.00    +0.040 A 
ATOM     27  C   LIG    1       -4.030   5.707   1.589  0.00  0.00    +0.000 A 
ATOM     28  C   LIG    1       -2.799   5.091   1.498  0.00  0.00    +0.080 A 
ENDBRANCH  20  23
ENDBRANCH   1  21
TORSDOF 5
