REMARK  Name = ZINCvU0000000Fc6.0
REMARK                            x       y       z     vdW  Elec       q    Type
REMARK                         _______ _______ _______ _____ _____    ______ ____
ROOT
ATOM      1  C   LIG    1       -2.415   1.197   0.094  0.00  0.00    +0.140 A 
ATOM      2  C   LIG    1       -2.443  -0.190   0.188  0.00  0.00    +0.020 A 
ATOM      3  C   LIG    1       -3.650  -0.856   0.295  0.00  0.00    +0.040 A 
ATOM      4  C   LIG    1       -4.835  -0.149   0.299  0.00  0.00    +0.030 A 
ATOM      5  C   LIG    1       -4.818   1.244   0.199  0.00  0.00    -0.120 A 
ATOM      6  C   LIG    1       -3.601   1.916   0.096  0.00  0.00    +0.090 A 
ENDROOT
BRANCH   1   8
ATOM      7  C   LIG    1       -1.102   2.998  -0.735  0.00  0.00    +0.600 C 
ATOM      8  N   LIG    1       -1.192   1.866  -0.010  0.00  0.00    -0.670 N 
ATOM      9  H   LIG    1       -0.407   1.515   0.441  0.00  0.00    +0.410 HD
ATOM     10  O   LIG    1       -2.061   3.388  -1.376  0.00  0.00    -0.490 OA
BRANCH   7  14
ATOM     11  C   LIG    1        2.407   4.785  -0.531  0.00  0.00    +0.170 A 
ATOM     12  N   LIG    1        1.564   5.432  -1.296  0.00  0.00    -0.460 NA
ATOM     13  C   LIG    1        0.372   4.923  -1.438  0.00  0.00    +0.180 A 
ATOM     14  C   LIG    1        0.146   3.763  -0.748  0.00  0.00    -0.310 A 
ATOM     15  C   LIG    1       -0.684   5.569  -2.296  0.00  0.00    +0.170 C 
ATOM     16  S   LIG    1        1.625   3.346   0.117  0.00  0.00    +0.170 S 
BRANCH  11  21
ATOM     17  C   LIG    1        6.667   7.423  -0.591  0.00  0.00    +0.180 C 
ATOM     18  C   LIG    1        5.659   6.347  -0.277  0.00  0.00    +0.030 A 
ATOM     19  C   LIG    1        5.872   5.279   0.519  0.00  0.00    -0.060 A 
ATOM     20  C   LIG    1        4.677   4.537   0.544  0.00  0.00    +0.020 A 
ATOM     21  C   LIG    1        3.789   5.197  -0.255  0.00  0.00    +0.020 A 
ATOM     22  O   LIG    1        4.401   6.295  -0.742  0.00  0.00    -0.150 OA
ENDBRANCH  11  21
ENDBRANCH   7  14
ENDBRANCH   1   8
BRANCH   5  23
ATOM     23  C   LIG    1       -6.087   2.003   0.202  0.00  0.00    +0.550 C 
ATOM     24  N   LIG    1       -7.262   1.351   0.302  0.00  0.00    -0.660 N 
ATOM     25  H   LIG    1       -7.274   0.392   0.445  0.00  0.00    +0.420 HD
ATOM     26  O   LIG    1       -6.070   3.215   0.115  0.00  0.00    -0.450 OA
BRANCH  24  27
ATOM     27  C   LIG    1       -8.460   2.055   0.199  0.00  0.00    +0.380 A 
ATOM     28  C   LIG    1       -9.666   1.364   0.189  0.00  0.00    -0.050 A 
ATOM     29  C   LIG    1      -10.849   2.075   0.087  0.00  0.00    +0.130 A 
ATOM     30  C   LIG    1      -10.784   3.459  -0.003  0.00  0.00    -0.180 A 
ATOM     31  C   LIG    1       -9.550   4.081   0.013  0.00  0.00    +0.340 A 
ATOM     32 BR   LIG    1      -12.367   4.483  -0.146  0.00  0.00    -0.030 Br
ATOM     33  N   LIG    1       -8.440   3.376   0.117  0.00  0.00    -0.470 NA
ENDBRANCH  24  27
ENDBRANCH   5  23
TORSDOF 5
