REMARK  Name = ZINCrD000000B17A.0
REMARK                            x       y       z     vdW  Elec       q    Type
REMARK                         _______ _______ _______ _____ _____    ______ ____
ROOT
ATOM      1  O   LIG    1       -3.600   1.903  -0.056  0.00  0.00    -0.560 OA
ATOM      2  C   LIG    1       -3.623   3.118  -0.049  0.00  0.00    +0.710 C 
ATOM      3  N   LIG    1       -2.473   3.814   0.045  0.00  0.00    -0.680 N 
ATOM      4  H   LIG    1       -2.496   4.780   0.128  0.00  0.00    +0.410 HD
ATOM      5  N   LIG    1       -4.800   3.770  -0.136  0.00  0.00    -0.730 N 
ATOM      6  H   LIG    1       -4.819   4.740  -0.131  0.00  0.00    +0.400 HD
ENDROOT
BRANCH   3   7
ATOM      7  C   LIG    1       -1.244   3.142   0.023  0.00  0.00    +0.170 A 
ATOM      8  C   LIG    1       -1.098   1.988  -0.743  0.00  0.00    +0.060 A 
ATOM      9  C   LIG    1        0.105   1.315  -0.768  0.00  0.00    +0.070 A 
ATOM     10  C   LIG    1        1.181   1.792  -0.036  0.00  0.00    -0.010 A 
ATOM     11  O   LIG    1        2.455   1.373   0.138  0.00  0.00    -0.210 OA
ATOM     12  C   LIG    1        3.068   2.232   0.968  0.00  0.00    +0.290 A 
ATOM     13  N   LIG    1        2.248   3.172   1.329  0.00  0.00    -0.480 NA
ATOM     14  C   LIG    1        1.043   2.957   0.734  0.00  0.00    +0.050 A 
ATOM     15  C   LIG    1       -0.179   3.630   0.759  0.00  0.00    +0.040 A 
BRANCH  12  16
ATOM     16  C   LIG    1        4.502   2.120   1.417  0.00  0.00    +0.070 C 
ATOM     17  C   LIG    1        5.375   1.065   0.736  0.00  0.00    +0.060 C 
ATOM     18  C   LIG    1        4.908   0.856   2.178  0.00  0.00    +0.060 C 
ENDBRANCH  12  16
ENDBRANCH   3   7
BRANCH   5  19
ATOM     19  C   LIG    1       -6.050   3.013  -0.239  0.00  0.00    +0.330 C 
BRANCH  19  20
ATOM     20  C   LIG    1       -7.229   3.985  -0.324  0.00  0.00    -0.330 C 
BRANCH  20  21
ATOM     21  S   LIG    1       -8.777   3.049  -0.451  0.00  0.00    +2.510 S 
ATOM     22  O   LIG    1       -9.046   2.362   0.764  0.00  0.00    -0.920 OA
ATOM     23  O   LIG    1       -8.854   2.380  -1.702  0.00  0.00    -0.920 OA
BRANCH  21  24
ATOM     24  C   LIG    1      -10.032   4.283  -0.539  0.00  0.00    -0.660 A 
ATOM     25  C   LIG    1      -10.620   4.754   0.619  0.00  0.00    +0.120 A 
ATOM     26  C   LIG    1      -11.601   5.726   0.550  0.00  0.00    +0.000 A 
ATOM     27  C   LIG    1      -12.001   6.219  -0.679  0.00  0.00    +0.070 A 
ATOM     28  C   LIG    1      -11.415   5.744  -1.837  0.00  0.00    +0.000 A 
ATOM     29  C   LIG    1      -10.431   4.776  -1.768  0.00  0.00    +0.120 A 
ENDBRANCH  21  24
ENDBRANCH  20  21
ENDBRANCH  19  20
ENDBRANCH   5  19
TORSDOF 6
