REMARK  Name = ZINCnE000001Qgzs.1
REMARK                            x       y       z     vdW  Elec       q    Type
REMARK                         _______ _______ _______ _____ _____    ______ ____
ROOT
ATOM      1  N   LIG    1        0.753  -5.908   0.648  0.00  0.00    -0.700 NA
ATOM      2  C   LIG    1        1.329  -6.918  -0.033  0.00  0.00    +0.650 C 
ATOM      3  N   LIG    1        1.067  -8.196   0.307  0.00  0.00    -0.740 N 
ATOM      4  H   LIG    1        0.464  -8.388   1.043  0.00  0.00    +0.390 HD
ATOM      5  O   LIG    1        2.084  -6.678  -0.955  0.00  0.00    -0.620 OA
ENDROOT
BRANCH   1   9
ATOM      6  C   LIG    1        1.250  -2.160  -0.021  0.00  0.00    -0.330 A 
ATOM      7  C   LIG    1        1.953  -2.936  -0.871  0.00  0.00    +0.270 A 
ATOM      8  N   LIG    1        1.812  -4.229  -0.667  0.00  0.00    -0.570 NA
ATOM      9  C   LIG    1        1.023  -4.592   0.297  0.00  0.00    +0.350 A 
ATOM     10  S   LIG    1        0.364  -3.219   1.073  0.00  0.00    +0.040 S 
BRANCH   6  17
ATOM     11  C   LIG    1       -1.292  -0.777   0.011  0.00  0.00    +0.090 C 
ATOM     12  C   LIG    1        0.002  -0.004   0.002  0.00  0.00    -0.090 A 
ATOM     13  C   LIG    1       -0.017   1.375   0.010  0.00  0.00    +0.000 A 
ATOM     14  C   LIG    1        1.170   2.086   0.002  0.00  0.00    -0.030 A 
ATOM     15  C   LIG    1        2.383   1.420  -0.013  0.00  0.00    +0.000 A 
ATOM     16  C   LIG    1        2.416   0.041  -0.021  0.00  0.00    +0.000 A 
ATOM     17  C   LIG    1        1.222  -0.682  -0.013  0.00  0.00    +0.040 A 
ENDBRANCH   6  17
ENDBRANCH   1   9
BRANCH   3  18
ATOM     18  C   LIG    1        1.692  -9.294  -0.433  0.00  0.00    +0.250 C 
BRANCH  18  19
ATOM     19  C   LIG    1        1.230 -10.631   0.151  0.00  0.00    -0.020 C 
ATOM     20  C   LIG    1       -0.262 -10.881  -0.180  0.00  0.00    +0.030 C 
ATOM     21  C   LIG    1       -0.380 -12.422  -0.085  0.00  0.00    -0.020 C 
ATOM     22  C   LIG    1        0.946 -12.941  -0.678  0.00  0.00    +0.150 C 
ATOM     23  C   LIG    1        1.970 -11.802  -0.528  0.00  0.00    +0.040 C 
BRANCH  22  24
ATOM     24  O   LIG    1        0.772 -13.264  -2.060  0.00  0.00    -0.560 OA
ATOM     25  H   LIG    1        0.138 -13.976  -2.220  0.00  0.00    +0.370 HD
ENDBRANCH  22  24
ENDBRANCH  18  19
ENDBRANCH   3  18
TORSDOF 5
