REMARK  Name = ZINCqH000000819r.0
REMARK                            x       y       z     vdW  Elec       q    Type
REMARK                         _______ _______ _______ _____ _____    ______ ____
ROOT
ATOM      1  C   LIG    1       -2.449   1.120   0.020  0.00  0.00    +0.260 C 
ENDROOT
BRANCH   1   2
ATOM      2  C   LIG    1       -3.543   1.972  -0.571  0.00  0.00    +0.520 C 
ATOM      3  N   LIG    1       -4.796   1.486  -0.672  0.00  0.00    -0.610 N 
ATOM      4  C   LIG    1       -5.095   0.130  -0.207  0.00  0.00    +0.300 C 
ATOM      5  O   LIG    1       -3.295   3.095  -0.956  0.00  0.00    -0.520 OA
BRANCH   3   6
ATOM      6  C   LIG    1       -5.859   2.315  -1.246  0.00  0.00    +0.420 C 
BRANCH   6   7
ATOM      7  C   LIG    1       -5.922   2.091  -2.735  0.00  0.00    -0.040 A 
ATOM      8  C   LIG    1       -6.669   1.163  -3.359  0.00  0.00    -0.040 A 
ATOM      9  C   LIG    1       -6.425   1.304  -4.745  0.00  0.00    -0.070 A 
ATOM     10  C   LIG    1       -5.543   2.310  -4.884  0.00  0.00    -0.000 A 
ATOM     11  C   LIG    1       -4.987   2.821  -6.188  0.00  0.00    +0.170 C 
ATOM     12  O   LIG    1       -5.246   2.786  -3.663  0.00  0.00    -0.160 OA
ENDBRANCH   6   7
ENDBRANCH   3   6
ENDBRANCH   1   2
BRANCH   1  13
ATOM     13  N   LIG    1       -1.191   1.869   0.018  0.00  0.00    -0.710 N 
ATOM     14  H   LIG    1       -1.204   2.839   0.023  0.00  0.00    +0.410 HD
ATOM     15  C   LIG    1       -0.014   1.211   0.009  0.00  0.00    +0.560 C 
ATOM     16  O   LIG    1        0.002  -0.004   0.002  0.00  0.00    -0.510 OA
BRANCH  15  17
ATOM     17  C   LIG    1        1.255   1.968   0.001  0.00  0.00    -0.130 A 
ATOM     18  C   LIG    1        1.240   3.363   0.008  0.00  0.00    +0.070 A 
ATOM     19  C   LIG    1        2.429   4.063   0.001  0.00  0.00    +0.020 A 
ATOM     20  C   LIG    1        3.635   3.385  -0.013  0.00  0.00    +0.060 A 
ATOM     21  C   LIG    1        3.659   2.003  -0.021  0.00  0.00    +0.020 A 
ATOM     22  C   LIG    1        2.477   1.289  -0.009  0.00  0.00    +0.020 A 
ATOM     23 CL   LIG    1        2.508  -0.447  -0.012  0.00  0.00    -0.030 Cl
ENDBRANCH  15  17
ENDBRANCH   1  13
BRANCH   1  24
ATOM     24  C   LIG    1       -2.816   0.743   1.456  0.00  0.00    +0.060 C 
BRANCH  24  25
ATOM     25  C   LIG    1       -1.769  -0.223   2.014  0.00  0.00    +0.110 C 
BRANCH  25  27
ATOM     26  C   LIG    1       -0.869  -1.800   4.196  0.00  0.00    +0.140 C 
ATOM     27  S   LIG    1       -2.204  -0.670   3.717  0.00  0.00    -0.270 S 
ENDBRANCH  25  27
ENDBRANCH  24  25
ENDBRANCH   1  24
TORSDOF 8
