REMARK  Name = ZINCpe000000YZtD.0
REMARK                            x       y       z     vdW  Elec       q    Type
REMARK                         _______ _______ _______ _____ _____    ______ ____
ROOT
ATOM      1  O   LIG    1        0.980  -2.549   4.244  0.00  0.00    -0.510 OA
ATOM      2  C   LIG    1        0.290  -1.717   4.794  0.00  0.00    +0.520 C 
ATOM      3  N   LIG    1       -0.255  -0.714   4.079  0.00  0.00    -0.620 N 
ATOM      4  C   LIG    1       -0.125  -0.461   2.623  0.00  0.00    +0.280 C 
ATOM      5  C   LIG    1        0.011   1.072   2.506  0.00  0.00    +0.000 C 
ATOM      6  C   LIG    1       -0.643   1.631   3.787  0.00  0.00    -0.010 C 
ATOM      7  C   LIG    1       -1.119   0.387   4.567  0.00  0.00    +0.280 C 
ENDROOT
BRANCH   6   8
ATOM      8  C   LIG    1       -1.834   2.523   3.431  0.00  0.00    +0.190 C 
BRANCH   8   9
ATOM      9  O   LIG    1       -2.353   3.122   4.620  0.00  0.00    -0.580 OA
ATOM     10  H   LIG    1       -3.111   3.703   4.469  0.00  0.00    +0.380 HD
ENDBRANCH   8   9
ENDBRANCH   6   8
BRANCH   5  11
ATOM     11  C   LIG    1       -0.729   1.579   1.267  0.00  0.00    +0.040 C 
BRANCH  11  12
ATOM     12  C   LIG    1       -0.013   1.086   0.008  0.00  0.00    +0.170 C 
BRANCH  12  13
ATOM     13  O   LIG    1       -0.704   1.559  -1.150  0.00  0.00    -0.580 OA
ATOM     14  H   LIG    1       -0.304   1.284  -1.986  0.00  0.00    +0.380 HD
ENDBRANCH  12  13
ENDBRANCH  11  12
ENDBRANCH   5  11
BRANCH   2  15
ATOM     15  C   LIG    1        0.042  -1.805   6.278  0.00  0.00    +0.380 C 
BRANCH  15  16
ATOM     16  N   LIG    1        0.737  -2.975   6.821  0.00  0.00    -0.320 N 
ATOM     17  N   LIG    1        2.046  -2.997   7.318  0.00  0.00    -0.220 NA
ATOM     18  C   LIG    1        2.313  -4.215   7.711  0.00  0.00    +0.010 A 
ATOM     19  C   LIG    1        1.182  -5.009   7.478  0.00  0.00    -0.210 A 
ATOM     20  C   LIG    1        0.670  -6.426   7.627  0.00  0.00    +0.110 C 
ATOM     21  C   LIG    1       -0.567  -6.503   6.705  0.00  0.00    +0.060 C 
ATOM     22  C   LIG    1       -1.022  -5.028   6.655  0.00  0.00    +0.120 C 
ATOM     23  C   LIG    1        0.227  -4.221   6.936  0.00  0.00    +0.070 A 
BRANCH  18  24
ATOM     24  C   LIG    1        3.613  -4.684   8.313  0.00  0.00    +0.560 C 
ATOM     25  F   LIG    1        4.218  -5.607   7.454  0.00  0.00    -0.170 F 
ATOM     26  F   LIG    1        3.363  -5.290   9.548  0.00  0.00    -0.170 F 
ATOM     27  F   LIG    1        4.464  -3.589   8.494  0.00  0.00    -0.170 F 
ENDBRANCH  18  24
ENDBRANCH  15  16
ENDBRANCH   2  15
TORSDOF 8
