REMARK  Name = ZINCah0000002t43.0
REMARK                            x       y       z     vdW  Elec       q    Type
REMARK                         _______ _______ _______ _____ _____    ______ ____
ROOT
ATOM      1  C   LIG    1       -0.019   1.526   0.010  0.00  0.00    -0.080 C 
ATOM      2  C   LIG    1       -0.945   2.123   1.083  0.00  0.00    +0.030 C 
ATOM      3  C   LIG    1       -1.355   3.170   0.031  0.00  0.00    +0.000 C 
ATOM      4  C   LIG    1       -0.965   2.135  -1.038  0.00  0.00    +0.030 C 
ENDROOT
BRANCH   1   5
ATOM      5  C   LIG    1        1.383   2.139   0.000  0.00  0.00    +0.190 C 
BRANCH   5   6
ATOM      6  O   LIG    1        2.174   1.536   1.027  0.00  0.00    -0.350 OA
BRANCH   6   8
ATOM      7  C   LIG    1        4.259   1.329   2.231  0.00  0.00    +0.040 C 
ATOM      8  C   LIG    1        3.509   2.041   1.103  0.00  0.00    +0.130 C 
ENDBRANCH   6   8
ENDBRANCH   5   6
ENDBRANCH   1   5
BRANCH   1   9
ATOM      9  C   LIG    1        0.002  -0.004   0.002  0.00  0.00    +0.180 C 
BRANCH   9  10
ATOM     10  O   LIG    1        0.878  -0.474   1.028  0.00  0.00    -0.540 OA
ATOM     11  H   LIG    1        0.941  -1.438   1.081  0.00  0.00    +0.370 HD
ENDBRANCH   9  10
ENDBRANCH   1   9
TORSDOF 5
