REMARK  Name = ZINCkj00000y7NjE.1
REMARK                            x       y       z     vdW  Elec       q    Type
REMARK                         _______ _______ _______ _____ _____    ______ ____
ROOT
ATOM      1  C   LIG    1       -0.013   1.086   0.008  0.00  0.00    +0.230 C 
ATOM      2  C   LIG    1       -0.662   1.671  -1.264  0.00  0.00    +0.030 C 
ATOM      3  C   LIG    1        0.560   1.961  -2.176  0.00  0.00    +0.060 C 
ATOM      4  C   LIG    1        1.624   2.401  -1.140  0.00  0.00    +0.260 C 
ATOM      5  N   LIG    1        1.384   1.543   0.035  0.00  0.00    -0.610 N 
ATOM      6  C   LIG    1        2.295   1.231   0.978  0.00  0.00    +0.520 C 
ATOM      7  O   LIG    1        1.985   0.513   1.906  0.00  0.00    -0.500 OA
ENDROOT
BRANCH   1  12
ATOM      8  N   LIG    1       -2.186   1.273   1.145  0.00  0.00    -0.390 N 
ATOM      9  C   LIG    1       -2.951   2.537   1.198  0.00  0.00    +0.260 C 
ATOM     10  C   LIG    1       -1.954   3.623   0.723  0.00  0.00    +0.080 C 
ATOM     11  C   LIG    1       -0.625   3.124   1.349  0.00  0.00    +0.080 C 
ATOM     12  C   LIG    1       -0.749   1.589   1.251  0.00  0.00    +0.160 C 
ATOM     13  H   LIG    1       -2.366   0.803   0.271  0.00  0.00    +0.420 HD
BRANCH   8  15
ATOM     14  C   LIG    1       -4.044  -0.017   2.083  0.00  0.00    +0.080 C 
ATOM     15  C   LIG    1       -2.585   0.409   2.264  0.00  0.00    +0.250 C 
ENDBRANCH   8  15
ENDBRANCH   1  12
BRANCH   6  16
ATOM     16  C   LIG    1        3.698   1.772   0.880  0.00  0.00    +0.380 C 
BRANCH  16  17
ATOM     17  N   LIG    1        4.487   1.292   2.017  0.00  0.00    -0.380 N 
ATOM     18  C   LIG    1        5.656   0.620   1.944  0.00  0.00    +0.230 A 
ATOM     19  C   LIG    1        6.062   0.361   3.208  0.00  0.00    -0.110 A 
ATOM     20  C   LIG    1        5.105   0.884   4.084  0.00  0.00    +0.240 A 
ATOM     21  N   LIG    1        4.160   1.442   3.370  0.00  0.00    -0.280 NA
ENDBRANCH  16  17
ENDBRANCH   6  16
TORSDOF 4
