REMARK  Name = ZINCkj00000y7NjE.0
REMARK                            x       y       z     vdW  Elec       q    Type
REMARK                         _______ _______ _______ _____ _____    ______ ____
ROOT
ATOM      1  C   LIG    1        5.652   2.481  -2.795  0.00  0.00    +0.230 C 
ATOM      2  C   LIG    1        7.012   2.130  -2.156  0.00  0.00    +0.040 C 
ATOM      3  C   LIG    1        6.767   0.711  -1.579  0.00  0.00    +0.060 C 
ATOM      4  C   LIG    1        5.292   0.814  -1.117  0.00  0.00    +0.260 C 
ATOM      5  N   LIG    1        4.633   1.647  -2.139  0.00  0.00    -0.610 N 
ATOM      6  C   LIG    1        3.317   1.642  -2.428  0.00  0.00    +0.520 C 
ATOM      7  O   LIG    1        2.883   2.374  -3.293  0.00  0.00    -0.500 OA
ENDROOT
BRANCH   1  12
ATOM      8  N   LIG    1        6.279   4.796  -3.337  0.00  0.00    -0.380 N 
ATOM      9  C   LIG    1        7.052   5.628  -2.390  0.00  0.00    +0.260 C 
ATOM     10  C   LIG    1        6.157   5.731  -1.130  0.00  0.00    +0.080 C 
ATOM     11  C   LIG    1        5.527   4.314  -1.077  0.00  0.00    +0.080 C 
ATOM     12  C   LIG    1        5.339   3.961  -2.567  0.00  0.00    +0.160 C 
ATOM     13  H   LIG    1        5.765   5.391  -3.969  0.00  0.00    +0.430 HD
BRANCH   8  15
ATOM     14  C   LIG    1        8.003   4.793  -5.076  0.00  0.00    +0.080 C 
ATOM     15  C   LIG    1        7.195   3.937  -4.098  0.00  0.00    +0.240 C 
ENDBRANCH   8  15
ENDBRANCH   1  12
BRANCH   6  16
ATOM     16  C   LIG    1        2.384   0.728  -1.676  0.00  0.00    +0.380 C 
BRANCH  16  17
ATOM     17  N   LIG    1        1.018   0.910  -2.172  0.00  0.00    -0.380 N 
ATOM     18  C   LIG    1        0.209  -0.062  -2.644  0.00  0.00    +0.230 A 
ATOM     19  C   LIG    1       -0.963   0.514  -3.000  0.00  0.00    -0.110 A 
ATOM     20  C   LIG    1       -0.867   1.884  -2.737  0.00  0.00    +0.240 A 
ATOM     21  N   LIG    1        0.320   2.123  -2.241  0.00  0.00    -0.280 NA
ENDBRANCH  16  17
ENDBRANCH   6  16
TORSDOF 4
