REMARK  Name = ZINCAx0000000daf.0
REMARK                            x       y       z     vdW  Elec       q    Type
REMARK                         _______ _______ _______ _____ _____    ______ ____
ROOT
ATOM      1  N   LIG    1       -3.431   2.685  -6.323  0.00  0.00    -0.660 N 
ATOM      2  H   LIG    1       -4.248   2.743  -6.843  0.00  0.00    +0.420 HD
ATOM      3  C   LIG    1       -2.503   1.757  -6.628  0.00  0.00    +0.500 C 
ATOM      4  O   LIG    1       -1.529   1.617  -5.919  0.00  0.00    -0.500 OA
ENDROOT
BRANCH   1  11
ATOM      5  C   LIG    1       -5.703   3.841  -5.056  0.00  0.00    +0.100 C 
ATOM      6  C   LIG    1       -4.297   4.151  -4.610  0.00  0.00    -0.060 A 
ATOM      7  C   LIG    1       -4.082   5.019  -3.557  0.00  0.00    +0.020 A 
ATOM      8  C   LIG    1       -2.793   5.303  -3.146  0.00  0.00    +0.110 A 
ATOM      9  C   LIG    1       -1.715   4.721  -3.788  0.00  0.00    -0.660 A 
ATOM     10  C   LIG    1       -1.923   3.857  -4.845  0.00  0.00    +0.130 A 
ATOM     11  C   LIG    1       -3.217   3.565  -5.256  0.00  0.00    +0.130 A 
BRANCH   9  12
ATOM     12  S   LIG    1       -0.074   5.088  -3.260  0.00  0.00    +2.690 S 
ATOM     13  O   LIG    1        0.771   4.832  -4.373  0.00  0.00    -0.950 OA
ATOM     14  O   LIG    1       -0.135   6.347  -2.604  0.00  0.00    -0.950 OA
BRANCH  12  15
ATOM     15  N   LIG    1        0.329   3.975  -2.102  0.00  0.00    -1.000 NA
ATOM     16  C   LIG    1        0.970   2.702  -2.465  0.00  0.00    +0.260 C 
ATOM     17  C   LIG    1        2.212   2.518  -1.585  0.00  0.00    +0.220 C 
ATOM     18  O   LIG    1        1.845   2.675  -0.212  0.00  0.00    -0.380 OA
ATOM     19  C   LIG    1        1.342   3.973   0.115  0.00  0.00    +0.220 C 
ATOM     20  C   LIG    1        0.056   4.231  -0.679  0.00  0.00    +0.260 C 
ENDBRANCH  12  15
ENDBRANCH   9  12
ENDBRANCH   1  11
BRANCH   3  21
ATOM     21  C   LIG    1       -2.675   0.893  -7.851  0.00  0.00    +0.370 C 
BRANCH  21  22
ATOM     22  N   LIG    1       -1.541  -0.028  -7.961  0.00  0.00    -0.560 N 
ATOM     23  C   LIG    1       -0.413   0.244  -8.628  0.00  0.00    +0.710 C 
ATOM     24  N   LIG    1        0.472  -0.766  -8.575  0.00  0.00    -0.720 N 
ATOM     25  H   LIG    1        1.352  -0.788  -8.982  0.00  0.00    +0.440 HD
ATOM     26  C   LIG    1       -0.157  -1.836  -7.781  0.00  0.00    +0.170 C 
ATOM     27  C   LIG    1        0.667  -2.131  -6.526  0.00  0.00    +0.090 C 
ATOM     28  O   LIG    1       -0.211   1.290  -9.214  0.00  0.00    -0.530 OA
ATOM     29  C   LIG    1       -1.507  -1.257  -7.409  0.00  0.00    +0.540 C 
ATOM     30  O   LIG    1       -2.375  -1.788  -6.750  0.00  0.00    -0.430 OA
BRANCH  26  31
ATOM     31  C   LIG    1       -0.325  -3.085  -8.608  0.00  0.00    -0.090 A 
ATOM     32  C   LIG    1        0.194  -3.142  -9.887  0.00  0.00    +0.070 A 
ATOM     33  C   LIG    1        0.045  -4.289 -10.644  0.00  0.00    +0.050 A 
ATOM     34  C   LIG    1       -0.634  -5.377 -10.126  0.00  0.00    -0.010 A 
ATOM     35  C   LIG    1       -1.159  -5.318  -8.847  0.00  0.00    +0.050 A 
ATOM     36 CL   LIG    1       -0.827  -6.815 -11.079  0.00  0.00    -0.050 Cl
ATOM     37  C   LIG    1       -1.005  -4.172  -8.088  0.00  0.00    -0.010 A 
ATOM     38 CL   LIG    1       -1.664  -4.098  -6.484  0.00  0.00    -0.020 Cl
ENDBRANCH  26  31
ENDBRANCH  21  22
ENDBRANCH   3  21
TORSDOF 6
