REMARK  Name = ZINCtV000002Haty.0
REMARK                            x       y       z     vdW  Elec       q    Type
REMARK                         _______ _______ _______ _____ _____    ______ ____
ROOT
ATOM      1  N   LIG    1       -2.266   7.707  -1.237  0.00  0.00    -0.430 N 
ATOM      2  C   LIG    1       -3.652   7.669  -1.273  0.00  0.00    +0.060 A 
ATOM      3  C   LIG    1       -4.635   8.629  -1.457  0.00  0.00    +0.010 A 
ATOM      4  C   LIG    1       -5.965   8.262  -1.438  0.00  0.00    +0.030 A 
ATOM      5  C   LIG    1       -6.326   6.939  -1.235  0.00  0.00    +0.010 A 
ATOM      6  C   LIG    1       -5.362   5.972  -1.050  0.00  0.00    +0.060 A 
ATOM      7  C   LIG    1       -4.011   6.327  -1.068  0.00  0.00    +0.060 A 
ATOM      8  N   LIG    1       -2.860   5.620  -0.925  0.00  0.00    -0.490 NA
ATOM      9  C   LIG    1       -1.832   6.428  -1.019  0.00  0.00    +0.260 A 
ENDROOT
BRANCH   1  14
ATOM     10  C   LIG    1        0.996  12.307  -1.880  0.00  0.00    +0.100 C 
ATOM     11  C   LIG    1        0.130  11.085  -1.709  0.00  0.00    -0.070 A 
ATOM     12  C   LIG    1        0.179  10.068  -2.645  0.00  0.00    +0.030 A 
ATOM     13  C   LIG    1       -0.613   8.947  -2.491  0.00  0.00    +0.030 A 
ATOM     14  C   LIG    1       -1.460   8.843  -1.396  0.00  0.00    +0.100 A 
ATOM     15  C   LIG    1       -1.512   9.868  -0.461  0.00  0.00    +0.030 A 
ATOM     16  C   LIG    1       -0.713  10.984  -0.617  0.00  0.00    +0.020 A 
ENDBRANCH   1  14
BRANCH   9  17
ATOM     17  S   LIG    1       -0.144   5.938  -0.889  0.00  0.00    +0.060 S 
BRANCH  17  18
ATOM     18  C   LIG    1       -0.352   4.162  -0.610  0.00  0.00    +0.090 C 
BRANCH  18  19
ATOM     19  C   LIG    1        1.001   3.515  -0.465  0.00  0.00    +0.420 C 
ATOM     20  O   LIG    1        2.007   4.188  -0.543  0.00  0.00    -0.430 OA
BRANCH  19  21
ATOM     21  C   LIG    1        1.102   2.066  -0.229  0.00  0.00    -0.170 A 
ATOM     22  C   LIG    1       -0.045   1.266  -0.263  0.00  0.00    +0.070 A 
ATOM     23  C   LIG    1        0.058  -0.091  -0.041  0.00  0.00    -0.110 A 
ATOM     24  C   LIG    1        1.292  -0.662   0.215  0.00  0.00    -0.040 A 
ATOM     25  C   LIG    1        2.432   0.122   0.250  0.00  0.00    +0.000 A 
ATOM     26  C   LIG    1        1.395  -2.146   0.456  0.00  0.00    +0.100 C 
ATOM     27  C   LIG    1       -1.177  -0.954  -0.077  0.00  0.00    +0.090 C 
ATOM     28  C   LIG    1        2.345   1.480   0.031  0.00  0.00    -0.020 A 
ATOM     29  C   LIG    1        3.588   2.333   0.071  0.00  0.00    +0.100 C 
ENDBRANCH  19  21
ENDBRANCH  18  19
ENDBRANCH  17  18
ENDBRANCH   9  17
TORSDOF 5
