REMARK  Name = ZINCpe000000XDOL.0
REMARK                            x       y       z     vdW  Elec       q    Type
REMARK                         _______ _______ _______ _____ _____    ______ ____
ROOT
ATOM      1  C   LIG    1       -2.547   4.069   3.602  0.00  0.00    +0.110 C 
ATOM      2  C   LIG    1       -2.005   2.746   3.128  0.00  0.00    -0.110 A 
ATOM      3  C   LIG    1       -2.180   1.615   3.898  0.00  0.00    +0.110 A 
ATOM      4  C   LIG    1       -1.677   0.389   3.457  0.00  0.00    -0.160 A 
ATOM      5  C   LIG    1       -0.999   0.318   2.239  0.00  0.00    +0.200 A 
ATOM      6  C   LIG    1       -0.831   1.456   1.479  0.00  0.00    -0.690 A 
ATOM      7  C   LIG    1       -1.327   2.669   1.924  0.00  0.00    +0.050 A 
ATOM      8  C   LIG    1       -1.134   3.910   1.091  0.00  0.00    +0.100 C 
ENDROOT
BRANCH   4   9
ATOM      9  C   LIG    1       -1.861  -0.827   4.277  0.00  0.00    +0.570 C 
ATOM     10  N   LIG    1       -2.516  -0.754   5.453  0.00  0.00    -0.720 N 
ATOM     11  H   LIG    1       -2.866   0.096   5.761  0.00  0.00    +0.400 HD
ATOM     12  O   LIG    1       -1.422  -1.893   3.891  0.00  0.00    -0.520 OA
BRANCH  10  13
ATOM     13  C   LIG    1       -2.699  -1.960   6.265  0.00  0.00    +0.180 C 
ATOM     14  C   LIG    1       -3.509  -1.602   7.505  0.00  0.00    +0.080 C 
ATOM     15  C   LIG    1       -2.746  -1.907   8.810  0.00  0.00    -0.300 C 
ATOM     16  S   LIG    1       -0.987  -1.833   8.283  0.00  0.00    +2.370 S 
ATOM     17  O   LIG    1       -0.215  -2.747   9.051  0.00  0.00    -0.930 OA
ATOM     18  O   LIG    1       -0.578  -0.478   8.159  0.00  0.00    -0.920 OA
ATOM     19  C   LIG    1       -3.474  -2.995   5.448  0.00  0.00    +0.060 C 
ATOM     20  C   LIG    1       -1.314  -2.538   6.621  0.00  0.00    -0.290 C 
ENDBRANCH  10  13
ENDBRANCH   4   9
BRANCH   6  21
ATOM     21  S   LIG    1        0.025   1.368  -0.059  0.00  0.00    +2.690 S 
ATOM     22  O   LIG    1        0.976   2.424  -0.050  0.00  0.00    -0.950 OA
ATOM     23  O   LIG    1        0.379   0.004  -0.243  0.00  0.00    -0.950 OA
BRANCH  21  24
ATOM     24  N   LIG    1       -1.067   1.733  -1.249  0.00  0.00    -1.000 NA
ATOM     25  C   LIG    1       -1.994   0.707  -1.732  0.00  0.00    +0.300 C 
ATOM     26  C   LIG    1       -1.106   3.082  -1.819  0.00  0.00    +0.300 C 
ENDBRANCH  21  24
ENDBRANCH   6  21
TORSDOF 4
