REMARK  Name = ZINCrH000004lXlw.0
REMARK                            x       y       z     vdW  Elec       q    Type
REMARK                         _______ _______ _______ _____ _____    ______ ____
ROOT
ATOM      1  C   LIG    1        1.147   1.655   0.000  0.00  0.00    +0.520 C 
ATOM      2  N   LIG    1       -0.011   0.966   0.007  0.00  0.00    -0.720 N 
ATOM      3  H   LIG    1        0.002  -0.004   0.002  0.00  0.00    +0.400 HD
ATOM      4  O   LIG    1        1.130   2.868   0.007  0.00  0.00    -0.510 OA
ENDROOT
BRANCH   2   5
ATOM      5  C   LIG    1       -1.290   1.681   0.017  0.00  0.00    +0.290 C 
ATOM      6  C   LIG    1       -1.680   2.047  -1.416  0.00  0.00    +0.040 C 
BRANCH   5   7
ATOM      7  C   LIG    1       -2.354   0.799   0.618  0.00  0.00    -0.100 A 
ATOM      8  C   LIG    1       -2.390  -0.549   0.315  0.00  0.00    +0.000 A 
ATOM      9  C   LIG    1       -3.366  -1.350   0.871  0.00  0.00    +0.000 A 
ATOM     10  C   LIG    1       -4.320  -0.811   1.724  0.00  0.00    -0.070 A 
ATOM     11  C   LIG    1       -5.368  -1.740   2.280  0.00  0.00    +0.070 C 
ATOM     12  C   LIG    1       -6.043  -1.118   3.501  0.00  0.00    +0.020 C 
ATOM     13  C   LIG    1       -6.508   0.295   3.129  0.00  0.00    +0.020 C 
ATOM     14  C   LIG    1       -5.275   1.180   2.957  0.00  0.00    +0.080 C 
ATOM     15  C   LIG    1       -4.284   0.531   2.026  0.00  0.00    -0.070 A 
ATOM     16  C   LIG    1       -3.299   1.336   1.468  0.00  0.00    +0.010 A 
ENDBRANCH   5   7
ENDBRANCH   2   5
BRANCH   1  17
ATOM     17  C   LIG    1        2.462   0.920  -0.017  0.00  0.00    +0.240 C 
BRANCH  17  18
ATOM     18  O   LIG    1        3.535   1.863  -0.022  0.00  0.00    -0.270 OA
BRANCH  18  24
ATOM     19  C   LIG    1        5.890   2.227  -0.042  0.00  0.00    +0.110 A 
ATOM     20  C   LIG    1        7.174   1.718  -0.057  0.00  0.00    +0.020 A 
ATOM     21  C   LIG    1        7.375   0.335  -0.066  0.00  0.00    -0.030 A 
ATOM     22  C   LIG    1        6.275  -0.527  -0.060  0.00  0.00    +0.080 A 
ATOM     23  C   LIG    1        4.996  -0.012  -0.040  0.00  0.00    -0.030 A 
ATOM     24  C   LIG    1        4.798   1.361  -0.036  0.00  0.00    +0.130 A 
BRANCH  19  26
ATOM     25  C   LIG    1        6.857   4.400  -0.041  0.00  0.00    +0.250 C 
ATOM     26  O   LIG    1        5.692   3.572  -0.034  0.00  0.00    -0.300 OA
ENDBRANCH  19  26
BRANCH  21  27
ATOM     27  C   LIG    1        8.704  -0.198  -0.080  0.00  0.00    +0.250 C 
ATOM     28  N   LIG    1        9.758  -0.621  -0.092  0.00  0.00    -0.410 NA
ENDBRANCH  21  27
ENDBRANCH  18  24
ENDBRANCH  17  18
ENDBRANCH   1  17
TORSDOF 7
