REMARK  Name = ZINCqH0000008vKY.0
REMARK                            x       y       z     vdW  Elec       q    Type
REMARK                         _______ _______ _______ _____ _____    ______ ____
ROOT
ATOM      1  N   LIG    1       -4.226  -4.610   0.903  0.00  0.00    -0.720 N 
ATOM      2  H   LIG    1       -3.312  -4.884   1.078  0.00  0.00    +0.400 HD
ATOM      3  C   LIG    1       -5.250  -5.279   1.468  0.00  0.00    +0.540 C 
ATOM      4  O   LIG    1       -6.393  -4.937   1.249  0.00  0.00    -0.510 OA
ENDROOT
BRANCH   1   6
ATOM      5  C   LIG    1       -4.758  -3.970  -1.397  0.00  0.00    +0.040 C 
ATOM      6  C   LIG    1       -4.494  -3.469   0.024  0.00  0.00    +0.290 C 
BRANCH   6   7
ATOM      7  C   LIG    1       -3.300  -2.549   0.018  0.00  0.00    -0.090 A 
ATOM      8  C   LIG    1       -3.485  -1.179   0.027  0.00  0.00    +0.060 A 
ATOM      9  C   LIG    1       -2.393  -0.333   0.022  0.00  0.00    +0.030 A 
ATOM     10  C   LIG    1       -1.108  -0.860   0.007  0.00  0.00    +0.150 A 
ATOM     11  C   LIG    1       -0.926  -2.236  -0.008  0.00  0.00    +0.010 A 
ATOM     12  C   LIG    1       -2.022  -3.077   0.004  0.00  0.00    +0.040 A 
BRANCH  10  13
ATOM     13  N   LIG    1        0.002  -0.004   0.002  0.00  0.00    -0.330 N 
ATOM     14  C   LIG    1        1.300  -0.365  -0.012  0.00  0.00    +0.480 A 
ATOM     15  N   LIG    1        2.024   0.725  -0.013  0.00  0.00    -0.530 NA
ATOM     16  C   LIG    1        1.229   1.795   0.000  0.00  0.00    +0.440 A 
ATOM     17  N   LIG    1       -0.017   1.400   0.010  0.00  0.00    -0.310 NA
ENDBRANCH  10  13
ENDBRANCH   6   7
ENDBRANCH   1   6
BRANCH   3  18
ATOM     18  C   LIG    1       -4.976  -6.453   2.372  0.00  0.00    +0.010 C 
ATOM     19  C   LIG    1       -4.711  -5.952   3.793  0.00  0.00    +0.080 C 
BRANCH  18  20
ATOM     20  S   LIG    1       -6.412  -7.561   2.379  0.00  0.00    -0.170 S 
BRANCH  20  21
ATOM     21  C   LIG    1       -5.842  -8.962   3.380  0.00  0.00    +0.120 C 
BRANCH  21  22
ATOM     22  C   LIG    1       -6.943  -9.987   3.481  0.00  0.00    -0.080 A 
ATOM     23  C   LIG    1       -7.854  -9.922   4.519  0.00  0.00    +0.020 A 
ATOM     24  C   LIG    1       -8.866 -10.859   4.609  0.00  0.00    +0.010 A 
ATOM     25  C   LIG    1       -8.960 -11.868   3.668  0.00  0.00    +0.010 A 
ATOM     26  C   LIG    1       -8.046 -11.936   2.634  0.00  0.00    +0.000 A 
ATOM     27  C   LIG    1       -7.037 -10.995   2.540  0.00  0.00    +0.020 A 
ENDBRANCH  21  22
ENDBRANCH  20  21
ENDBRANCH  18  20
ENDBRANCH   3  18
TORSDOF 7
