REMARK  Name = ZINCtV00000L6l2C.0
REMARK                            x       y       z     vdW  Elec       q    Type
REMARK                         _______ _______ _______ _____ _____    ______ ____
ROOT
ATOM      1  C   LIG    1       -0.750   3.825  -0.008  0.00  0.00    +0.270 A 
ATOM      2  N   LIG    1        0.541   3.985  -0.038  0.00  0.00    -0.460 NA
ATOM      3  C   LIG    1        1.153   2.773  -0.008  0.00  0.00    +0.040 A 
ATOM      4  C   LIG    1        2.490   2.369  -0.019  0.00  0.00    +0.070 A 
ATOM      5  C   LIG    1        2.799   1.038   0.019  0.00  0.00    +0.000 A 
ATOM      6  C   LIG    1        1.796   0.080   0.071  0.00  0.00    +0.040 A 
ATOM      7  C   LIG    1        0.470   0.457   0.083  0.00  0.00    +0.010 A 
ATOM      8  C   LIG    1        0.137   1.804   0.044  0.00  0.00    +0.060 A 
ATOM      9  N   LIG    1       -1.055   2.500   0.037  0.00  0.00    -0.470 N 
ENDROOT
BRANCH   1  10
ATOM     10  C   LIG    1       -1.760   4.943  -0.026  0.00  0.00    +0.320 C 
BRANCH  10  11
ATOM     11  O   LIG    1       -1.994   5.351  -1.376  0.00  0.00    -0.300 OA
BRANCH  11  16
ATOM     12 CL   LIG    1       -5.841   9.694  -2.214  0.00  0.00    -0.070 Cl
ATOM     13  C   LIG    1       -4.701   8.408  -1.966  0.00  0.00    -0.070 A 
ATOM     14  C   LIG    1       -4.067   7.828  -3.050  0.00  0.00    +0.070 A 
ATOM     15  C   LIG    1       -3.160   6.804  -2.855  0.00  0.00    +0.010 A 
ATOM     16  C   LIG    1       -2.885   6.358  -1.570  0.00  0.00    +0.130 A 
ATOM     17  C   LIG    1       -3.526   6.938  -0.485  0.00  0.00    -0.060 A 
ATOM     18  C   LIG    1       -4.429   7.964  -0.684  0.00  0.00    +0.070 A 
ENDBRANCH  11  16
ENDBRANCH  10  11
ENDBRANCH   1  10
BRANCH   9  19
ATOM     19  C   LIG    1       -2.400   1.919   0.073  0.00  0.00    +0.350 C 
BRANCH  19  20
ATOM     20  C   LIG    1       -2.866   1.643  -1.333  0.00  0.00    -0.120 A 
ATOM     21  C   LIG    1       -3.358   2.653  -2.101  0.00  0.00    +0.040 A 
ATOM     22  C   LIG    1       -3.794   2.417  -3.404  0.00  0.00    +0.010 A 
ATOM     23  C   LIG    1       -3.740   1.170  -3.946  0.00  0.00    +0.040 A 
ATOM     24  C   LIG    1       -3.237   0.102  -3.183  0.00  0.00    -0.060 A 
ATOM     25  C   LIG    1       -3.165  -1.199  -3.709  0.00  0.00    +0.030 A 
ATOM     26  C   LIG    1       -2.656  -2.206  -2.947  0.00  0.00    +0.010 A 
ATOM     27  C   LIG    1       -2.220  -1.970  -1.645  0.00  0.00    +0.030 A 
ATOM     28  C   LIG    1       -2.280  -0.724  -1.101  0.00  0.00    +0.010 A 
ATOM     29  C   LIG    1       -2.788   0.343  -1.861  0.00  0.00    -0.030 A 
ENDBRANCH  19  20
ENDBRANCH   9  19
TORSDOF 5
