REMARK  Name = ZINCrD0000073A3v.0
REMARK                            x       y       z     vdW  Elec       q    Type
REMARK                         _______ _______ _______ _____ _____    ______ ____
ROOT
ATOM      1  C   LIG    1       -1.341   5.184  -2.232  0.00  0.00    +0.150 A 
ATOM      2  C   LIG    1       -1.688   5.770  -1.022  0.00  0.00    -0.070 A 
ATOM      3  C   LIG    1       -1.713   5.008   0.129  0.00  0.00    +0.070 A 
ATOM      4  C   LIG    1       -1.389   3.659   0.064  0.00  0.00    -0.070 A 
ATOM      5  C   LIG    1       -1.060   3.058  -1.157  0.00  0.00    -0.010 A 
ATOM      6  C   LIG    1       -0.748   1.590  -1.229  0.00  0.00    +0.100 C 
ATOM      7  C   LIG    1       -0.013   1.086   0.008  0.00  0.00    +0.120 C 
ATOM      8  C   LIG    1       -0.722   1.575   1.261  0.00  0.00    -0.130 A 
ATOM      9  C   LIG    1       -0.811   0.909   2.453  0.00  0.00    +0.130 A 
ATOM     10  C   LIG    1       -1.489   1.565   3.442  0.00  0.00    -0.270 A 
ATOM     11  S   LIG    1       -2.054   3.118   2.844  0.00  0.00    +0.250 S 
ATOM     12  C   LIG    1       -1.357   2.805   1.270  0.00  0.00    -0.120 A 
ATOM     13  C   LIG    1       -1.029   3.832  -2.299  0.00  0.00    -0.010 A 
ENDROOT
BRANCH   1  15
ATOM     14  C   LIG    1       -1.636   7.323  -3.226  0.00  0.00    +0.240 C 
ATOM     15  O   LIG    1       -1.305   5.939  -3.361  0.00  0.00    -0.310 OA
ENDBRANCH   1  15
BRANCH  10  16
ATOM     16  C   LIG    1       -1.709   1.053   4.794  0.00  0.00    +0.550 C 
ATOM     17  O   LIG    1       -1.273  -0.038   5.110  0.00  0.00    -0.490 OA
BRANCH  16  18
ATOM     18  O   LIG    1       -2.397   1.791   5.691  0.00  0.00    -0.330 OA
BRANCH  18  19
ATOM     19  C   LIG    1       -2.574   1.229   6.992  0.00  0.00    +0.270 C 
BRANCH  19  20
ATOM     20  C   LIG    1       -3.359   2.188   7.851  0.00  0.00    +0.530 C 
ATOM     21  N   LIG    1       -3.648   1.867   9.127  0.00  0.00    -0.730 N 
ATOM     22  H   LIG    1       -3.352   1.019   9.494  0.00  0.00    +0.410 HD
ATOM     23  O   LIG    1       -3.729   3.248   7.392  0.00  0.00    -0.500 OA
BRANCH  21  24
ATOM     24  C   LIG    1       -4.411   2.799   9.961  0.00  0.00    +0.320 C 
BRANCH  24  25
ATOM     25  C   LIG    1       -4.601   2.198  11.355  0.00  0.00    +0.450 C 
ATOM     26  F   LIG    1       -5.297   0.989  11.251  0.00  0.00    -0.180 F 
ATOM     27  F   LIG    1       -5.330   3.088  12.152  0.00  0.00    -0.170 F 
ATOM     28  F   LIG    1       -3.350   1.967  11.938  0.00  0.00    -0.180 F 
ENDBRANCH  24  25
ENDBRANCH  21  24
ENDBRANCH  19  20
ENDBRANCH  18  19
ENDBRANCH  16  18
ENDBRANCH  10  16
TORSDOF 7
