REMARK  Name = ZINCnE000001QIJL.0
REMARK                            x       y       z     vdW  Elec       q    Type
REMARK                         _______ _______ _______ _____ _____    ______ ____
ROOT
ATOM      1  C   LIG    1       -3.114   3.657   3.879  0.00  0.00    +0.600 C 
ATOM      2  N   LIG    1       -4.069   4.436   3.334  0.00  0.00    -0.600 N 
ATOM      3  C   LIG    1       -4.208   4.539   1.875  0.00  0.00    +0.250 C 
ATOM      4  C   LIG    1       -5.661   4.210   1.499  0.00  0.00    +0.010 C 
ATOM      5  C   LIG    1       -6.605   5.123   2.286  0.00  0.00    +0.020 C 
ATOM      6  C   LIG    1       -6.427   4.871   3.785  0.00  0.00    -0.030 C 
ATOM      7  C   LIG    1       -4.987   5.203   4.187  0.00  0.00    +0.290 C 
ATOM      8  O   LIG    1       -3.069   3.503   5.085  0.00  0.00    -0.520 OA
ENDROOT
BRANCH   1  11
ATOM      9  C   LIG    1       -2.164   0.789   4.230  0.00  0.00    +0.170 C 
ATOM     10  C   LIG    1       -1.683   1.719   3.146  0.00  0.00    +0.140 A 
ATOM     11  C   LIG    1       -2.128   2.994   3.018  0.00  0.00    -0.300 A 
ATOM     12  S   LIG    1       -1.309   3.712   1.633  0.00  0.00    +0.170 S 
ATOM     13  C   LIG    1       -0.462   2.252   1.365  0.00  0.00    +0.060 A 
ATOM     14  N   LIG    1       -0.802   1.365   2.244  0.00  0.00    -0.470 NA
BRANCH  13  15
ATOM     15  C   LIG    1        0.536   2.027   0.259  0.00  0.00    +0.010 C 
ATOM     16  C   LIG    1        0.667   3.303  -0.577  0.00  0.00    +0.040 C 
ATOM     17  C   LIG    1        1.896   1.672   0.863  0.00  0.00    +0.070 C 
ATOM     18  C   LIG    1        0.059   0.880  -0.634  0.00  0.00    +0.070 C 
ENDBRANCH  13  15
ENDBRANCH   1  11
BRANCH   6  19
ATOM     19  C   LIG    1       -7.394   5.760   4.570  0.00  0.00    +0.040 C 
BRANCH  19  20
ATOM     20  C   LIG    1       -7.302   5.423   6.060  0.00  0.00    -0.070 C 
BRANCH  20  21
ATOM     21  C   LIG    1       -8.254   6.298   6.833  0.00  0.00    +0.490 C 
ATOM     22  O   LIG    1       -8.336   6.189   8.044  0.00  0.00    -0.710 OA
ATOM     23  O   LIG    1       -8.943   7.116   6.247  0.00  0.00    -0.700 OA
ENDBRANCH  20  21
ENDBRANCH  19  20
ENDBRANCH   6  19
TORSDOF 5
