REMARK  Name = ZINCnE000001Tpz0.1
REMARK                            x       y       z     vdW  Elec       q    Type
REMARK                         _______ _______ _______ _____ _____    ______ ____
ROOT
ATOM      1  C   LIG    1        1.156   3.168   0.013  0.00  0.00    +0.180 A 
ATOM      2  C   LIG    1        1.174   1.790   0.185  0.00  0.00    -0.010 A 
ATOM      3  C   LIG    1       -0.012   1.082   0.197  0.00  0.00    +0.140 A 
ATOM      4  C   LIG    1       -1.216   1.743   0.033  0.00  0.00    -0.630 A 
ATOM      5  C   LIG    1       -1.237   3.116  -0.133  0.00  0.00    +0.140 A 
ATOM      6  C   LIG    1       -0.055   3.830  -0.146  0.00  0.00    -0.040 A 
ENDROOT
BRANCH   1   9
ATOM      7  O   LIG    1        3.418   2.240  -1.037  0.00  0.00    -0.510 OA
ATOM      8  C   LIG    1        3.472   3.329  -0.506  0.00  0.00    +0.540 C 
ATOM      9  N   LIG    1        2.356   3.889   0.001  0.00  0.00    -0.670 N 
ATOM     10  H   LIG    1        2.383   4.791   0.356  0.00  0.00    +0.410 HD
BRANCH   8  11
ATOM     11  C   LIG    1        4.789   4.057  -0.412  0.00  0.00    -0.070 C 
ATOM     12  C   LIG    1        5.403   4.577  -1.713  0.00  0.00    +0.060 C 
ATOM     13  C   LIG    1        6.020   3.369  -1.005  0.00  0.00    +0.070 C 
ENDBRANCH   8  11
ENDBRANCH   1   9
BRANCH   4  14
ATOM     14  S   LIG    1       -2.726   0.835   0.043  0.00  0.00    +2.610 S 
ATOM     15  O   LIG    1       -2.394  -0.498  -0.320  0.00  0.00    -1.030 OA
ATOM     16  O   LIG    1       -3.671   1.622  -0.669  0.00  0.00    -1.030 OA
BRANCH  14  17
ATOM     17  N   LIG    1       -3.252   0.777   1.611  0.00  0.00    -1.090 NA
BRANCH  17  18
ATOM     18  C   LIG    1       -4.441   0.112   1.925  0.00  0.00    +0.290 A 
ATOM     19  C   LIG    1       -5.185  -0.494   0.921  0.00  0.00    -0.160 A 
ATOM     20  C   LIG    1       -6.357  -1.155   1.234  0.00  0.00    +0.060 A 
ATOM     21  C   LIG    1       -6.795  -1.203   2.546  0.00  0.00    -0.140 A 
ATOM     22  C   LIG    1       -6.059  -0.595   3.547  0.00  0.00    +0.050 A 
ATOM     23 CL   LIG    1       -8.272  -2.029   2.935  0.00  0.00    -0.120 Cl
ATOM     24  C   LIG    1       -4.884   0.062   3.240  0.00  0.00    -0.050 A 
ENDBRANCH  17  18
ENDBRANCH  14  17
ENDBRANCH   4  14
TORSDOF 5
