REMARK  Name = ZINCpe000000Wsn6.0
REMARK                            x       y       z     vdW  Elec       q    Type
REMARK                         _______ _______ _______ _____ _____    ______ ____
ROOT
ATOM      1  N   LIG    1        1.217  -0.448  -0.365  0.00  0.00    -0.560 N 
ATOM      2  C   LIG    1        2.128   0.667  -0.649  0.00  0.00    +0.310 C 
ATOM      3  C   LIG    1        1.475   1.908  -0.002  0.00  0.00    +0.010 C 
ATOM      4  C   LIG    1       -0.018   1.509   0.010  0.00  0.00    +0.080 C 
ATOM      5  C   LIG    1        0.002  -0.004   0.002  0.00  0.00    +0.520 C 
ATOM      6  O   LIG    1       -0.940  -0.713   0.285  0.00  0.00    -0.520 OA
ENDROOT
BRANCH   3   7
ATOM      7  C   LIG    1        1.989   2.119   1.399  0.00  0.00    +0.520 C 
ATOM      8  N   LIG    1        1.449   3.078   2.178  0.00  0.00    -0.610 N 
ATOM      9  C   LIG    1        0.362   3.933   1.677  0.00  0.00    +0.280 C 
ATOM     10  C   LIG    1       -0.783   3.907   2.702  0.00  0.00    +0.170 C 
ATOM     11  N   LIG    1       -0.259   4.277   4.024  0.00  0.00    -0.540 NA
ATOM     12  C   LIG    1        0.732   3.302   4.497  0.00  0.00    +0.170 C 
ATOM     13  C   LIG    1       -1.349   4.435   4.996  0.00  0.00    +0.190 C 
ATOM     14  C   LIG    1        1.935   3.300   3.548  0.00  0.00    +0.300 C 
ATOM     15  O   LIG    1        2.887   1.425   1.827  0.00  0.00    -0.520 OA
ENDBRANCH   3   7
BRANCH   1  20
ATOM     16  C   LIG    1        1.740  -3.817  -1.756  0.00  0.00    +0.100 A 
ATOM     17  C   LIG    1        2.264  -4.478  -0.655  0.00  0.00    -0.020 A 
ATOM     18  C   LIG    1        2.440  -3.805   0.540  0.00  0.00    -0.030 A 
ATOM     19  C   LIG    1        2.098  -2.466   0.639  0.00  0.00    +0.110 A 
ATOM     20  C   LIG    1        1.567  -1.801  -0.464  0.00  0.00    +0.150 A 
ATOM     21  C   LIG    1        1.392  -2.478  -1.661  0.00  0.00    +0.040 A 
BRANCH  16  23
ATOM     22  C   LIG    1        1.949  -5.859  -2.956  0.00  0.00    +0.250 C 
ATOM     23  O   LIG    1        1.569  -4.482  -2.929  0.00  0.00    -0.320 OA
ENDBRANCH  16  23
BRANCH  19  24
ATOM     24  O   LIG    1        2.277  -1.803   1.813  0.00  0.00    -0.300 OA
ATOM     25  C   LIG    1        2.826  -2.548   2.902  0.00  0.00    +0.240 C 
ENDBRANCH  19  24
ENDBRANCH   1  20
TORSDOF 4
