REMARK  Name = ZINCpe00000LZjuq.0
REMARK                            x       y       z     vdW  Elec       q    Type
REMARK                         _______ _______ _______ _____ _____    ______ ____
ROOT
ATOM      1  N   LIG    1        1.516   3.801   0.008  0.00  0.00    -1.000 NA
ATOM      2  C   LIG    1        1.433   4.562  -1.249  0.00  0.00    +0.270 C 
ATOM      3  C   LIG    1        0.206   5.484  -1.171  0.00  0.00    +0.230 C 
ATOM      4  O   LIG    1        0.273   6.253   0.033  0.00  0.00    -0.360 OA
ATOM      5  C   LIG    1        0.229   5.471   1.229  0.00  0.00    +0.270 C 
ATOM      6  C   LIG    1        1.451   4.548   1.274  0.00  0.00    +0.300 C 
ENDROOT
BRANCH   5   7
ATOM      7  C   LIG    1        0.242   6.384   2.428  0.00  0.00    +0.230 A 
ATOM      8  N   LIG    1        1.029   7.415   2.589  0.00  0.00    -0.280 NA
ATOM      9  N   LIG    1        0.709   7.980   3.834  0.00  0.00    -0.460 N 
ATOM     10  H   LIG    1        1.116   8.761   4.240  0.00  0.00    +0.450 HD
ATOM     11  C   LIG    1       -0.271   7.221   4.353  0.00  0.00    +0.290 A 
ATOM     12  N   LIG    1       -0.541   6.267   3.500  0.00  0.00    -0.530 NA
BRANCH  11  13
ATOM     13  C   LIG    1       -0.942   7.431   5.686  0.00  0.00    +0.340 C 
BRANCH  13  14
ATOM     14  O   LIG    1       -0.376   8.575   6.329  0.00  0.00    -0.580 OA
ATOM     15  H   LIG    1       -0.761   8.771   7.194  0.00  0.00    +0.400 HD
ENDBRANCH  13  14
ENDBRANCH  11  13
ENDBRANCH   5   7
BRANCH   1  17
ATOM     16  O   LIG    1        2.333   1.860   1.227  0.00  0.00    -0.940 OA
ATOM     17  S   LIG    1        1.683   2.154  -0.002  0.00  0.00    +2.610 S 
ATOM     18  O   LIG    1        2.309   1.873  -1.247  0.00  0.00    -0.940 OA
BRANCH  17  19
ATOM     19  C   LIG    1       -0.019   1.526   0.010  0.00  0.00    -0.350 C 
BRANCH  19  20
ATOM     20  C   LIG    1        0.002  -0.004   0.002  0.00  0.00    +0.110 C 
BRANCH  20  21
ATOM     21  C   LIG    1       -1.412  -0.526   0.013  0.00  0.00    -0.070 A 
ATOM     22  C   LIG    1       -2.046  -0.777   1.215  0.00  0.00    +0.020 A 
ATOM     23  C   LIG    1       -3.346  -1.250   1.225  0.00  0.00    +0.040 A 
ATOM     24  C   LIG    1       -4.006  -1.483   0.034  0.00  0.00    +0.030 A 
ATOM     25  C   LIG    1       -3.369  -1.237  -1.170  0.00  0.00    -0.030 A 
ATOM     26 CL   LIG    1       -4.199  -1.529  -2.666  0.00  0.00    -0.070 Cl
ATOM     27  C   LIG    1       -2.071  -0.758  -1.180  0.00  0.00    +0.030 A 
ENDBRANCH  20  21
ENDBRANCH  19  20
ENDBRANCH  17  19
ENDBRANCH   1  17
TORSDOF 7
