REMARK  Name = ZINCpe00000LZjuq.1
REMARK                            x       y       z     vdW  Elec       q    Type
REMARK                         _______ _______ _______ _____ _____    ______ ____
ROOT
ATOM      1  N   LIG    1        4.563   1.438  -1.307  0.00  0.00    -1.000 NA
ATOM      2  C   LIG    1        4.694  -0.027  -1.306  0.00  0.00    +0.270 C 
ATOM      3  C   LIG    1        3.908  -0.581  -0.112  0.00  0.00    +0.250 C 
ATOM      4  O   LIG    1        2.576  -0.062  -0.143  0.00  0.00    -0.380 OA
ATOM      5  C   LIG    1        2.499   1.360  -0.015  0.00  0.00    +0.270 C 
ATOM      6  C   LIG    1        3.213   2.014  -1.203  0.00  0.00    +0.300 C 
ENDROOT
BRANCH   5   7
ATOM      7  C   LIG    1        1.054   1.786   0.002  0.00  0.00    +0.290 A 
ATOM      8  N   LIG    1        0.617   3.019   0.012  0.00  0.00    -0.520 NA
ATOM      9  C   LIG    1       -0.716   3.026   0.024  0.00  0.00    +0.230 A 
ATOM     10  N   LIG    1       -1.147   1.792   0.017  0.00  0.00    -0.290 NA
ATOM     11  N   LIG    1       -0.011   0.966   0.007  0.00  0.00    -0.460 N 
ATOM     12  H   LIG    1        0.002  -0.004   0.002  0.00  0.00    +0.450 HD
BRANCH   9  13
ATOM     13  C   LIG    1       -1.585   4.257   0.038  0.00  0.00    +0.330 C 
BRANCH  13  14
ATOM     14  O   LIG    1       -1.872   4.653  -1.305  0.00  0.00    -0.570 OA
ATOM     15  H   LIG    1       -2.428   5.441  -1.372  0.00  0.00    +0.390 HD
ENDBRANCH  13  14
ENDBRANCH   9  13
ENDBRANCH   5   7
BRANCH   1  17
ATOM     16  O   LIG    1        5.503   3.624  -0.793  0.00  0.00    -0.940 OA
ATOM     17  S   LIG    1        5.898   2.413  -1.423  0.00  0.00    +2.610 S 
ATOM     18  O   LIG    1        6.954   1.623  -0.894  0.00  0.00    -0.950 OA
BRANCH  17  19
ATOM     19  C   LIG    1        6.122   2.665  -3.205  0.00  0.00    -0.340 C 
BRANCH  19  20
ATOM     20  C   LIG    1        7.339   3.560  -3.444  0.00  0.00    +0.110 C 
BRANCH  20  21
ATOM     21  C   LIG    1        7.525   3.769  -4.925  0.00  0.00    -0.070 A 
ATOM     22  C   LIG    1        8.317   2.901  -5.652  0.00  0.00    +0.020 A 
ATOM     23  C   LIG    1        8.484   3.089  -7.011  0.00  0.00    +0.040 A 
ATOM     24  C   LIG    1        7.867   4.152  -7.642  0.00  0.00    +0.030 A 
ATOM     25  C   LIG    1        7.078   5.026  -6.915  0.00  0.00    -0.030 A 
ATOM     26 CL   LIG    1        6.303   6.362  -7.707  0.00  0.00    -0.060 Cl
ATOM     27  C   LIG    1        6.907   4.834  -5.555  0.00  0.00    +0.030 A 
ENDBRANCH  20  21
ENDBRANCH  19  20
ENDBRANCH  17  19
ENDBRANCH   1  17
TORSDOF 7
