REMARK  Name = ZINCrg000000thbw.0
REMARK                            x       y       z     vdW  Elec       q    Type
REMARK                         _______ _______ _______ _____ _____    ______ ____
ROOT
ATOM      1  N   LIG    1       -4.315   7.197   1.194  0.00  0.00    -0.720 N 
ATOM      2  H   LIG    1       -4.624   6.907   2.067  0.00  0.00    +0.400 HD
ENDROOT
BRANCH   1   3
ATOM      3  C   LIG    1       -4.046   6.209   0.146  0.00  0.00    +0.260 C 
ATOM      4  C   LIG    1       -4.796   4.889   0.442  0.00  0.00    +0.070 C 
ATOM      5  C   LIG    1       -3.780   3.834  -0.054  0.00  0.00    +0.270 C 
ATOM      6  N   LIG    1       -2.466   4.480   0.049  0.00  0.00    -0.560 N 
ATOM      7  C   LIG    1       -2.586   5.815   0.153  0.00  0.00    +0.490 C 
ATOM      8  O   LIG    1       -1.657   6.590   0.240  0.00  0.00    -0.480 OA
BRANCH   6   9
ATOM      9  C   LIG    1       -1.245   3.795   0.034  0.00  0.00    +0.170 A 
ATOM     10  C   LIG    1       -0.051   4.502   0.011  0.00  0.00    +0.050 A 
ATOM     11  C   LIG    1        1.153   3.825  -0.004  0.00  0.00    +0.040 A 
ATOM     12  C   LIG    1        1.169   2.441   0.004  0.00  0.00    +0.080 A 
ATOM     13  C   LIG    1       -0.021   1.732   0.027  0.00  0.00    -0.050 A 
ATOM     14 CL   LIG    1        0.003  -0.004   0.037  0.00  0.00    -0.040 Cl
ATOM     15  F   LIG    1        2.348   1.780  -0.011  0.00  0.00    -0.130 F 
ATOM     16  C   LIG    1       -1.228   2.406   0.036  0.00  0.00    +0.020 A 
ENDBRANCH   6   9
ENDBRANCH   1   3
BRANCH   1  19
ATOM     17  N   LIG    1       -4.038  10.745   1.168  0.00  0.00    -0.360 N 
ATOM     18  C   LIG    1       -4.337   9.584   1.808  0.00  0.00    +0.150 A 
ATOM     19  C   LIG    1       -4.126   8.568   0.933  0.00  0.00    +0.060 A 
ATOM     20  C   LIG    1       -3.682   9.125  -0.274  0.00  0.00    +0.200 A 
ATOM     21  N   LIG    1       -3.634  10.426  -0.135  0.00  0.00    -0.240 NA
BRANCH  17  22
ATOM     22  C   LIG    1       -4.123  12.092   1.739  0.00  0.00    +0.360 C 
BRANCH  22  24
ATOM     23  O   LIG    1       -1.866  12.211   1.060  0.00  0.00    -0.510 OA
ATOM     24  C   LIG    1       -2.793  12.785   1.591  0.00  0.00    +0.500 C 
ATOM     25  N   LIG    1       -2.635  14.043   2.047  0.00  0.00    -0.730 N 
ATOM     26  H   LIG    1       -3.376  14.502   2.471  0.00  0.00    +0.400 HD
BRANCH  25  27
ATOM     27  C   LIG    1       -1.342  14.717   1.903  0.00  0.00    +0.280 C 
BRANCH  27  28
ATOM     28  C   LIG    1       -1.431  16.123   2.499  0.00  0.00    +0.190 C 
BRANCH  28  29
ATOM     29  O   LIG    1       -1.653  16.030   3.908  0.00  0.00    -0.570 OA
ATOM     30  H   LIG    1       -1.720  16.886   4.353  0.00  0.00    +0.380 HD
ENDBRANCH  28  29
ENDBRANCH  27  28
ENDBRANCH  25  27
ENDBRANCH  22  24
ENDBRANCH  17  22
ENDBRANCH   1  19
TORSDOF 8
