REMARK  Name = ZINCtV00000L6kR6.0
REMARK                            x       y       z     vdW  Elec       q    Type
REMARK                         _______ _______ _______ _____ _____    ______ ____
ROOT
ATOM      1  C   LIG    1       -1.207   0.818  -2.223  0.00  0.00    +0.230 A 
ATOM      2  N   LIG    1       -1.403   1.685  -3.189  0.00  0.00    -0.270 NA
ATOM      3  N   LIG    1       -1.424   2.877  -2.712  0.00  0.00    -0.290 NA
ATOM      4  C   LIG    1       -1.248   2.845  -1.409  0.00  0.00    +0.150 A 
ATOM      5  N   LIG    1       -1.108   1.534  -1.052  0.00  0.00    -0.440 N 
ENDROOT
BRANCH   1  11
ATOM      6  C   LIG    1       -2.510  -3.383  -4.579  0.00  0.00    +0.100 C 
ATOM      7  C   LIG    1       -1.738  -2.675  -3.496  0.00  0.00    -0.080 A 
ATOM      8  C   LIG    1       -0.939  -3.401  -2.631  0.00  0.00    +0.030 A 
ATOM      9  C   LIG    1       -0.227  -2.759  -1.634  0.00  0.00    +0.020 A 
ATOM     10  C   LIG    1       -0.305  -1.389  -1.499  0.00  0.00    +0.000 A 
ATOM     11  C   LIG    1       -1.114  -0.650  -2.365  0.00  0.00    -0.010 A 
ATOM     12  C   LIG    1       -1.830  -1.304  -3.369  0.00  0.00    +0.050 A 
ENDBRANCH   1  11
BRANCH   5  13
ATOM     13  C   LIG    1       -0.891   1.002   0.295  0.00  0.00    +0.250 C 
ATOM     14  C   LIG    1        0.466   1.478   0.819  0.00  0.00    +0.010 C 
ATOM     15  C   LIG    1        0.693   0.922   2.226  0.00  0.00    +0.040 C 
ATOM     16  C   LIG    1       -0.416   1.420   3.156  0.00  0.00    +0.010 C 
ATOM     17  C   LIG    1       -1.773   0.944   2.632  0.00  0.00    +0.040 C 
ATOM     18  C   LIG    1       -1.999   1.500   1.225  0.00  0.00    -0.020 C 
ATOM     19  C   LIG    1       -3.356   1.024   0.701  0.00  0.00    +0.030 C 
ENDBRANCH   5  13
BRANCH   4  20
ATOM     20  S   LIG    1       -1.202   4.234  -0.326  0.00  0.00    +0.080 S 
BRANCH  20  21
ATOM     21  C   LIG    1       -1.455   5.571  -1.519  0.00  0.00    +0.070 C 
BRANCH  21  22
ATOM     22  C   LIG    1       -1.452   6.895  -0.798  0.00  0.00    +0.450 C 
ATOM     23  O   LIG    1       -1.294   6.930   0.406  0.00  0.00    -0.430 OA
BRANCH  22  24
ATOM     24  C   LIG    1       -1.634   8.092  -1.521  0.00  0.00    -0.310 A 
ATOM     25  C   LIG    1       -1.656   9.354  -0.981  0.00  0.00    +0.140 A 
ATOM     26  C   LIG    1       -1.845  10.340  -1.914  0.00  0.00    +0.010 A 
ATOM     27  C   LIG    1       -1.984   9.909  -3.178  0.00  0.00    -0.160 A 
ATOM     28 CL   LIG    1       -2.240  10.945  -4.548  0.00  0.00    +0.000 Cl
ATOM     29  S   LIG    1       -1.875   8.208  -3.259  0.00  0.00    +0.290 S 
ENDBRANCH  22  24
ENDBRANCH  21  22
ENDBRANCH  20  21
ENDBRANCH   4  20
TORSDOF 6
