REMARK  Name = ZINCrH000004kMd9.0
REMARK                            x       y       z     vdW  Elec       q    Type
REMARK                         _______ _______ _______ _____ _____    ______ ____
ROOT
ATOM      1  N   LIG    1        2.403   1.095  -0.015  0.00  0.00    -0.660 N 
ATOM      2  H   LIG    1        3.236   1.587  -0.086  0.00  0.00    +0.420 HD
ATOM      3  C   LIG    1        2.420  -0.249   0.079  0.00  0.00    +0.620 C 
ATOM      4  O   LIG    1        1.374  -0.872   0.086  0.00  0.00    -0.490 OA
ENDROOT
BRANCH   3   5
ATOM      5  C   LIG    1        3.699  -0.962   0.174  0.00  0.00    -0.100 A 
ATOM      6  C   LIG    1        3.848  -2.315   0.279  0.00  0.00    +0.130 A 
ATOM      7  C   LIG    1        5.230  -2.553   0.339  0.00  0.00    -0.280 A 
ATOM      8  C   LIG    1        5.862  -1.316   0.277  0.00  0.00    +0.100 A 
ATOM      9  C   LIG    1        7.361  -1.161   0.325  0.00  0.00    +0.160 C 
ATOM     10  C   LIG    1        7.979  -2.418   0.946  0.00  0.00    +0.070 C 
ATOM     11  C   LIG    1        7.489  -3.676   0.223  0.00  0.00    -0.110 C 
ATOM     12  C   LIG    1        8.205  -4.906   0.785  0.00  0.00    +0.060 C 
ATOM     13  C   LIG    1        7.774  -3.554  -1.276  0.00  0.00    +0.070 C 
ATOM     14  C   LIG    1        5.990  -3.807   0.451  0.00  0.00    +0.430 C 
ATOM     15  O   LIG    1        5.461  -4.869   0.706  0.00  0.00    -0.440 OA
ATOM     16  O   LIG    1        4.923  -0.385   0.177  0.00  0.00    -0.140 OA
ENDBRANCH   3   5
BRANCH   1  21
ATOM     17  C   LIG    1       -0.131   3.711   0.594  0.00  0.00    -0.160 A 
ATOM     18  C   LIG    1       -1.250   3.129  -0.013  0.00  0.00    +0.160 A 
ATOM     19  C   LIG    1       -1.142   1.890  -0.614  0.00  0.00    +0.020 A 
ATOM     20  C   LIG    1        0.065   1.215  -0.609  0.00  0.00    +0.130 A 
ATOM     21  C   LIG    1        1.182   1.782  -0.011  0.00  0.00    +0.110 A 
ATOM     22  F   LIG    1       -2.433   3.781  -0.015  0.00  0.00    -0.120 F 
ATOM     23  C   LIG    1        1.091   3.030   0.592  0.00  0.00    +0.150 A 
ATOM     24  F   LIG    1        2.177   3.583   1.175  0.00  0.00    -0.120 F 
BRANCH  17  25
ATOM     25  C   LIG    1       -0.239   5.036   1.231  0.00  0.00    +0.520 C 
ATOM     26  O   LIG    1       -0.028   6.042   0.583  0.00  0.00    -0.480 OA
BRANCH  25  28
ATOM     27  C   LIG    1       -0.659   6.468   3.095  0.00  0.00    +0.280 C 
ATOM     28  O   LIG    1       -0.571   5.132   2.534  0.00  0.00    -0.340 OA
ENDBRANCH  25  28
ENDBRANCH  17  25
ENDBRANCH   1  21
TORSDOF 4
