REMARK  Name = ZINCqH0000000fgK.0
REMARK                            x       y       z     vdW  Elec       q    Type
REMARK                         _______ _______ _______ _____ _____    ______ ____
ROOT
ATOM      1  N   LIG    1        4.532  -3.145   1.869  0.00  0.00    -0.600 N 
ATOM      2  C   LIG    1        3.629  -2.422   1.177  0.00  0.00    +0.500 C 
ATOM      3  O   LIG    1        3.029  -2.928   0.251  0.00  0.00    -0.520 OA
ENDROOT
BRANCH   1   4
ATOM      4  C   LIG    1        5.256  -2.534   2.986  0.00  0.00    +0.310 C 
BRANCH   4   6
ATOM      5  C   LIG    1        5.061  -3.318   5.290  0.00  0.00    +0.040 C 
ATOM      6  C   LIG    1        4.483  -2.747   4.262  0.00  0.00    -0.080 C 
ENDBRANCH   4   6
ENDBRANCH   1   4
BRANCH   2   7
ATOM      7  C   LIG    1        3.364  -0.987   1.552  0.00  0.00    +0.330 C 
BRANCH   7   8
ATOM      8  N   LIG    1        2.349  -0.427   0.656  0.00  0.00    -0.540 N 
ATOM      9  C   LIG    1        1.037  -0.513   0.972  0.00  0.00    +0.540 C 
ATOM     10  C   LIG    1        0.002  -0.004   0.002  0.00  0.00    +0.040 C 
ATOM     11  C   LIG    1       -0.019   1.523   0.010  0.00  0.00    +0.250 C 
ATOM     12  O   LIG    1        1.310   2.039   0.001  0.00  0.00    -0.330 OA
ATOM     13  C   LIG    1        2.197   1.454  -0.847  0.00  0.00    +0.080 A 
ATOM     14  C   LIG    1        2.570   2.088  -2.020  0.00  0.00    +0.030 A 
ATOM     15  C   LIG    1        3.464   1.477  -2.880  0.00  0.00    +0.020 A 
ATOM     16  C   LIG    1        3.988   0.235  -2.574  0.00  0.00    +0.020 A 
ATOM     17  C   LIG    1        3.622  -0.404  -1.403  0.00  0.00    +0.020 A 
ATOM     18  O   LIG    1        0.695  -0.998   2.030  0.00  0.00    -0.520 OA
ATOM     19  C   LIG    1        2.728   0.203  -0.537  0.00  0.00    +0.110 A 
ENDBRANCH   7   8
ENDBRANCH   2   7
BRANCH   1  20
ATOM     20  C   LIG    1        4.790  -4.540   1.503  0.00  0.00    +0.390 C 
BRANCH  20  21
ATOM     21  C   LIG    1        5.899  -4.596   0.485  0.00  0.00    -0.200 A 
ATOM     22  C   LIG    1        7.198  -4.699   0.769  0.00  0.00    +0.030 A 
ATOM     23  C   LIG    1        8.036  -4.733  -0.333  0.00  0.00    +0.030 A 
ATOM     24  C   LIG    1        7.415  -4.657  -1.512  0.00  0.00    -0.150 A 
ATOM     25 CL   LIG    1        8.202  -4.675  -3.060  0.00  0.00    -0.010 Cl
ATOM     26  S   LIG    1        5.679  -4.542  -1.259  0.00  0.00    +0.190 S 
ENDBRANCH  20  21
ENDBRANCH   1  20
TORSDOF 6
