REMARK  Name = ZINCrH000004mTIO.0
REMARK                            x       y       z     vdW  Elec       q    Type
REMARK                         _______ _______ _______ _____ _____    ______ ____
ROOT
ATOM      1  N   LIG    1        1.143   1.898   0.001  0.00  0.00    -0.730 N 
ATOM      2  H   LIG    1        1.130   2.868   0.007  0.00  0.00    +0.400 HD
ATOM      3  C   LIG    1       -0.014   1.209   0.009  0.00  0.00    +0.520 C 
ATOM      4  O   LIG    1        0.002  -0.004   0.002  0.00  0.00    -0.510 OA
ENDROOT
BRANCH   1   5
ATOM      5  C   LIG    1        2.422   1.183  -0.015  0.00  0.00    +0.310 C 
ATOM      6  C   LIG    1        2.819   0.817   1.417  0.00  0.00    +0.040 C 
BRANCH   5  11
ATOM      7  C   LIG    1        4.322   4.250  -1.139  0.00  0.00    +0.100 A 
ATOM      8  C   LIG    1        5.438   3.683  -1.735  0.00  0.00    -0.040 A 
ATOM      9  C   LIG    1        5.576   2.309  -1.774  0.00  0.00    -0.030 A 
ATOM     10  C   LIG    1        4.602   1.497  -1.212  0.00  0.00    +0.100 A 
ATOM     11  C   LIG    1        3.483   2.065  -0.621  0.00  0.00    -0.080 A 
ATOM     12  C   LIG    1        3.345   3.439  -0.582  0.00  0.00    +0.030 A 
BRANCH   7  14
ATOM     13  C   LIG    1        5.231   6.377  -1.692  0.00  0.00    +0.250 C 
ATOM     14  O   LIG    1        4.186   5.603  -1.099  0.00  0.00    -0.320 OA
ENDBRANCH   7  14
BRANCH  10  15
ATOM     15  O   LIG    1        4.741   0.145  -1.246  0.00  0.00    -0.310 OA
ATOM     16  C   LIG    1        5.918  -0.371  -1.871  0.00  0.00    +0.250 C 
ENDBRANCH  10  15
ENDBRANCH   5  11
ENDBRANCH   1   5
BRANCH   3  17
ATOM     17  C   LIG    1       -1.330   1.944   0.019  0.00  0.00    +0.220 C 
BRANCH  17  18
ATOM     18  O   LIG    1       -2.403   1.001   0.019  0.00  0.00    -0.350 OA
BRANCH  18  19
ATOM     19  C   LIG    1       -3.701   1.598   0.028  0.00  0.00    +0.310 C 
BRANCH  19  20
ATOM     20  C   LIG    1       -4.751   0.517   0.027  0.00  0.00    +0.080 A 
ATOM     21  N   LIG    1       -5.244  -0.009   1.085  0.00  0.00    -0.450 NA
ATOM     22  C   LIG    1       -6.180  -0.965   0.934  0.00  0.00    +0.080 A 
ATOM     23  C   LIG    1       -6.883  -1.698   1.911  0.00  0.00    +0.080 A 
ATOM     24  C   LIG    1       -7.798  -2.638   1.542  0.00  0.00    +0.030 A 
ATOM     25  C   LIG    1       -8.056  -2.890   0.203  0.00  0.00    +0.040 A 
ATOM     26  C   LIG    1       -7.385  -2.188  -0.773  0.00  0.00    +0.060 A 
ATOM     27  C   LIG    1       -6.446  -1.224  -0.415  0.00  0.00    -0.180 A 
ATOM     28  S   LIG    1       -5.427  -0.164  -1.384  0.00  0.00    +0.130 S 
ENDBRANCH  19  20
ENDBRANCH  18  19
ENDBRANCH  17  18
ENDBRANCH   3  17
TORSDOF 8
