REMARK  Name = ZINCpe000000XyuQ.0
REMARK                            x       y       z     vdW  Elec       q    Type
REMARK                         _______ _______ _______ _____ _____    ______ ____
ROOT
ATOM      1  C   LIG    1       -3.854  -3.138  -1.500  0.00  0.00    +0.150 C 
ATOM      2  C   LIG    1       -4.464  -2.485  -2.714  0.00  0.00    +0.190 A 
ATOM      3  C   LIG    1       -4.599  -1.129  -2.762  0.00  0.00    -0.230 A 
ATOM      4  C   LIG    1       -5.177  -0.543  -3.906  0.00  0.00    +0.540 A 
ATOM      5  N   LIG    1       -5.567  -1.347  -4.919  0.00  0.00    -0.630 N 
ATOM      6  H   LIG    1       -5.964  -0.966  -5.718  0.00  0.00    +0.420 HD
ATOM      7  C   LIG    1       -5.406  -2.695  -4.812  0.00  0.00    +0.440 A 
ATOM      8  O   LIG    1       -5.319   0.666  -3.982  0.00  0.00    -0.530 OA
ATOM      9  N   LIG    1       -4.870  -3.234  -3.738  0.00  0.00    -0.510 NA
ENDROOT
BRANCH   7  10
ATOM     10  C   LIG    1       -5.841  -3.569  -5.923  0.00  0.00    -0.030 A 
ATOM     11  C   LIG    1       -6.421  -3.031  -7.077  0.00  0.00    -0.010 A 
ATOM     12  C   LIG    1       -6.808  -3.883  -8.092  0.00  0.00    +0.280 A 
ATOM     13  N   LIG    1       -6.648  -5.187  -7.979  0.00  0.00    -0.470 NA
ATOM     14  C   LIG    1       -6.112  -5.736  -6.907  0.00  0.00    +0.270 A 
ATOM     15  C   LIG    1       -5.691  -4.958  -5.847  0.00  0.00    +0.050 A 
ENDBRANCH   7  10
BRANCH   3  16
ATOM     16  C   LIG    1       -4.143  -0.272  -1.609  0.00  0.00    +0.140 C 
BRANCH  16  17
ATOM     17  C   LIG    1       -2.744   0.222  -1.873  0.00  0.00    +0.520 C 
ATOM     18  N   LIG    1       -2.127   1.011  -0.971  0.00  0.00    -0.610 N 
ATOM     19  C   LIG    1       -2.758   1.317   0.321  0.00  0.00    +0.280 C 
ATOM     20  C   LIG    1       -1.751   1.018   1.438  0.00  0.00    +0.170 C 
ATOM     21  N   LIG    1       -0.500   1.740   1.171  0.00  0.00    -0.540 NA
ATOM     22  C   LIG    1        0.125   1.280  -0.076  0.00  0.00    +0.170 C 
ATOM     23  C   LIG    1        0.430   1.618   2.302  0.00  0.00    +0.190 C 
ATOM     24  C   LIG    1       -0.805   1.590  -1.254  0.00  0.00    +0.230 C 
ATOM     25  C   LIG    1       -0.236   0.972  -2.534  0.00  0.00    +0.050 C 
ATOM     26  O   LIG    1       -2.173  -0.091  -2.896  0.00  0.00    -0.520 OA
ENDBRANCH  16  17
ENDBRANCH   3  16
TORSDOF 3
