REMARK  Name = ZINCvU0000000E7h.0
REMARK                            x       y       z     vdW  Elec       q    Type
REMARK                         _______ _______ _______ _____ _____    ______ ____
ROOT
ATOM      1  C   LIG    1        4.508   0.810  -0.036  0.00  0.00    +0.020 A 
ATOM      2  C   LIG    1        3.802  -0.352  -0.035  0.00  0.00    -0.070 A 
ATOM      3  C   LIG    1        2.391   0.031  -0.020  0.00  0.00    -0.130 A 
ATOM      4  C   LIG    1        1.189  -0.680  -0.013  0.00  0.00    +0.080 A 
ATOM      5  C   LIG    1        0.002  -0.004   0.002  0.00  0.00    +0.010 A 
ATOM      6  C   LIG    1       -0.017   1.384   0.010  0.00  0.00    +0.070 A 
ATOM      7  C   LIG    1        1.158   2.104   0.002  0.00  0.00    +0.030 A 
ATOM      8  C   LIG    1        2.378   1.439  -0.013  0.00  0.00    +0.080 A 
ATOM      9  O   LIG    1        3.658   1.858  -0.023  0.00  0.00    -0.160 OA
ENDROOT
BRANCH   1  10
ATOM     10  C   LIG    1        5.972   0.909  -0.049  0.00  0.00    +0.550 C 
ATOM     11  O   LIG    1        6.650  -0.101  -0.059  0.00  0.00    -0.470 OA
BRANCH  10  12
ATOM     12  O   LIG    1        6.566   2.119  -0.048  0.00  0.00    -0.320 OA
BRANCH  12  13
ATOM     13  C   LIG    1        8.018   2.142  -0.061  0.00  0.00    +0.270 C 
BRANCH  13  15
ATOM     14  O   LIG    1        7.697   4.480  -0.047  0.00  0.00    -0.510 OA
ATOM     15  C   LIG    1        8.499   3.570  -0.059  0.00  0.00    +0.520 C 
ATOM     16  N   LIG    1        9.820   3.836  -0.069  0.00  0.00    -0.730 N 
ATOM     17  H   LIG    1       10.461   3.109  -0.078  0.00  0.00    +0.400 HD
BRANCH  16  18
ATOM     18  C   LIG    1       10.287   5.225  -0.067  0.00  0.00    +0.240 C 
ATOM     19  C   LIG    1       10.244   5.769  -1.509  0.00  0.00    +0.020 C 
ATOM     20  C   LIG    1       10.220   7.272  -1.453  0.00  0.00    +0.000 C 
ATOM     21  C   LIG    1       11.627   7.889  -1.567  0.00  0.00    +0.000 C 
ATOM     22  C   LIG    1       12.683   7.124  -0.747  0.00  0.00    +0.000 C 
ATOM     23  C   LIG    1       12.172   6.710   0.606  0.00  0.00    +0.030 C 
ATOM     24  C   LIG    1       11.625   5.271   0.504  0.00  0.00    +0.010 C 
ENDBRANCH  16  18
ENDBRANCH  13  15
ENDBRANCH  12  13
ENDBRANCH  10  12
ENDBRANCH   1  10
BRANCH   2  25
ATOM     25  C   LIG    1        4.361  -1.751  -0.047  0.00  0.00    +0.300 C 
BRANCH  25  26
ATOM     26  O   LIG    1        4.525  -2.188  -1.398  0.00  0.00    -0.300 OA
BRANCH  26  27
ATOM     27  C   LIG    1        5.023  -3.438  -1.586  0.00  0.00    +0.130 A 
ATOM     28  C   LIG    1        5.353  -4.227  -0.493  0.00  0.00    -0.080 A 
ATOM     29  C   LIG    1        5.854  -5.499  -0.688  0.00  0.00    +0.050 A 
ATOM     30  C   LIG    1        6.037  -5.983  -1.970  0.00  0.00    -0.040 A 
ATOM     31  C   LIG    1        5.714  -5.197  -3.061  0.00  0.00    +0.050 A 
ATOM     32  C   LIG    1        5.208  -3.926  -2.872  0.00  0.00    -0.020 A 
ENDBRANCH  26  27
ENDBRANCH  25  26
ENDBRANCH   2  25
TORSDOF 8
