REMARK  Name = ZINCrD0000072Hsb.0
REMARK                            x       y       z     vdW  Elec       q    Type
REMARK                         _______ _______ _______ _____ _____    ______ ____
ROOT
ATOM      1  C   LIG    1       -3.693  -1.980  -0.980  0.00  0.00    +0.010 C 
ATOM      2  C   LIG    1       -2.462  -2.838  -0.681  0.00  0.00    +0.030 C 
ATOM      3  C   LIG    1       -1.208  -1.962  -0.709  0.00  0.00    +0.020 C 
ATOM      4  C   LIG    1       -1.319  -0.883   0.373  0.00  0.00    +0.260 C 
ATOM      5  N   LIG    1       -2.575  -0.145   0.177  0.00  0.00    -0.600 N 
ATOM      6  C   LIG    1       -2.574   1.198   0.073  0.00  0.00    +0.590 C 
ATOM      7  O   LIG    1       -3.626   1.805   0.012  0.00  0.00    -0.530 OA
ATOM      8  C   LIG    1       -3.834  -0.900   0.104  0.00  0.00    +0.280 C 
ENDROOT
BRANCH   6   9
ATOM      9  C   LIG    1       -1.297   1.932   0.034  0.00  0.00    -0.230 A 
ATOM     10  C   LIG    1       -0.603   2.065  -1.155  0.00  0.00    +0.050 A 
ATOM     11  C   LIG    1        0.624   2.771  -1.160  0.00  0.00    -0.130 A 
ATOM     12  C   LIG    1        1.353   2.915  -2.350  0.00  0.00    +0.090 A 
ATOM     13  C   LIG    1        2.535   3.597  -2.345  0.00  0.00    -0.020 A 
ATOM     14  C   LIG    1        3.026   4.151  -1.170  0.00  0.00    +0.090 A 
ATOM     15  C   LIG    1        2.329   4.022   0.012  0.00  0.00    -0.030 A 
ATOM     16  C   LIG    1        1.120   3.331   0.034  0.00  0.00    +0.200 A 
ATOM     17  N   LIG    1        0.420   3.200   1.214  0.00  0.00    -0.630 N 
ATOM     18  H   LIG    1        0.775   3.591   2.027  0.00  0.00    +0.420 HD
ATOM     19  C   LIG    1       -1.142   1.461  -2.426  0.00  0.00    +0.130 C 
ATOM     20  C   LIG    1       -0.750   2.535   1.254  0.00  0.00    +0.550 A 
ATOM     21  O   LIG    1       -1.353   2.429   2.307  0.00  0.00    -0.520 OA
ENDBRANCH   6   9
BRANCH   1  22
ATOM     22  C   LIG    1       -4.943  -2.863  -0.985  0.00  0.00    -0.050 C 
ATOM     23  C   LIG    1       -4.800  -3.942  -2.061  0.00  0.00    +0.070 C 
ATOM     24  C   LIG    1       -6.173  -2.004  -1.285  0.00  0.00    +0.070 C 
BRANCH  22  25
ATOM     25  C   LIG    1       -5.102  -3.515   0.363  0.00  0.00    +0.470 C 
ATOM     26  O   LIG    1       -4.298  -3.297   1.239  0.00  0.00    -0.500 OA
BRANCH  25  28
ATOM     27  C   LIG    1       -6.226  -4.933   1.915  0.00  0.00    +0.250 C 
ATOM     28  O   LIG    1       -6.136  -4.340   0.592  0.00  0.00    -0.350 OA
ENDBRANCH  25  28
ENDBRANCH  22  25
ENDBRANCH   1  22
TORSDOF 4
