REMARK  Name = ZINCpk00000KfLgR.0
REMARK                            x       y       z     vdW  Elec       q    Type
REMARK                         _______ _______ _______ _____ _____    ______ ____
ROOT
ATOM      1  C   LIG    1       -0.785   7.869  -1.611  0.00  0.00    +0.370 A 
ATOM      2  N   LIG    1       -0.126   8.789  -2.304  0.00  0.00    -0.580 NA
ATOM      3  C   LIG    1        1.175   8.937  -2.157  0.00  0.00    +0.540 A 
ATOM      4  N   LIG    1        1.869   8.185  -1.328  0.00  0.00    -0.540 NA
ATOM      5  C   LIG    1        1.280   7.242  -0.602  0.00  0.00    +0.210 A 
ATOM      6  C   LIG    1        2.114   6.400   0.326  0.00  0.00    +0.140 C 
ATOM      7  C   LIG    1        1.211   5.694   1.339  0.00  0.00    +0.210 C 
ATOM      8  N   LIG    1        0.122   5.023   0.611  0.00  0.00    -0.540 NA
ATOM      9  C   LIG    1       -0.816   6.014   0.071  0.00  0.00    +0.280 C 
ATOM     10  C   LIG    1       -0.078   7.056  -0.722  0.00  0.00    -0.200 A 
ENDROOT
BRANCH   1  11
ATOM     11  O   LIG    1       -2.123   7.720  -1.763  0.00  0.00    -0.300 OA
BRANCH  11  13
ATOM     12  C   LIG    1       -4.268   8.276  -2.728  0.00  0.00    +0.060 C 
ATOM     13  C   LIG    1       -2.772   8.591  -2.692  0.00  0.00    +0.200 C 
ENDBRANCH  11  13
ENDBRANCH   1  11
BRANCH   8  14
ATOM     14  C   LIG    1       -0.571   4.057   1.473  0.00  0.00    +0.330 C 
BRANCH  14  15
ATOM     15  C   LIG    1       -1.522   3.235   0.642  0.00  0.00    +0.260 A 
ATOM     16  N   LIG    1       -2.774   3.516   0.392  0.00  0.00    -0.320 NA
ATOM     17  N   LIG    1       -3.303   2.608  -0.348  0.00  0.00    -0.030 NA
ATOM     18  N   LIG    1       -2.434   1.696  -0.623  0.00  0.00    -0.070 NA
ATOM     19  N   LIG    1       -1.240   2.070   0.019  0.00  0.00    -0.320 N 
BRANCH  19  20
ATOM     20  C   LIG    1       -0.017   1.384   0.010  0.00  0.00    +0.120 A 
ATOM     21  C   LIG    1        1.177   2.092   0.002  0.00  0.00    +0.040 A 
ATOM     22  C   LIG    1        2.381   1.413  -0.013  0.00  0.00    +0.040 A 
ATOM     23  C   LIG    1        2.396   0.031  -0.021  0.00  0.00    +0.030 A 
ATOM     24  C   LIG    1        1.208  -0.677  -0.013  0.00  0.00    +0.040 A 
ATOM     25  C   LIG    1        0.002  -0.004   0.002  0.00  0.00    +0.040 A 
ENDBRANCH  19  20
ENDBRANCH  14  15
ENDBRANCH   8  14
TORSDOF 5
