REMARK  Name = ZINCrH000004pYMn.0
REMARK                            x       y       z     vdW  Elec       q    Type
REMARK                         _______ _______ _______ _____ _____    ______ ____
ROOT
ATOM      1  N   LIG    1       -1.194   2.126   0.019  0.00  0.00    -0.720 N 
ATOM      2  H   LIG    1       -2.027   1.629   0.021  0.00  0.00    +0.400 HD
ATOM      3  C   LIG    1       -0.018   1.468   0.010  0.00  0.00    +0.590 C 
ATOM      4  O   LIG    1        1.027   2.090   0.004  0.00  0.00    -0.510 OA
ENDROOT
BRANCH   3   5
ATOM      5  C   LIG    1        0.002  -0.004   0.002  0.00  0.00    -0.040 A 
ATOM      6  C   LIG    1        1.120  -0.816  -0.013  0.00  0.00    +0.040 A 
ATOM      7  C   LIG    1        0.623  -2.132  -0.015  0.00  0.00    +0.060 A 
ATOM      8  N   LIG    1       -0.692  -2.061  -0.002  0.00  0.00    -0.250 NA
ATOM      9  N   LIG    1       -1.081  -0.837   0.014  0.00  0.00    -0.370 N 
ATOM     10  H   LIG    1       -2.007  -0.547   0.030  0.00  0.00    +0.450 HD
BRANCH   7  11
ATOM     11  C   LIG    1        1.433  -3.376  -0.029  0.00  0.00    +0.010 A 
ATOM     12  C   LIG    1        2.825  -3.303  -0.048  0.00  0.00    +0.050 A 
ATOM     13  C   LIG    1        3.574  -4.462  -0.055  0.00  0.00    +0.050 A 
ATOM     14  C   LIG    1        2.945  -5.695  -0.055  0.00  0.00    -0.090 A 
ATOM     15  C   LIG    1        1.563  -5.773  -0.043  0.00  0.00    +0.050 A 
ATOM     16 BR   LIG    1        3.977  -7.279  -0.074  0.00  0.00    -0.050 Br
ATOM     17  C   LIG    1        0.805  -4.619  -0.030  0.00  0.00    +0.050 A 
ENDBRANCH   7  11
ENDBRANCH   3   5
BRANCH   1  18
ATOM     18  C   LIG    1       -1.214   3.591   0.027  0.00  0.00    +0.260 C 
BRANCH  18  20
ATOM     19  C   LIG    1       -3.372   3.554   1.287  0.00  0.00    +0.070 C 
ATOM     20  C   LIG    1       -2.663   4.081   0.037  0.00  0.00    +0.170 C 
BRANCH  20  21
ATOM     21  C   LIG    1       -2.684   5.588   0.045  0.00  0.00    -0.160 A 
ATOM     22  C   LIG    1       -3.296   6.276  -0.985  0.00  0.00    +0.100 A 
ATOM     23  C   LIG    1       -3.317   7.658  -0.978  0.00  0.00    -0.010 A 
ATOM     24  C   LIG    1       -2.723   8.354   0.061  0.00  0.00    +0.140 A 
ATOM     25  C   LIG    1       -2.108   7.666   1.093  0.00  0.00    -0.040 A 
ATOM     26  F   LIG    1       -2.742   9.705   0.067  0.00  0.00    -0.130 F 
ATOM     27  C   LIG    1       -2.093   6.282   1.088  0.00  0.00    +0.140 A 
ATOM     28  F   LIG    1       -1.499   5.609   2.097  0.00  0.00    -0.120 F 
ENDBRANCH  20  21
BRANCH  20  29
ATOM     29  O   LIG    1       -3.336   3.602  -1.129  0.00  0.00    -0.540 OA
ATOM     30  H   LIG    1       -2.940   3.897  -1.961  0.00  0.00    +0.380 HD
ENDBRANCH  20  29
ENDBRANCH  18  20
ENDBRANCH   1  18
TORSDOF 6
