REMARK  Name = ZINCpk000000oYfl.0
REMARK                            x       y       z     vdW  Elec       q    Type
REMARK                         _______ _______ _______ _____ _____    ______ ____
ROOT
ATOM      1  C   LIG    1       -7.966   7.431   5.648  0.00  0.00    +0.650 C 
ATOM      2  N   LIG    1       -6.934   6.569   5.740  0.00  0.00    -0.600 N 
ATOM      3  C   LIG    1       -6.363   6.225   7.050  0.00  0.00    +0.300 C 
ATOM      4  C   LIG    1       -4.857   6.518   7.020  0.00  0.00    +0.290 C 
ATOM      5  N   LIG    1       -4.284   5.905   5.813  0.00  0.00    -0.610 N 
ATOM      6  C   LIG    1       -4.852   6.253   4.503  0.00  0.00    +0.270 C 
ATOM      7  C   LIG    1       -3.252   5.043   5.906  0.00  0.00    +0.570 C 
ATOM      8  O   LIG    1       -2.857   4.683   6.998  0.00  0.00    -0.530 OA
ATOM      9  C   LIG    1       -6.361   5.956   4.534  0.00  0.00    +0.290 C 
ATOM     10  O   LIG    1       -8.433   7.931   6.652  0.00  0.00    -0.570 OA
ENDROOT
BRANCH   7  11
ATOM     11  C   LIG    1       -2.602   4.536   4.683  0.00  0.00    -0.160 A 
ATOM     12  C   LIG    1       -2.260   3.185   4.580  0.00  0.00    +0.090 A 
ATOM     13  C   LIG    1       -1.653   2.715   3.438  0.00  0.00    -0.010 A 
ATOM     14  C   LIG    1       -1.380   3.584   2.385  0.00  0.00    +0.140 A 
ATOM     15  C   LIG    1       -1.715   4.932   2.486  0.00  0.00    -0.050 A 
ATOM     16  C   LIG    1       -2.326   5.406   3.624  0.00  0.00    +0.070 A 
BRANCH  14  17
ATOM     17  N   LIG    1       -0.768   3.106   1.232  0.00  0.00    -0.490 N 
ATOM     18  C   LIG    1       -1.539   2.001   0.644  0.00  0.00    +0.180 C 
ATOM     19  C   LIG    1       -0.801   1.468  -0.586  0.00  0.00    +0.230 C 
ATOM     20  O   LIG    1       -0.594   2.537  -1.513  0.00  0.00    -0.380 OA
ATOM     21  C   LIG    1        0.156   3.630  -0.974  0.00  0.00    +0.230 C 
ATOM     22  C   LIG    1       -0.574   4.186   0.252  0.00  0.00    +0.170 C 
ENDBRANCH  14  17
ENDBRANCH   7  11
BRANCH   1  23
ATOM     23  O   LIG    1       -8.481   7.737   4.442  0.00  0.00    -0.370 OA
BRANCH  23  25
ATOM     24  C   LIG    1      -10.038   8.896   2.971  0.00  0.00    +0.070 C 
ATOM     25  C   LIG    1       -9.591   8.672   4.418  0.00  0.00    +0.220 C 
ENDBRANCH  23  25
ENDBRANCH   1  23
TORSDOF 4
