REMARK  Name = ZINCpe000000Vpyk.0
REMARK                            x       y       z     vdW  Elec       q    Type
REMARK                         _______ _______ _______ _____ _____    ______ ____
ROOT
ATOM      1  N   LIG    1        4.128  -1.589  -0.725  0.00  0.00    -0.630 NA
ATOM      2  H   LIG    1        5.059  -1.724  -1.091  0.00  0.00    +0.360 HD
ENDROOT
BRANCH   1   3
ATOM      3  C   LIG    1        4.064  -0.392   0.125  0.00  0.00    +0.160 C 
ATOM      4  C   LIG    1        5.069   0.645  -0.381  0.00  0.00    +0.030 C 
ATOM      5  C   LIG    1        4.798   1.973   0.335  0.00  0.00    +0.030 C 
ATOM      6  C   LIG    1        3.444   2.512  -0.130  0.00  0.00    +0.260 C 
ATOM      7  N   LIG    1        2.418   1.483  -0.013  0.00  0.00    -0.520 N 
ATOM      8  C   LIG    1        2.676   0.178   0.086  0.00  0.00    +0.520 C 
ATOM      9  O   LIG    1        1.738  -0.589   0.141  0.00  0.00    -0.510 OA
BRANCH   7  10
ATOM     10  C   LIG    1        1.072   1.893   0.002  0.00  0.00    -0.000 A 
ATOM     11  C   LIG    1        0.626   3.175   0.029  0.00  0.00    +0.190 A 
ATOM     12  N   LIG    1       -0.731   3.137   0.042  0.00  0.00    -0.380 N 
ATOM     13  N   LIG    1       -1.125   1.793   0.012  0.00  0.00    -0.290 NA
ATOM     14  C   LIG    1       -1.626   4.297   0.077  0.00  0.00    +0.360 C 
ATOM     15  C   LIG    1       -0.049   1.049  -0.009  0.00  0.00    +0.270 A 
ENDBRANCH   7  10
ENDBRANCH   1   3
BRANCH   1  16
ATOM     16  C   LIG    1        3.672  -2.779   0.006  0.00  0.00    +0.230 C 
BRANCH  16  17
ATOM     17  C   LIG    1        4.821  -3.355   0.793  0.00  0.00    +0.430 C 
ATOM     18  O   LIG    1        5.908  -2.829   0.749  0.00  0.00    -0.510 OA
BRANCH  17  20
ATOM     19  C   LIG    1        5.788  -4.953   2.273  0.00  0.00    +0.250 C 
ATOM     20  O   LIG    1        4.637  -4.453   1.543  0.00  0.00    -0.350 OA
ENDBRANCH  17  20
ENDBRANCH  16  17
BRANCH  16  21
ATOM     21  C   LIG    1        3.160  -3.823  -0.987  0.00  0.00    +0.130 C 
BRANCH  21  22
ATOM     22  C   LIG    1        1.935  -3.292  -1.687  0.00  0.00    -0.160 A 
ATOM     23  C   LIG    1        1.909  -2.584  -2.830  0.00  0.00    +0.170 A 
ATOM     24  O   LIG    1        0.630  -2.299  -3.124  0.00  0.00    -0.180 OA
ATOM     25  C   LIG    1       -0.172  -2.818  -2.180  0.00  0.00    +0.150 A 
ATOM     26  C   LIG    1        0.593  -3.449  -1.271  0.00  0.00    -0.060 A 
ENDBRANCH  21  22
ENDBRANCH  16  21
ENDBRANCH   1  16
TORSDOF 7
