REMARK  Name = ZINCqH0000051Ljd.0
REMARK                            x       y       z     vdW  Elec       q    Type
REMARK                         _______ _______ _______ _____ _____    ______ ____
ROOT
ATOM      1  C   LIG    1       -0.333   7.821  -2.778  0.00  0.00    +0.180 C 
ATOM      2  C   LIG    1        0.934   7.434  -3.545  0.00  0.00    +0.040 C 
ATOM      3  C   LIG    1        1.111   5.914  -3.485  0.00  0.00    +0.040 C 
ATOM      4  C   LIG    1        1.160   5.469  -2.022  0.00  0.00    +0.230 C 
ATOM      5  N   LIG    1       -0.090   5.845  -1.350  0.00  0.00    -0.380 N 
ATOM      6  H   LIG    1       -0.870   5.436  -1.843  0.00  0.00    +0.420 HD
ATOM      7  C   LIG    1       -0.231   7.306  -1.341  0.00  0.00    +0.240 C 
ENDROOT
BRANCH   1  12
ATOM      8  C   LIG    1       -2.978  11.343  -3.964  0.00  0.00    +0.110 A 
ATOM      9  N   LIG    1       -3.477  10.200  -4.293  0.00  0.00    -0.280 NA
ATOM     10  N   LIG    1       -2.582   9.199  -3.887  0.00  0.00    -0.540 NA
ATOM     11  C   LIG    1       -1.529   9.841  -3.289  0.00  0.00    +0.440 A 
ATOM     12  N   LIG    1       -0.471   9.280  -2.766  0.00  0.00    -0.690 NA
ATOM     13  O   LIG    1       -1.791  11.162  -3.350  0.00  0.00    -0.290 OA
BRANCH   8  14
ATOM     14  C   LIG    1       -3.623  12.679  -4.226  0.00  0.00    +0.210 C 
BRANCH  14  18
ATOM     15  C   LIG    1       -7.354  12.091  -6.221  0.00  0.00    +0.000 A 
ATOM     16  C   LIG    1       -7.307  12.125  -4.840  0.00  0.00    +0.000 A 
ATOM     17  C   LIG    1       -6.099  12.316  -4.195  0.00  0.00    +0.020 A 
ATOM     18  C   LIG    1       -4.939  12.472  -4.930  0.00  0.00    -0.060 A 
ATOM     19  C   LIG    1       -4.988  12.443  -6.311  0.00  0.00    +0.020 A 
ATOM     20  C   LIG    1       -6.194  12.248  -6.957  0.00  0.00    +0.000 A 
ENDBRANCH  14  18
ENDBRANCH   8  14
ENDBRANCH   1  12
BRANCH   5  21
ATOM     21  C   LIG    1       -0.070   5.347   0.032  0.00  0.00    +0.300 C 
BRANCH  21  22
ATOM     22  C   LIG    1       -0.050   3.840   0.023  0.00  0.00    -0.150 A 
ATOM     23  C   LIG    1        1.156   3.165   0.008  0.00  0.00    +0.030 A 
ATOM     24  C   LIG    1        1.175   1.783   0.000  0.00  0.00    +0.010 A 
ATOM     25  C   LIG    1       -0.013   1.076   0.008  0.00  0.00    +0.040 A 
ATOM     26  C   LIG    1       -1.219   1.751   0.017  0.00  0.00    +0.020 A 
ATOM     27  C   LIG    1       -1.238   3.133   0.030  0.00  0.00    +0.040 A 
ENDBRANCH  21  22
ENDBRANCH   5  21
TORSDOF 5
