REMARK  Name = ZINCqH0000051Ljd.1
REMARK                            x       y       z     vdW  Elec       q    Type
REMARK                         _______ _______ _______ _____ _____    ______ ____
ROOT
ATOM      1  C   LIG    1       -0.839   3.122  -1.173  0.00  0.00    +0.200 C 
ATOM      2  C   LIG    1       -0.755   1.594  -1.231  0.00  0.00    +0.020 C 
ATOM      3  C   LIG    1       -0.013   1.086   0.008  0.00  0.00    +0.060 C 
ATOM      4  C   LIG    1       -0.731   1.580   1.266  0.00  0.00    +0.230 C 
ATOM      5  N   LIG    1       -0.755   3.048   1.274  0.00  0.00    -0.370 N 
ATOM      6  H   LIG    1        0.189   3.399   1.219  0.00  0.00    +0.430 HD
ATOM      7  C   LIG    1       -1.527   3.541   0.127  0.00  0.00    +0.230 C 
ENDROOT
BRANCH   1  12
ATOM      8  C   LIG    1        2.009   5.848  -3.468  0.00  0.00    +0.110 A 
ATOM      9  N   LIG    1        0.841   5.762  -4.011  0.00  0.00    -0.280 NA
ATOM     10  N   LIG    1        0.057   4.904  -3.224  0.00  0.00    -0.530 NA
ATOM     11  C   LIG    1        0.852   4.496  -2.185  0.00  0.00    +0.450 A 
ATOM     12  N   LIG    1        0.512   3.688  -1.216  0.00  0.00    -0.720 NA
ATOM     13  O   LIG    1        2.049   5.094  -2.351  0.00  0.00    -0.290 OA
BRANCH   8  14
ATOM     14  C   LIG    1        3.153   6.672  -4.000  0.00  0.00    +0.210 C 
BRANCH  14  18
ATOM     15  C   LIG    1        1.930   8.671  -7.571  0.00  0.00    +0.000 A 
ATOM     16  C   LIG    1        1.756   9.282  -6.343  0.00  0.00    +0.000 A 
ATOM     17  C   LIG    1        2.152   8.635  -5.187  0.00  0.00    +0.020 A 
ATOM     18  C   LIG    1        2.721   7.377  -5.260  0.00  0.00    -0.060 A 
ATOM     19  C   LIG    1        2.900   6.769  -6.488  0.00  0.00    +0.020 A 
ATOM     20  C   LIG    1        2.499   7.414  -7.643  0.00  0.00    +0.000 A 
ENDBRANCH  14  18
ENDBRANCH   8  14
ENDBRANCH   1  12
BRANCH   5  21
ATOM     21  C   LIG    1       -1.378   3.517   2.520  0.00  0.00    +0.300 C 
BRANCH  21  22
ATOM     22  C   LIG    1       -0.520   3.116   3.692  0.00  0.00    -0.150 A 
ATOM     23  C   LIG    1       -0.732   1.903   4.321  0.00  0.00    +0.030 A 
ATOM     24  C   LIG    1        0.058   1.533   5.393  0.00  0.00    +0.010 A 
ATOM     25  C   LIG    1        1.053   2.380   5.843  0.00  0.00    +0.040 A 
ATOM     26  C   LIG    1        1.262   3.595   5.218  0.00  0.00    +0.020 A 
ATOM     27  C   LIG    1        0.475   3.963   4.142  0.00  0.00    +0.040 A 
ENDBRANCH  21  22
ENDBRANCH   5  21
TORSDOF 5
