REMARK  Name = ZINCpe000000XN5w.0
REMARK                            x       y       z     vdW  Elec       q    Type
REMARK                         _______ _______ _______ _____ _____    ______ ____
ROOT
ATOM      1  C   LIG    1       -0.451  -2.353   2.909  0.00  0.00    -0.050 A 
ATOM      2  C   LIG    1       -0.374  -3.657   3.304  0.00  0.00    +0.130 A 
ATOM      3  C   LIG    1       -0.529  -3.675   4.702  0.00  0.00    -0.270 A 
ATOM      4  C   LIG    1       -0.699  -2.352   5.121  0.00  0.00    +0.330 A 
ATOM      5  N   LIG    1       -0.873  -2.100   6.461  0.00  0.00    -0.520 N 
ATOM      6  C   LIG    1       -0.880  -3.100   7.357  0.00  0.00    +0.720 A 
ATOM      7  N   LIG    1       -0.720  -4.387   7.007  0.00  0.00    -0.560 N 
ATOM      8  C   LIG    1       -0.739  -5.426   8.040  0.00  0.00    +0.340 C 
ATOM      9  O   LIG    1       -1.037  -2.831   8.532  0.00  0.00    -0.530 OA
ATOM     10  C   LIG    1       -1.054  -0.720   6.919  0.00  0.00    +0.340 C 
ATOM     11  C   LIG    1       -0.543  -4.736   5.714  0.00  0.00    +0.590 A 
ATOM     12  O   LIG    1       -0.399  -5.902   5.397  0.00  0.00    -0.500 OA
ATOM     13  N   LIG    1       -0.645  -1.563   4.030  0.00  0.00    -0.400 N 
ATOM     14  C   LIG    1       -0.773  -0.104   4.029  0.00  0.00    +0.340 C 
ENDROOT
BRANCH   1  17
ATOM     15  N   LIG    1       -0.248  -2.749   0.513  0.00  0.00    -0.710 N 
ATOM     16  H   LIG    1       -0.180  -3.699   0.697  0.00  0.00    +0.410 HD
ATOM     17  C   LIG    1       -0.342  -1.870   1.530  0.00  0.00    +0.600 C 
ATOM     18  O   LIG    1       -0.336  -0.674   1.303  0.00  0.00    -0.540 OA
BRANCH  15  19
ATOM     19  C   LIG    1       -0.250  -2.271  -0.872  0.00  0.00    +0.330 C 
BRANCH  19  24
ATOM     20  C   LIG    1        0.189  -6.773  -4.468  0.00  0.00    +0.090 C 
ATOM     21  C   LIG    1        0.074  -5.599  -3.530  0.00  0.00    -0.070 A 
ATOM     22  C   LIG    1       -1.171  -5.152  -3.130  0.00  0.00    +0.000 A 
ATOM     23  C   LIG    1       -1.276  -4.075  -2.270  0.00  0.00    +0.030 A 
ATOM     24  C   LIG    1       -0.135  -3.445  -1.810  0.00  0.00    -0.120 A 
ATOM     25  C   LIG    1        1.110  -3.888  -2.213  0.00  0.00    +0.040 A 
ATOM     26  C   LIG    1        1.215  -4.969  -3.069  0.00  0.00    +0.000 A 
ENDBRANCH  19  24
ENDBRANCH  15  19
ENDBRANCH   1  17
TORSDOF 3
