REMARK  Name = ZINCvU00000006Wt.0
REMARK                            x       y       z     vdW  Elec       q    Type
REMARK                         _______ _______ _______ _____ _____    ______ ____
ROOT
ATOM      1  C   LIG    1        3.588   6.116  -2.059  0.00  0.00    +0.130 C 
ATOM      2  C   LIG    1        4.086   6.973  -3.225  0.00  0.00    +0.030 C 
ATOM      3  C   LIG    1        2.886   7.460  -4.042  0.00  0.00    -0.010 C 
ATOM      4  C   LIG    1        1.940   8.244  -3.128  0.00  0.00    +0.030 C 
ATOM      5  C   LIG    1        1.506   7.351  -1.964  0.00  0.00    +0.150 C 
ATOM      6  N   LIG    1        2.689   6.911  -1.214  0.00  0.00    -0.450 NA
ENDROOT
BRANCH   1  12
ATOM      7  C   LIG    1        5.325   8.039  -0.706  0.00  0.00    +0.650 C 
ATOM      8  N   LIG    1        5.697   6.768  -0.957  0.00  0.00    -0.600 N 
ATOM      9  C   LIG    1        7.081   6.274  -1.006  0.00  0.00    +0.250 C 
ATOM     10  C   LIG    1        7.018   4.771  -1.351  0.00  0.00    +0.030 C 
ATOM     11  C   LIG    1        5.632   4.628  -2.033  0.00  0.00    +0.040 C 
ATOM     12  C   LIG    1        4.783   5.643  -1.228  0.00  0.00    +0.260 C 
ATOM     13  O   LIG    1        4.154   8.354  -0.776  0.00  0.00    -0.500 OA
BRANCH   7  14
ATOM     14  O   LIG    1        6.252   8.959  -0.378  0.00  0.00    -0.370 OA
BRANCH  14  16
ATOM     15  C   LIG    1        4.789  10.288   1.045  0.00  0.00    +0.030 C 
ATOM     16  C   LIG    1        5.779  10.308  -0.121  0.00  0.00    +0.140 C 
ATOM     17  C   LIG    1        5.085  10.852  -1.371  0.00  0.00    +0.030 C 
ATOM     18  C   LIG    1        6.967  11.205   0.234  0.00  0.00    +0.060 C 
ENDBRANCH  14  16
ENDBRANCH   7  14
ENDBRANCH   1  12
BRANCH   6  19
ATOM     19  C   LIG    1        2.301   6.165  -0.009  0.00  0.00    +0.370 C 
BRANCH  19  20
ATOM     20  C   LIG    1        1.734   4.827  -0.407  0.00  0.00    +0.150 A 
ATOM     21  N   LIG    1        2.415   3.735  -0.650  0.00  0.00    -0.470 NA
ATOM     22  C   LIG    1        1.494   2.796  -0.967  0.00  0.00    +0.200 A 
ATOM     23  N   LIG    1        0.321   3.370  -0.904  0.00  0.00    -0.350 NA
ATOM     24  O   LIG    1        0.442   4.532  -0.579  0.00  0.00    +0.080 OA
BRANCH  22  25
ATOM     25  C   LIG    1        1.766   1.382  -1.325  0.00  0.00    -0.010 A 
ATOM     26  C   LIG    1        3.075   0.908  -1.359  0.00  0.00    +0.070 A 
ATOM     27  C   LIG    1        3.322  -0.408  -1.693  0.00  0.00    +0.020 A 
ATOM     28  C   LIG    1        2.272  -1.257  -1.995  0.00  0.00    +0.050 A 
ATOM     29  C   LIG    1        0.970  -0.793  -1.964  0.00  0.00    +0.030 A 
ATOM     30  C   LIG    1        0.711   0.523  -1.631  0.00  0.00    -0.010 A 
ATOM     31 CL   LIG    1       -0.924   1.106  -1.599  0.00  0.00    -0.040 Cl
ENDBRANCH  22  25
ENDBRANCH  19  20
ENDBRANCH   6  19
TORSDOF 6
