REMARK  Name = ZINCvU0000000B0y.0
REMARK                            x       y       z     vdW  Elec       q    Type
REMARK                         _______ _______ _______ _____ _____    ______ ____
ROOT
ATOM      1  C   LIG    1        1.958  -4.162  -0.038  0.00  0.00    -0.270 A 
ATOM      2  C   LIG    1        2.348  -2.838  -0.041  0.00  0.00    +0.340 A 
ATOM      3  N   LIG    1        1.237  -2.081  -0.021  0.00  0.00    -0.300 N 
ATOM      4  N   LIG    1        0.108  -2.905  -0.014  0.00  0.00    -0.270 NA
ATOM      5  C   LIG    1        0.491  -4.161  -0.024  0.00  0.00    +0.190 A 
ENDROOT
BRANCH   5   6
ATOM      6  C   LIG    1       -0.391  -5.352  -0.021  0.00  0.00    -0.030 A 
ATOM      7  C   LIG    1       -0.023  -6.497  -0.726  0.00  0.00    +0.110 A 
ATOM      8  C   LIG    1       -0.845  -7.606  -0.715  0.00  0.00    +0.020 A 
ATOM      9  C   LIG    1       -2.039  -7.577  -0.015  0.00  0.00    -0.020 A 
ATOM     10  C   LIG    1       -2.412  -6.441   0.682  0.00  0.00    +0.020 A 
ATOM     11 CL   LIG    1       -3.073  -8.973  -0.012  0.00  0.00    -0.070 Cl
ATOM     12  C   LIG    1       -1.595  -5.330   0.682  0.00  0.00    +0.070 A 
ENDBRANCH   5   6
BRANCH   3  13
ATOM     13  C   LIG    1        1.215  -0.680  -0.013  0.00  0.00    +0.140 A 
ATOM     14  C   LIG    1        0.002  -0.004   0.002  0.00  0.00    +0.030 A 
ATOM     15  C   LIG    1       -0.017   1.377   0.010  0.00  0.00    +0.040 A 
ATOM     16  C   LIG    1        1.171   2.086   0.002  0.00  0.00    +0.010 A 
ATOM     17  C   LIG    1        2.380   1.415  -0.013  0.00  0.00    +0.050 A 
ATOM     18  C   LIG    1        2.405   0.035  -0.021  0.00  0.00    +0.000 A 
ENDBRANCH   3  13
BRANCH   1  19
ATOM     19  C   LIG    1        2.839  -5.340  -0.053  0.00  0.00    +0.550 C 
ATOM     20  O   LIG    1        2.360  -6.457  -0.054  0.00  0.00    -0.500 OA
BRANCH  19  21
ATOM     21  O   LIG    1        4.177  -5.181  -0.064  0.00  0.00    -0.340 OA
BRANCH  21  22
ATOM     22  C   LIG    1        4.984  -6.388  -0.079  0.00  0.00    +0.240 C 
BRANCH  22  24
ATOM     23  O   LIG    1        6.772  -4.848  -0.086  0.00  0.00    -0.420 OA
ATOM     24  C   LIG    1        6.444  -6.016  -0.090  0.00  0.00    +0.400 C 
BRANCH  24  25
ATOM     25  C   LIG    1        7.472  -7.068  -0.106  0.00  0.00    -0.160 A 
ATOM     26  C   LIG    1        7.097  -8.416  -0.104  0.00  0.00    +0.080 A 
ATOM     27  C   LIG    1        8.065  -9.397  -0.124  0.00  0.00    +0.020 A 
ATOM     28  C   LIG    1        9.407  -9.051  -0.134  0.00  0.00    -0.000 A 
ATOM     29  C   LIG    1        9.785  -7.718  -0.131  0.00  0.00    +0.020 A 
ATOM     30 CL   LIG    1       10.619 -10.293  -0.152  0.00  0.00    -0.050 Cl
ATOM     31  C   LIG    1        8.828  -6.726  -0.116  0.00  0.00    +0.110 A 
ENDBRANCH  24  25
ENDBRANCH  22  24
ENDBRANCH  21  22
ENDBRANCH  19  21
ENDBRANCH   1  19
TORSDOF 7
