REMARK  Name = ZINCrD0000075vrx.0
REMARK                            x       y       z     vdW  Elec       q    Type
REMARK                         _______ _______ _______ _____ _____    ______ ____
ROOT
ATOM      1  O   LIG    1        1.060  -0.596  -0.011  0.00  0.00    -0.510 OA
ATOM      2  C   LIG    1        0.002  -0.004   0.002  0.00  0.00    +0.520 C 
ATOM      3  N   LIG    1       -0.016   1.344   0.009  0.00  0.00    -0.620 N 
ATOM      4  C   LIG    1       -1.289   2.081   0.019  0.00  0.00    +0.280 C 
ATOM      5  C   LIG    1       -1.242   3.107   1.163  0.00  0.00    +0.190 C 
ATOM      6  N   LIG    1       -0.042   3.942   1.016  0.00  0.00    -0.490 N 
ATOM      7  C   LIG    1        1.183   3.140   1.140  0.00  0.00    +0.190 C 
ATOM      8  C   LIG    1        1.236   2.116   0.002  0.00  0.00    +0.300 C 
ENDROOT
BRANCH   6   9
ATOM      9  C   LIG    1       -0.048   4.993   1.938  0.00  0.00    +0.100 A 
ATOM     10  C   LIG    1        1.019   5.157   2.812  0.00  0.00    +0.000 A 
ATOM     11  C   LIG    1        1.013   6.200   3.718  0.00  0.00    +0.020 A 
ATOM     12  C   LIG    1       -0.059   7.075   3.762  0.00  0.00    +0.070 A 
ATOM     13  C   LIG    1       -1.126   6.910   2.895  0.00  0.00    +0.010 A 
ATOM     14  F   LIG    1       -0.064   8.091   4.653  0.00  0.00    -0.140 F 
ATOM     15  C   LIG    1       -1.122   5.872   1.984  0.00  0.00    +0.030 A 
ENDBRANCH   6   9
BRANCH   2  16
ATOM     16  C   LIG    1       -1.293  -0.775   0.010  0.00  0.00    +0.160 C 
BRANCH  16  17
ATOM     17  C   LIG    1       -0.997  -2.253  -0.001  0.00  0.00    +0.000 A 
ATOM     18  C   LIG    1       -1.441  -3.156   0.893  0.00  0.00    +0.160 A 
ATOM     19  O   LIG    1       -0.954  -4.357   0.522  0.00  0.00    -0.190 OA
ATOM     20  C   LIG    1       -0.213  -4.175  -0.584  0.00  0.00    +0.230 A 
ATOM     21  N   LIG    1       -0.241  -2.901  -0.899  0.00  0.00    -0.440 NA
BRANCH  20  22
ATOM     22  C   LIG    1        0.510  -5.231  -1.323  0.00  0.00    -0.020 A 
ATOM     23  C   LIG    1        1.242  -4.910  -2.467  0.00  0.00    +0.070 A 
ATOM     24  C   LIG    1        1.919  -5.900  -3.149  0.00  0.00    +0.010 A 
ATOM     25  C   LIG    1        1.864  -7.210  -2.708  0.00  0.00    +0.030 A 
ATOM     26  C   LIG    1        1.136  -7.536  -1.577  0.00  0.00    +0.010 A 
ATOM     27  C   LIG    1        0.459  -6.554  -0.883  0.00  0.00    +0.040 A 
ENDBRANCH  20  22
ENDBRANCH  16  17
ENDBRANCH   2  16
TORSDOF 4
