REMARK  Name = ZINCpe00000VVGN0.0
REMARK                            x       y       z     vdW  Elec       q    Type
REMARK                         _______ _______ _______ _____ _____    ______ ____
ROOT
ATOM      1  C   LIG    1       -0.686  -2.218   0.608  0.00  0.00    +0.170 C 
ATOM      2  C   LIG    1        0.742  -2.316   0.009  0.00  0.00    +0.080 C 
ATOM      3  C   LIG    1        1.208  -0.845  -0.020  0.00  0.00    +0.250 C 
ATOM      4  N   LIG    1        0.002  -0.004   0.002  0.00  0.00    -0.610 N 
ATOM      5  C   LIG    1       -0.016   1.344   0.009  0.00  0.00    +0.740 C 
ATOM      6  N   LIG    1       -1.192   2.002   0.019  0.00  0.00    -0.740 N 
ATOM      7  H   LIG    1       -2.026   1.505   0.020  0.00  0.00    +0.400 HD
ATOM      8  O   LIG    1        1.028   1.966   0.003  0.00  0.00    -0.570 OA
ATOM      9  C   LIG    1       -1.184  -0.879   0.008  0.00  0.00    +0.250 C 
ENDROOT
BRANCH   3  10
ATOM     10  C   LIG    1        1.996  -0.578  -1.277  0.00  0.00    +0.530 C 
ATOM     11  N   LIG    1        3.293  -0.935  -1.347  0.00  0.00    -0.620 N 
ATOM     12  C   LIG    1        4.063  -1.583  -0.276  0.00  0.00    +0.230 C 
ATOM     13  C   LIG    1        5.502  -1.778  -0.798  0.00  0.00    +0.030 C 
ATOM     14  C   LIG    1        5.610  -0.711  -1.919  0.00  0.00    +0.040 C 
ATOM     15  C   LIG    1        4.178  -0.735  -2.510  0.00  0.00    +0.260 C 
ATOM     16  O   LIG    1        1.462  -0.042  -2.225  0.00  0.00    -0.520 OA
ENDBRANCH   3  10
BRANCH   1  18
ATOM     17  C   LIG    1       -2.594  -3.602   1.045  0.00  0.00    +0.210 C 
ATOM     18  O   LIG    1       -1.500  -3.309   0.172  0.00  0.00    -0.370 OA
ENDBRANCH   1  18
BRANCH   6  19
ATOM     19  C   LIG    1       -1.212   3.466   0.027  0.00  0.00    +0.400 C 
ATOM     20  C   LIG    1       -1.100   3.986  -1.408  0.00  0.00    +0.070 C 
BRANCH  19  21
ATOM     21  C   LIG    1       -2.504   3.948   0.636  0.00  0.00    +0.170 A 
ATOM     22  N   LIG    1       -2.640   4.904   1.523  0.00  0.00    -0.470 NA
ATOM     23  C   LIG    1       -3.960   4.983   1.770  0.00  0.00    +0.170 A 
ATOM     24  N   LIG    1       -4.548   4.088   1.034  0.00  0.00    -0.380 NA
ATOM     25  C   LIG    1       -4.633   5.934   2.725  0.00  0.00    +0.200 C 
ATOM     26  O   LIG    1       -3.730   3.486   0.371  0.00  0.00    +0.080 OA
ENDBRANCH  19  21
ENDBRANCH   6  19
TORSDOF 4
