REMARK  Name = ZINCkj000005g27e.0
REMARK                            x       y       z     vdW  Elec       q    Type
REMARK                         _______ _______ _______ _____ _____    ______ ____
ROOT
ATOM      1  N   LIG    1        2.327  -3.672  -0.323  0.00  0.00    -0.510 N 
ATOM      2  H   LIG    1        2.963  -2.909  -0.501  0.00  0.00    +0.430 HD
ATOM      3  H   LIG    1        1.810  -3.882  -1.164  0.00  0.00    +0.430 HD
ENDROOT
BRANCH   1   4
ATOM      4  C   LIG    1        3.089  -4.858   0.092  0.00  0.00    +0.290 C 
BRANCH   4   9
ATOM      5  N   LIG    1        5.759  -6.891  -1.675  0.00  0.00    -0.540 NA
ATOM      6  C   LIG    1        6.743  -5.809  -1.824  0.00  0.00    +0.160 C 
ATOM      7  C   LIG    1        6.016  -4.513  -2.192  0.00  0.00    +0.250 C 
ATOM      8  O   LIG    1        5.037  -4.221  -1.191  0.00  0.00    -0.390 OA
ATOM      9  C   LIG    1        4.063  -5.253  -1.020  0.00  0.00    +0.160 C 
ATOM     10  C   LIG    1        4.769  -6.558  -0.641  0.00  0.00    +0.180 C 
BRANCH   5  12
ATOM     11  C   LIG    1        7.259  -8.601  -2.582  0.00  0.00    +0.050 C 
ATOM     12  C   LIG    1        6.422  -8.168  -1.378  0.00  0.00    +0.170 C 
ENDBRANCH   5  12
ENDBRANCH   4   9
ENDBRANCH   1   4
BRANCH   1  13
ATOM     13  C   LIG    1        1.392  -3.293   0.744  0.00  0.00    +0.360 C 
BRANCH  13  14
ATOM     14  C   LIG    1        0.611  -2.076   0.319  0.00  0.00    -0.330 A 
ATOM     15  C   LIG    1        0.966  -0.788   0.530  0.00  0.00    +0.140 A 
ATOM     16  N   LIG    1        0.002  -0.004   0.002  0.00  0.00    -0.350 N 
ATOM     17  N   LIG    1       -0.973  -0.838  -0.560  0.00  0.00    -0.270 NA
ATOM     18  C   LIG    1        2.212  -0.313   1.231  0.00  0.00    +0.160 C 
ATOM     19  C   LIG    1       -0.607  -2.080  -0.370  0.00  0.00    +0.100 A 
ATOM     20  C   LIG    1       -1.367  -3.303  -0.816  0.00  0.00    +0.160 C 
BRANCH  16  21
ATOM     21  C   LIG    1       -0.018   1.461   0.010  0.00  0.00    +0.330 C 
ATOM     22  C   LIG    1       -0.734   1.954   1.269  0.00  0.00    +0.050 C 
ENDBRANCH  16  21
ENDBRANCH  13  14
ENDBRANCH   1  13
TORSDOF 6
