REMARK  Name = ZINCpk00000ebCAI.0
REMARK                            x       y       z     vdW  Elec       q    Type
REMARK                         _______ _______ _______ _____ _____    ______ ____
ROOT
ATOM      1  O   LIG    1       -2.924   1.951  -8.093  0.00  0.00    -0.510 OA
ATOM      2  C   LIG    1       -1.776   2.162  -7.749  0.00  0.00    +0.560 C 
ATOM      3  N   LIG    1       -1.321   1.669  -6.580  0.00  0.00    -0.720 N 
ATOM      4  H   LIG    1       -0.406   1.837  -6.306  0.00  0.00    +0.400 HD
ENDROOT
BRANCH   2   5
ATOM      5  C   LIG    1       -0.883   2.956  -8.611  0.00  0.00    -0.080 A 
ATOM      6  C   LIG    1        0.426   3.211  -8.232  0.00  0.00    +0.090 A 
ATOM      7  C   LIG    1        1.279   3.954  -9.039  0.00  0.00    +0.020 A 
ATOM      8  C   LIG    1        0.886   4.481 -10.229  0.00  0.00    +0.120 A 
ATOM      9  C   LIG    1       -0.423   4.284 -10.699  0.00  0.00    +0.020 A 
ATOM     10  N   LIG    1       -1.123   4.634 -11.766  0.00  0.00    -0.260 NA
ATOM     11  N   LIG    1       -2.314   4.155 -11.657  0.00  0.00    -0.200 N 
ATOM     12  H   LIG    1       -3.007   4.283 -12.323  0.00  0.00    +0.480 HD
ATOM     13  N   LIG    1       -2.484   3.487 -10.569  0.00  0.00    -0.240 NA
ATOM     14  C   LIG    1       -1.359   3.498  -9.882  0.00  0.00    +0.060 A 
ENDBRANCH   2   5
BRANCH   3  15
ATOM     15  C   LIG    1       -2.209   0.879  -5.723  0.00  0.00    +0.340 C 
BRANCH  15  16
ATOM     16  C   LIG    1       -1.462   0.450  -4.487  0.00  0.00    -0.030 A 
ATOM     17  C   LIG    1       -0.761  -0.747  -4.460  0.00  0.00    -0.050 A 
ATOM     18  C   LIG    1       -0.087  -1.110  -3.311  0.00  0.00    +0.300 A 
ATOM     19  N   LIG    1       -0.099  -0.332  -2.245  0.00  0.00    -0.540 NA
ATOM     20  C   LIG    1       -0.760   0.814  -2.230  0.00  0.00    +0.320 A 
ATOM     21  C   LIG    1       -1.460   1.242  -3.351  0.00  0.00    -0.020 A 
BRANCH  20  22
ATOM     22  O   LIG    1       -0.750   1.581  -1.111  0.00  0.00    -0.290 OA
BRANCH  22  23
ATOM     23  C   LIG    1       -0.013   1.086   0.008  0.00  0.00    +0.170 C 
ATOM     24  C   LIG    1       -0.615   1.612   1.333  0.00  0.00    +0.020 C 
ATOM     25  C   LIG    1        0.655   1.931   2.163  0.00  0.00    +0.220 C 
ATOM     26  O   LIG    1        1.579   2.446   1.180  0.00  0.00    -0.370 OA
ATOM     27  C   LIG    1        1.423   1.645  -0.003  0.00  0.00    +0.190 C 
ENDBRANCH  22  23
ENDBRANCH  20  22
ENDBRANCH  15  16
ENDBRANCH   3  15
TORSDOF 5
