REMARK  Name = ZINCkj000005haxr.0
REMARK                            x       y       z     vdW  Elec       q    Type
REMARK                         _______ _______ _______ _____ _____    ______ ____
ROOT
ATOM      1  C   LIG    1        1.201   2.060   0.002  0.00  0.00    +0.470 A 
ATOM      2  C   LIG    1       -0.017   1.377   0.010  0.00  0.00    -0.070 A 
ATOM      3  C   LIG    1        0.002  -0.004   0.002  0.00  0.00    +0.140 A 
ATOM      4  N   LIG    1        1.166  -0.636  -0.013  0.00  0.00    -0.560 NA
ATOM      5  C   LIG    1        2.307   0.037  -0.020  0.00  0.00    +0.500 A 
ATOM      6  N   LIG    1        2.332   1.361  -0.013  0.00  0.00    -0.540 NA
ENDROOT
BRANCH   5   7
ATOM      7  N   LIG    1        3.502  -0.660  -0.035  0.00  0.00    -0.380 N 
ATOM      8  C   LIG    1        4.044  -0.810   1.329  0.00  0.00    +0.240 C 
ATOM      9  C   LIG    1        4.421  -2.252   0.961  0.00  0.00    +0.170 C 
ATOM     10  C   LIG    1        3.265  -2.116  -0.040  0.00  0.00    +0.260 C 
BRANCH   9  11
ATOM     11  N   LIG    1        4.178  -3.229   2.031  0.00  0.00    -0.380 N 
ATOM     12  C   LIG    1        5.343  -3.275   2.925  0.00  0.00    +0.330 C 
ATOM     13  C   LIG    1        3.959  -4.556   1.442  0.00  0.00    +0.330 C 
ATOM     14  H   LIG    1        3.361  -2.955   2.557  0.00  0.00    +0.420 HD
ENDBRANCH   9  11
ENDBRANCH   5   7
BRANCH   3  15
ATOM     15  C   LIG    1       -1.288  -0.783   0.011  0.00  0.00    +0.530 C 
ATOM     16  F   LIG    1       -2.271  -0.050   0.684  0.00  0.00    -0.160 F 
ATOM     17  F   LIG    1       -1.090  -2.006   0.662  0.00  0.00    -0.160 F 
ATOM     18  F   LIG    1       -1.700  -1.017  -1.306  0.00  0.00    -0.160 F 
ENDBRANCH   3  15
BRANCH   1  20
ATOM     19  C   LIG    1       -0.016   4.203   0.135  0.00  0.00    +0.320 C 
ATOM     20  N   LIG    1        1.231   3.445   0.009  0.00  0.00    -0.580 N 
ATOM     21  C   LIG    1        2.509   4.151  -0.110  0.00  0.00    +0.310 C 
ENDBRANCH   1  20
TORSDOF 4
