REMARK  Name = ZINCrH00000tj0Tp.0
REMARK                            x       y       z     vdW  Elec       q    Type
REMARK                         _______ _______ _______ _____ _____    ______ ____
ROOT
ATOM      1  N   LIG    1       -1.983   1.040   1.534  0.00  0.00    -0.590 N 
ATOM      2  C   LIG    1       -2.149  -0.277   1.770  0.00  0.00    +0.540 C 
ATOM      3  O   LIG    1       -3.238  -0.703   2.092  0.00  0.00    -0.510 OA
ENDROOT
BRANCH   1   4
ATOM      4  C   LIG    1       -3.138   1.940   1.563  0.00  0.00    +0.280 C 
ATOM      5  C   LIG    1       -3.833   1.863   2.933  0.00  0.00    +0.060 C 
ATOM      6  C   LIG    1       -5.214   2.540   2.826  0.00  0.00    -0.310 C 
ATOM      7  S   LIG    1       -5.707   2.342   1.075  0.00  0.00    +2.390 S 
ATOM      8  O   LIG    1       -6.805   1.444   0.991  0.00  0.00    -0.930 OA
ATOM      9  O   LIG    1       -5.791   3.622   0.463  0.00  0.00    -0.930 OA
ATOM     10  C   LIG    1       -4.184   1.496   0.508  0.00  0.00    -0.320 C 
ENDBRANCH   1   4
BRANCH   1  11
ATOM     11  C   LIG    1       -0.647   1.570   1.250  0.00  0.00    +0.220 C 
ATOM     12  C   LIG    1       -0.238   2.542   2.357  0.00  0.00    +0.040 C 
BRANCH  11  14
ATOM     13  C   LIG    1       -0.935   1.304  -1.218  0.00  0.00    +0.020 C 
ATOM     14  C   LIG    1       -0.666   2.304  -0.092  0.00  0.00    +0.010 C 
ENDBRANCH  11  14
ENDBRANCH   1  11
BRANCH   2  15
ATOM     15  C   LIG    1       -0.981  -1.220   1.635  0.00  0.00    +0.070 C 
BRANCH  15  16
ATOM     16  S   LIG    1       -1.550  -2.922   1.870  0.00  0.00    +0.120 S 
BRANCH  16  17
ATOM     17  C   LIG    1       -0.027  -3.785   1.664  0.00  0.00    +0.040 A 
ATOM     18  N   LIG    1        0.121  -5.072   1.738  0.00  0.00    -0.440 NA
ATOM     19  C   LIG    1        1.352  -5.547   1.554  0.00  0.00    +0.120 A 
ATOM     20  C   LIG    1        2.295  -4.620   1.313  0.00  0.00    -0.050 A 
ATOM     21  S   LIG    1        1.528  -3.034   1.319  0.00  0.00    +0.080 S 
BRANCH  19  22
ATOM     22  C   LIG    1        1.660  -6.996   1.613  0.00  0.00    -0.030 A 
ATOM     23  C   LIG    1        2.965  -7.443   1.408  0.00  0.00    +0.020 A 
ATOM     24  C   LIG    1        3.246  -8.793   1.469  0.00  0.00    +0.010 A 
ATOM     25  C   LIG    1        2.235  -9.702   1.722  0.00  0.00    +0.020 A 
ATOM     26  C   LIG    1        0.938  -9.265   1.921  0.00  0.00    +0.010 A 
ATOM     27  C   LIG    1        0.645  -7.918   1.867  0.00  0.00    +0.050 A 
ENDBRANCH  19  22
ENDBRANCH  16  17
ENDBRANCH  15  16
ENDBRANCH   2  15
TORSDOF 7
