REMARK  Name = ZINCrH000004sbQs.0
REMARK                            x       y       z     vdW  Elec       q    Type
REMARK                         _______ _______ _______ _____ _____    ______ ____
ROOT
ATOM      1  C   LIG    1       -3.463   1.528   6.701  0.00  0.00    +0.210 C 
ENDROOT
BRANCH   1   2
ATOM      2  N   LIG    1       -2.439   1.991   5.755  0.00  0.00    -0.530 NA
ATOM      3  C   LIG    1       -1.314   1.049   5.695  0.00  0.00    +0.180 C 
ATOM      4  C   LIG    1       -0.193   1.651   4.842  0.00  0.00    +0.310 C 
ATOM      5  N   LIG    1       -0.753   2.034   3.537  0.00  0.00    -0.600 N 
ATOM      6  C   LIG    1       -1.961   2.872   3.518  0.00  0.00    +0.300 C 
ATOM      7  C   LIG    1       -0.171   1.633   2.390  0.00  0.00    +0.650 C 
ATOM      8  O   LIG    1        0.831   0.945   2.425  0.00  0.00    -0.570 OA
ATOM      9  C   LIG    1       -3.017   2.217   4.423  0.00  0.00    +0.160 C 
BRANCH   7  10
ATOM     10  O   LIG    1       -0.698   1.994   1.205  0.00  0.00    -0.360 OA
BRANCH  10  11
ATOM     11  C   LIG    1       -0.019   1.526   0.010  0.00  0.00    +0.140 C 
ATOM     12  C   LIG    1       -0.759   2.033  -1.229  0.00  0.00    +0.080 C 
ATOM     13  C   LIG    1        1.417   2.055  -0.000  0.00  0.00    +0.040 C 
ATOM     14  C   LIG    1        0.002  -0.004   0.002  0.00  0.00    +0.040 C 
ENDBRANCH  10  11
ENDBRANCH   7  10
ENDBRANCH   1   2
BRANCH   1  15
ATOM     15  C   LIG    1       -4.490   2.640   6.925  0.00  0.00    +0.090 C 
BRANCH  15  16
ATOM     16  S   LIG    1       -5.752   2.071   8.091  0.00  0.00    +0.080 S 
BRANCH  16  20
ATOM     17  C   LIG    1       -8.349   4.899   8.650  0.00  0.00    +0.250 A 
ATOM     18  N   LIG    1       -7.520   5.458   7.799  0.00  0.00    -0.260 NA
ATOM     19  N   LIG    1       -6.579   4.629   7.513  0.00  0.00    -0.280 NA
ATOM     20  C   LIG    1       -6.773   3.505   8.162  0.00  0.00    +0.130 A 
ATOM     21  O   LIG    1       -7.893   3.651   8.897  0.00  0.00    -0.200 OA
BRANCH  17  24
ATOM     22  C   LIG    1       -9.278   7.713   8.023  0.00  0.00    +0.130 C 
ATOM     23  C   LIG    1       -9.994   6.778   8.964  0.00  0.00    -0.020 A 
ATOM     24  C   LIG    1       -9.552   5.517   9.227  0.00  0.00    -0.170 A 
ATOM     25  S   LIG    1      -10.651   4.741  10.361  0.00  0.00    +0.170 S 
ATOM     26  C   LIG    1      -11.655   6.183  10.427  0.00  0.00    +0.000 A 
ATOM     27  C   LIG    1      -11.148   7.128   9.630  0.00  0.00    +0.020 A 
ENDBRANCH  17  24
ENDBRANCH  16  20
ENDBRANCH  15  16
ENDBRANCH   1  15
TORSDOF 7
