REMARK  Name = ZINCtV00001bB3b4.0
REMARK                            x       y       z     vdW  Elec       q    Type
REMARK                         _______ _______ _______ _____ _____    ______ ____
ROOT
ATOM      1  O   LIG    1       -4.021   1.706  -0.209  0.00  0.00    -0.440 OA
ATOM      2  C   LIG    1       -2.936   1.207   0.041  0.00  0.00    +0.440 C 
ATOM      3  C   LIG    1       -1.879   1.054  -0.983  0.00  0.00    -0.180 C 
ATOM      4  C   LIG    1       -0.456   1.312  -0.529  0.00  0.00    +0.080 C 
ATOM      5  C   LIG    1       -0.194   0.519   0.755  0.00  0.00    +0.030 C 
ATOM      6  C   LIG    1       -1.165   0.967   1.851  0.00  0.00    +0.080 C 
ATOM      7  C   LIG    1       -2.166   0.703  -2.255  0.00  0.00    +0.100 C 
ATOM      8  C   LIG    1       -2.582   0.711   1.389  0.00  0.00    -0.180 C 
ATOM      9  C   LIG    1       -3.478   0.062   2.165  0.00  0.00    +0.100 C 
ENDROOT
BRANCH   7  10
ATOM     10  C   LIG    1       -1.111   0.717  -3.277  0.00  0.00    -0.080 A 
ATOM     11  C   LIG    1       -0.131   1.716  -3.264  0.00  0.00    +0.070 A 
ATOM     12  C   LIG    1        0.858   1.720  -4.223  0.00  0.00    -0.020 A 
ATOM     13  C   LIG    1        0.881   0.746  -5.208  0.00  0.00    +0.060 A 
ATOM     14  C   LIG    1       -0.084  -0.243  -5.237  0.00  0.00    -0.050 A 
ATOM     15  C   LIG    1       -1.083  -0.268  -4.278  0.00  0.00    +0.120 A 
BRANCH  15  16
ATOM     16  O   LIG    1       -2.031  -1.238  -4.306  0.00  0.00    -0.320 OA
BRANCH  16  17
ATOM     17  C   LIG    1       -1.938  -2.206  -5.353  0.00  0.00    +0.590 C 
ATOM     18  F   LIG    1       -0.715  -2.878  -5.260  0.00  0.00    -0.200 F 
ATOM     19  F   LIG    1       -2.023  -1.562  -6.592  0.00  0.00    -0.200 F 
ENDBRANCH  16  17
ENDBRANCH  15  16
ENDBRANCH   7  10
BRANCH   9  20
ATOM     20  C   LIG    1       -3.139  -0.273   3.555  0.00  0.00    -0.080 A 
ATOM     21  C   LIG    1       -2.384   0.615   4.329  0.00  0.00    +0.070 A 
ATOM     22  C   LIG    1       -2.075   0.296   5.634  0.00  0.00    -0.020 A 
ATOM     23  C   LIG    1       -2.497  -0.905   6.179  0.00  0.00    +0.060 A 
ATOM     24  C   LIG    1       -3.238  -1.794   5.425  0.00  0.00    -0.050 A 
ATOM     25  C   LIG    1       -3.565  -1.490   4.113  0.00  0.00    +0.120 A 
BRANCH  25  26
ATOM     26  O   LIG    1       -4.292  -2.363   3.371  0.00  0.00    -0.320 OA
BRANCH  26  27
ATOM     27  C   LIG    1       -4.689  -3.579   4.006  0.00  0.00    +0.590 C 
ATOM     28  F   LIG    1       -5.479  -3.286   5.122  0.00  0.00    -0.200 F 
ATOM     29  F   LIG    1       -3.553  -4.287   4.412  0.00  0.00    -0.200 F 
ENDBRANCH  26  27
ENDBRANCH  25  26
ENDBRANCH   9  20
TORSDOF 6
