REMARK  Name = ZINCpk000000nPR9.0
REMARK                            x       y       z     vdW  Elec       q    Type
REMARK                         _______ _______ _______ _____ _____    ______ ____
ROOT
ATOM      1  N   LIG    1        3.064   3.436  -0.009  0.00  0.00    -0.710 N 
ATOM      2  H   LIG    1        3.711   2.713  -0.019  0.00  0.00    +0.410 HD
ATOM      3  C   LIG    1        1.745   3.159   0.002  0.00  0.00    +0.610 C 
ATOM      4  O   LIG    1        0.934   4.065   0.015  0.00  0.00    -0.540 OA
ENDROOT
BRANCH   3   5
ATOM      5  C   LIG    1        1.286   1.757  -0.001  0.00  0.00    -0.100 A 
ATOM      6  C   LIG    1       -0.016   1.344   0.009  0.00  0.00    +0.300 A 
ATOM      7  N   LIG    1        0.002  -0.004   0.002  0.00  0.00    -0.370 N 
ATOM      8  N   LIG    1        1.350  -0.391  -0.013  0.00  0.00    -0.030 NA
ATOM      9  N   LIG    1        2.077   0.671  -0.014  0.00  0.00    -0.210 NA
BRANCH   7  10
ATOM     10  C   LIG    1       -1.162  -0.893   0.009  0.00  0.00    +0.350 C 
BRANCH  10  11
ATOM     11  C   LIG    1       -1.077  -1.854  -1.179  0.00  0.00    +0.180 C 
ATOM     12  C   LIG    1       -2.329  -2.751  -1.239  0.00  0.00    +0.270 C 
ATOM     13  N   LIG    1       -1.793  -4.112  -1.084  0.00  0.00    -0.740 N 
ATOM     14  H   LIG    1       -2.318  -4.927  -1.077  0.00  0.00    +0.440 HD
ATOM     15  C   LIG    1       -0.461  -4.041  -0.954  0.00  0.00    +0.640 C 
ATOM     16  O   LIG    1        0.244  -5.020  -0.810  0.00  0.00    -0.510 OA
ATOM     17  O   LIG    1        0.024  -2.792  -1.000  0.00  0.00    -0.300 OA
ENDBRANCH  10  11
ENDBRANCH   7  10
ENDBRANCH   3   5
BRANCH   1  18
ATOM     18  C   LIG    1        3.521   4.828  -0.006  0.00  0.00    +0.320 C 
BRANCH  18  24
ATOM     19  C   LIG    1        5.712   4.677  -1.207  0.00  0.00    -0.050 A 
ATOM     20  C   LIG    1        7.093   4.709  -1.220  0.00  0.00    +0.000 A 
ATOM     21  C   LIG    1        7.791   4.927  -0.046  0.00  0.00    +0.010 A 
ATOM     22  C   LIG    1        7.107   5.113   1.140  0.00  0.00    -0.010 A 
ATOM     23  C   LIG    1        5.724   5.086   1.153  0.00  0.00    +0.020 A 
ATOM     24  C   LIG    1        5.027   4.863  -0.020  0.00  0.00    -0.110 A 
BRANCH  19  26
ATOM     25  C   LIG    1        5.286   5.545  -3.490  0.00  0.00    +0.040 C 
ATOM     26  C   LIG    1        4.952   4.440  -2.486  0.00  0.00    +0.010 C 
ATOM     27  C   LIG    1        5.347   3.083  -3.070  0.00  0.00    +0.040 C 
ENDBRANCH  19  26
ENDBRANCH  18  24
ENDBRANCH   1  18
TORSDOF 6
