REMARK  Name = ZINCrD000006VnfK.0
REMARK                            x       y       z     vdW  Elec       q    Type
REMARK                         _______ _______ _______ _____ _____    ______ ____
ROOT
ATOM      1  N   LIG    1       -3.611   1.792   0.029  0.00  0.00    -0.520 NA
ATOM      2  C   LIG    1       -3.656   2.547   1.289  0.00  0.00    +0.200 C 
ATOM      3  C   LIG    1       -4.795   3.568   1.228  0.00  0.00    +0.210 C 
ATOM      4  N   LIG    1       -6.065   2.867   0.992  0.00  0.00    -0.490 N 
ATOM      5  C   LIG    1       -6.020   2.112  -0.268  0.00  0.00    +0.200 C 
ATOM      6  C   LIG    1       -4.881   1.091  -0.207  0.00  0.00    +0.200 C 
ENDROOT
BRANCH   4   7
ATOM      7  C   LIG    1       -7.139   3.760   1.002  0.00  0.00    +0.110 A 
ATOM      8  C   LIG    1       -7.990   3.838  -0.093  0.00  0.00    +0.000 A 
ATOM      9  C   LIG    1       -9.051   4.723  -0.080  0.00  0.00    +0.050 A 
ATOM     10  C   LIG    1       -9.267   5.529   1.022  0.00  0.00    +0.040 A 
ATOM     11  C   LIG    1       -8.422   5.454   2.114  0.00  0.00    -0.160 A 
ATOM     12  C   LIG    1       -7.362   4.569   2.110  0.00  0.00    +0.050 A 
BRANCH  11  13
ATOM     13  C   LIG    1       -8.662   6.334   3.314  0.00  0.00    +0.510 C 
ATOM     14  F   LIG    1       -7.546   7.150   3.524  0.00  0.00    -0.180 F 
ATOM     15  F   LIG    1       -8.877   5.536   4.443  0.00  0.00    -0.180 F 
ATOM     16  F   LIG    1       -9.788   7.133   3.088  0.00  0.00    -0.180 F 
ENDBRANCH  11  13
ENDBRANCH   4   7
BRANCH   1  17
ATOM     17  C   LIG    1       -2.482   0.853   0.018  0.00  0.00    +0.240 C 
BRANCH  17  20
ATOM     18  N   LIG    1       -0.011   0.966   0.007  0.00  0.00    -0.630 N 
ATOM     19  H   LIG    1        0.002  -0.004   0.002  0.00  0.00    +0.420 HD
ATOM     20  C   LIG    1       -1.187   1.624   0.017  0.00  0.00    +0.510 C 
ATOM     21  O   LIG    1       -1.204   2.837   0.023  0.00  0.00    -0.480 OA
BRANCH  18  23
ATOM     22  C   LIG    1        2.427   1.106  -0.010  0.00  0.00    -0.120 A 
ATOM     23  C   LIG    1        1.181   1.676  -0.000  0.00  0.00    +0.060 A 
ATOM     24  S   LIG    1        1.296   3.377   0.008  0.00  0.00    +0.320 S 
ATOM     25  C   LIG    1        3.050   3.336  -0.009  0.00  0.00    -0.110 A 
ATOM     26  C   LIG    1        3.492   2.085  -0.021  0.00  0.00    +0.080 A 
BRANCH  22  28
ATOM     27  N   LIG    1        2.829  -1.430  -0.016  0.00  0.00    -0.420 NA
ATOM     28  C   LIG    1        2.651  -0.308  -0.013  0.00  0.00    +0.270 C 
ENDBRANCH  22  28
ENDBRANCH  18  23
ENDBRANCH  17  20
ENDBRANCH   1  17
TORSDOF 6
