REMARK  Name = ZINCrg00000SjSta.0
REMARK                            x       y       z     vdW  Elec       q    Type
REMARK                         _______ _______ _______ _____ _____    ______ ____
ROOT
ATOM      1  C   LIG    1       -5.753  -1.900  -1.146  0.00  0.00    +0.210 C 
ENDROOT
BRANCH   1   2
ATOM      2  C   LIG    1       -4.466  -2.637  -0.882  0.00  0.00    +0.510 C 
ATOM      3  N   LIG    1       -3.297  -1.967  -0.864  0.00  0.00    -0.620 N 
ATOM      4  C   LIG    1       -2.033  -2.673  -0.608  0.00  0.00    +0.280 C 
ATOM      5  C   LIG    1       -1.327  -2.001   0.575  0.00  0.00    +0.280 C 
ATOM      6  N   LIG    1       -1.292  -0.551   0.339  0.00  0.00    -0.610 N 
ATOM      7  C   LIG    1       -2.556   0.157   0.089  0.00  0.00    +0.270 C 
ATOM      8  C   LIG    1       -0.123   0.120   0.357  0.00  0.00    +0.550 C 
ATOM      9  O   LIG    1        0.913  -0.474   0.570  0.00  0.00    -0.530 OA
ATOM     10  C   LIG    1       -3.262  -0.517  -1.100  0.00  0.00    +0.270 C 
ATOM     11  O   LIG    1       -4.482  -3.834  -0.686  0.00  0.00    -0.510 OA
BRANCH   8  12
ATOM     12  C   LIG    1       -0.103   1.607   0.114  0.00  0.00    -0.070 C 
ATOM     13  C   LIG    1        0.534   2.101  -1.186  0.00  0.00    +0.060 C 
ATOM     14  C   LIG    1        1.255   2.310   0.147  0.00  0.00    +0.070 C 
ENDBRANCH   8  12
ENDBRANCH   1   2
BRANCH   1  19
ATOM     15  C   LIG    1       -7.775  -4.791  -2.462  0.00  0.00    +0.080 C 
ATOM     16  C   LIG    1       -9.155  -4.128  -2.466  0.00  0.00    +0.020 C 
ATOM     17  C   LIG    1       -9.279  -3.218  -1.241  0.00  0.00    +0.040 C 
ATOM     18  C   LIG    1       -8.155  -2.180  -1.267  0.00  0.00    +0.170 C 
ATOM     19  N   LIG    1       -6.855  -2.864  -1.261  0.00  0.00    -0.520 NA
ATOM     20  C   LIG    1       -6.694  -3.707  -2.452  0.00  0.00    +0.190 C 
BRANCH  15  26
ATOM     21  C   LIG    1       -6.013  -8.806  -4.627  0.00  0.00    +0.180 C 
ATOM     22  C   LIG    1       -6.800  -7.525  -4.723  0.00  0.00    +0.320 A 
ATOM     23  N   LIG    1       -7.333  -7.186  -5.880  0.00  0.00    -0.520 NA
ATOM     24  C   LIG    1       -8.030  -6.068  -6.003  0.00  0.00    +0.320 A 
ATOM     25  C   LIG    1       -8.201  -5.254  -4.894  0.00  0.00    -0.090 A 
ATOM     26  C   LIG    1       -7.622  -5.643  -3.696  0.00  0.00    +0.190 A 
ATOM     27  N   LIG    1       -6.938  -6.774  -3.649  0.00  0.00    -0.510 NA
ENDBRANCH  15  26
ENDBRANCH   1  19
TORSDOF 4
