REMARK  Name = ZINCrH000004jWBv.0
REMARK                            x       y       z     vdW  Elec       q    Type
REMARK                         _______ _______ _______ _____ _____    ______ ____
ROOT
ATOM      1  C   LIG    1       -0.063   6.155   0.193  0.00  0.00    +0.050 A 
ATOM      2  C   LIG    1       -0.603   5.519   1.264  0.00  0.00    +0.200 A 
ATOM      3  N   LIG    1       -0.503   4.181   1.039  0.00  0.00    -0.350 N 
ATOM      4  N   LIG    1        0.119   3.998  -0.202  0.00  0.00    -0.270 NA
ATOM      5  C   LIG    1        0.378   5.176  -0.711  0.00  0.00    +0.300 A 
ENDROOT
BRANCH   1   9
ATOM      6  C   LIG    1        0.186  10.289  -0.231  0.00  0.00    +0.280 C 
ATOM      7  N   LIG    1        0.693   9.384  -1.266  0.00  0.00    -0.620 N 
ATOM      8  C   LIG    1        0.598   8.050  -1.099  0.00  0.00    +0.710 C 
ATOM      9  N   LIG    1        0.036   7.549   0.019  0.00  0.00    -0.660 N 
ATOM     10  H   LIG    1       -0.299   8.148   0.704  0.00  0.00    +0.410 HD
ATOM     11  O   LIG    1        1.019   7.298  -1.958  0.00  0.00    -0.570 OA
BRANCH   7  12
ATOM     12  C   LIG    1        1.304   9.929  -2.481  0.00  0.00    +0.410 C 
BRANCH  12  13
ATOM     13  C   LIG    1        0.242  10.127  -3.531  0.00  0.00    -0.200 A 
ATOM     14  C   LIG    1       -0.477  11.238  -3.697  0.00  0.00    +0.030 A 
ATOM     15  C   LIG    1       -1.395  11.190  -4.733  0.00  0.00    +0.050 A 
ATOM     16  C   LIG    1       -1.427  10.036  -5.402  0.00  0.00    -0.210 A 
ATOM     17 BR   LIG    1       -2.570   9.652  -6.859  0.00  0.00    +0.010 Br
ATOM     18  S   LIG    1       -0.244   8.926  -4.721  0.00  0.00    +0.200 S 
ENDBRANCH  12  13
ENDBRANCH   7  12
ENDBRANCH   1   9
BRANCH   3  19
ATOM     19  C   LIG    1       -0.942   3.165   1.900  0.00  0.00    +0.260 A 
ATOM     20  C   LIG    1       -1.541   3.489   3.110  0.00  0.00    -0.020 A 
ATOM     21  C   LIG    1       -1.972   2.485   3.955  0.00  0.00    +0.100 A 
ATOM     22  C   LIG    1       -1.806   1.160   3.599  0.00  0.00    -0.010 A 
ATOM     23  C   LIG    1       -1.215   0.834   2.392  0.00  0.00    +0.150 A 
ATOM     24  C   LIG    1       -0.777   1.833   1.544  0.00  0.00    -0.670 A 
BRANCH  24  25
ATOM     25  S   LIG    1       -0.017   1.417   0.010  0.00  0.00    +2.520 S 
ATOM     26  O   LIG    1        1.190   2.166   0.002  0.00  0.00    -0.910 OA
ATOM     27  O   LIG    1        0.002  -0.004   0.002  0.00  0.00    -0.950 OA
ATOM     28  C   LIG    1       -1.164   2.045  -1.248  0.00  0.00    -0.250 C 
ENDBRANCH  24  25
ENDBRANCH   3  19
TORSDOF 5
