REMARK  Name = ZINCtV000002DUle.0
REMARK                            x       y       z     vdW  Elec       q    Type
REMARK                         _______ _______ _______ _____ _____    ______ ____
ROOT
ATOM      1  N   LIG    1        4.220   3.289  -1.645  0.00  0.00    -0.630 N 
ATOM      2  C   LIG    1        3.939   2.998  -0.359  0.00  0.00    +0.580 C 
ATOM      3  O   LIG    1        3.512   1.899  -0.064  0.00  0.00    -0.490 OA
ENDROOT
BRANCH   2   4
ATOM      4  C   LIG    1        4.152   4.015   0.693  0.00  0.00    -0.100 A 
ATOM      5  C   LIG    1        3.441   5.215   0.661  0.00  0.00    +0.060 A 
ATOM      6  C   LIG    1        3.641   6.158   1.647  0.00  0.00    +0.050 A 
ATOM      7  C   LIG    1        4.551   5.920   2.662  0.00  0.00    -0.160 A 
ATOM      8  C   LIG    1        5.263   4.734   2.697  0.00  0.00    +0.070 A 
ATOM      9  C   LIG    1        5.069   3.781   1.719  0.00  0.00    +0.070 A 
BRANCH   7  10
ATOM     10  C   LIG    1        4.769   6.957   3.734  0.00  0.00    +0.510 C 
ATOM     11  F   LIG    1        5.130   6.324   4.928  0.00  0.00    -0.170 F 
ATOM     12  F   LIG    1        3.587   7.681   3.929  0.00  0.00    -0.170 F 
ATOM     13  F   LIG    1        5.789   7.828   3.340  0.00  0.00    -0.170 F 
ENDBRANCH   7  10
ENDBRANCH   2   4
BRANCH   1  15
ATOM     14  C   LIG    1        4.658   5.683  -1.398  0.00  0.00    +0.030 C 
ATOM     15  C   LIG    1        3.896   4.613  -2.183  0.00  0.00    +0.250 C 
BRANCH  15  16
ATOM     16  C   LIG    1        2.392   4.862  -2.056  0.00  0.00    +0.100 C 
BRANCH  16  17
ATOM     17  C   LIG    1        1.801   5.073  -3.426  0.00  0.00    -0.180 A 
ATOM     18  C   LIG    1        1.315   4.110  -4.211  0.00  0.00    +0.010 A 
ATOM     19  C   LIG    1        0.822   4.545  -5.430  0.00  0.00    +0.010 A 
ATOM     20  C   LIG    1        0.912   5.859  -5.636  0.00  0.00    -0.050 A 
ATOM     21  S   LIG    1        1.645   6.628  -4.234  0.00  0.00    +0.100 S 
ENDBRANCH  16  17
ENDBRANCH  15  16
ENDBRANCH   1  15
BRANCH   1  22
ATOM     22  C   LIG    1        4.847   2.282  -2.504  0.00  0.00    +0.350 C 
BRANCH  22  23
ATOM     23  C   LIG    1        6.346   2.408  -2.413  0.00  0.00    -0.110 A 
ATOM     24  C   LIG    1        7.025   3.235  -3.288  0.00  0.00    +0.040 A 
ATOM     25  C   LIG    1        8.399   3.354  -3.201  0.00  0.00    +0.020 A 
ATOM     26  C   LIG    1        9.097   2.636  -2.245  0.00  0.00    -0.030 A 
ATOM     27  C   LIG    1        8.417   1.804  -1.373  0.00  0.00    +0.020 A 
ATOM     28 CL   LIG    1       10.824   2.779  -2.141  0.00  0.00    -0.070 Cl
ATOM     29  C   LIG    1        7.042   1.691  -1.457  0.00  0.00    +0.040 A 
ENDBRANCH  22  23
ENDBRANCH   1  22
TORSDOF 7
