REMARK  Name = ZINCpk00000KfKzD.0
REMARK                            x       y       z     vdW  Elec       q    Type
REMARK                         _______ _______ _______ _____ _____    ______ ____
ROOT
ATOM      1  N   LIG    1       -9.631  -2.025  -0.579  0.00  0.00    -0.740 N 
ATOM      2  H   LIG    1       -9.322  -1.411  -1.264  0.00  0.00    +0.400 HD
ATOM      3  C   LIG    1       -8.824  -2.347   0.452  0.00  0.00    +0.710 C 
ATOM      4  N   LIG    1       -7.630  -1.738   0.588  0.00  0.00    -0.630 N 
ATOM      5  C   LIG    1       -6.782  -1.993   1.762  0.00  0.00    +0.310 C 
ATOM      6  C   LIG    1       -6.374  -0.646   2.370  0.00  0.00    +0.180 C 
ATOM      7  N   LIG    1       -5.760   0.190   1.330  0.00  0.00    -0.530 NA
ATOM      8  C   LIG    1       -6.717   0.499   0.260  0.00  0.00    +0.190 C 
ATOM      9  C   LIG    1       -7.139  -0.801  -0.434  0.00  0.00    +0.280 C 
ATOM     10  O   LIG    1       -9.175  -3.186   1.259  0.00  0.00    -0.590 OA
ENDROOT
BRANCH   1  11
ATOM     11  C   LIG    1      -10.974  -2.603  -0.666  0.00  0.00    +0.310 C 
BRANCH  11  15
ATOM     12  C   LIG    1      -13.786  -3.369  -1.073  0.00  0.00    +0.050 C 
ATOM     13  C   LIG    1      -13.137  -2.477  -2.133  0.00  0.00    -0.030 C 
ATOM     14  C   LIG    1      -12.041  -3.096  -3.004  0.00  0.00    +0.030 C 
ATOM     15  C   LIG    1      -11.675  -2.079  -1.921  0.00  0.00    -0.060 C 
ENDBRANCH  11  15
ENDBRANCH   1  11
BRANCH   7  16
ATOM     16  C   LIG    1       -5.200   1.420   1.907  0.00  0.00    +0.310 C 
BRANCH  16  17
ATOM     17  C   LIG    1       -4.370   2.130   0.867  0.00  0.00    +0.180 A 
ATOM     18  N   LIG    1       -4.793   3.029   0.019  0.00  0.00    -0.290 NA
ATOM     19  N   LIG    1       -3.813   3.427  -0.716  0.00  0.00    -0.290 NA
ATOM     20  C   LIG    1       -2.725   2.803  -0.366  0.00  0.00    +0.180 A 
ATOM     21  C   LIG    1       -1.347   2.977  -0.951  0.00  0.00    +0.150 C 
ATOM     22  C   LIG    1       -0.745   1.597  -1.230  0.00  0.00    +0.030 C 
ATOM     23  C   LIG    1       -0.016   1.096   0.014  0.00  0.00    +0.010 C 
ATOM     24  C   LIG    1       -0.722   1.582   1.279  0.00  0.00    +0.030 C 
ATOM     25  C   LIG    1       -2.148   1.027   1.321  0.00  0.00    +0.290 C 
ATOM     26  N   LIG    1       -3.050   1.955   0.638  0.00  0.00    -0.460 N 
ENDBRANCH  16  17
ENDBRANCH   7  16
TORSDOF 4
