REMARK  Name = ZINCqH0000004JrR.0
REMARK                            x       y       z     vdW  Elec       q    Type
REMARK                         _______ _______ _______ _____ _____    ______ ____
ROOT
ATOM      1  N   LIG    1       -3.343   7.232   0.360  0.00  0.00    -0.600 N 
ATOM      2  C   LIG    1       -3.257   7.794   1.582  0.00  0.00    +0.600 C 
ATOM      3  O   LIG    1       -3.326   7.098   2.578  0.00  0.00    -0.550 OA
ATOM      4  C   LIG    1       -3.260   8.070  -0.839  0.00  0.00    +0.300 C 
ENDROOT
BRANCH   2   5
ATOM      5  C   LIG    1       -3.081   9.250   1.713  0.00  0.00    -0.230 A 
ATOM      6  C   LIG    1       -2.796   9.944   2.856  0.00  0.00    +0.120 A 
ATOM      7  N   LIG    1       -2.716  11.253   2.550  0.00  0.00    -0.410 N 
ATOM      8  C   LIG    1       -2.942  11.442   1.218  0.00  0.00    +0.020 A 
ATOM      9  C   LIG    1       -2.933  12.771   0.506  0.00  0.00    +0.130 C 
ATOM     10  C   LIG    1       -2.606   9.347   4.226  0.00  0.00    +0.130 C 
ATOM     11  C   LIG    1       -3.168  10.248   0.641  0.00  0.00    -0.020 A 
BRANCH   7  12
ATOM     12  C   LIG    1       -2.426  12.322   3.510  0.00  0.00    +0.170 C 
ATOM     13  C   LIG    1       -1.360  13.348   3.123  0.00  0.00    +0.050 C 
ATOM     14  C   LIG    1       -1.061  12.301   4.199  0.00  0.00    +0.040 C 
ENDBRANCH   7  12
ENDBRANCH   2   5
BRANCH   1  15
ATOM     15  C   LIG    1       -3.518   5.784   0.230  0.00  0.00    +0.330 C 
BRANCH  15  18
ATOM     16  N   LIG    1       -2.080   3.779   0.044  0.00  0.00    -0.670 N 
ATOM     17  H   LIG    1       -2.885   3.249  -0.070  0.00  0.00    +0.410 HD
ATOM     18  C   LIG    1       -2.167   5.118   0.165  0.00  0.00    +0.500 C 
ATOM     19  O   LIG    1       -1.157   5.788   0.221  0.00  0.00    -0.500 OA
BRANCH  16  25
ATOM     20  C   LIG    1       -0.703   1.887   0.642  0.00  0.00    -0.110 A 
ATOM     21  C   LIG    1        0.534   1.274   0.684  0.00  0.00    +0.020 A 
ATOM     22  C   LIG    1        1.643   1.913   0.160  0.00  0.00    -0.010 A 
ATOM     23  C   LIG    1        1.518   3.170  -0.402  0.00  0.00    +0.010 A 
ATOM     24  C   LIG    1        0.285   3.791  -0.442  0.00  0.00    +0.020 A 
ATOM     25  C   LIG    1       -0.830   3.152   0.082  0.00  0.00    +0.150 A 
BRANCH  20  27
ATOM     26  C   LIG    1       -2.646   0.450   0.085  0.00  0.00    +0.020 C 
ATOM     27  C   LIG    1       -1.912   1.187   1.207  0.00  0.00    +0.060 C 
ENDBRANCH  20  27
ENDBRANCH  16  25
ENDBRANCH  15  18
ENDBRANCH   1  15
TORSDOF 6
