REMARK  Name = ZINCkj000005gIrw.0
REMARK                            x       y       z     vdW  Elec       q    Type
REMARK                         _______ _______ _______ _____ _____    ______ ____
ROOT
ATOM      1  C   LIG    1       -1.412  -0.526   0.013  0.00  0.00    -0.170 A 
ATOM      2  C   LIG    1       -2.119  -0.582   1.199  0.00  0.00    +0.060 A 
ATOM      3  C   LIG    1       -3.417  -1.056   1.208  0.00  0.00    +0.030 A 
ATOM      4  C   LIG    1       -4.005  -1.483   0.033  0.00  0.00    +0.160 A 
ATOM      5  C   LIG    1       -3.296  -1.433  -1.153  0.00  0.00    -0.670 A 
ATOM      6  C   LIG    1       -2.000  -0.954  -1.163  0.00  0.00    +0.160 A 
ENDROOT
BRANCH   5   7
ATOM      7  S   LIG    1       -4.045  -1.978  -2.652  0.00  0.00    +2.690 S 
ATOM      8  O   LIG    1       -3.355  -1.323  -3.707  0.00  0.00    -0.940 OA
ATOM      9  O   LIG    1       -5.449  -1.876  -2.459  0.00  0.00    -0.940 OA
BRANCH   7  10
ATOM     10  N   LIG    1       -3.711  -3.593  -2.807  0.00  0.00    -1.000 NA
ATOM     11  C   LIG    1       -2.501  -4.027  -3.509  0.00  0.00    +0.310 C 
ATOM     12  C   LIG    1       -4.627  -4.588  -2.242  0.00  0.00    +0.310 C 
ENDBRANCH   7  10
ENDBRANCH   5   7
BRANCH   1  13
ATOM     13  C   LIG    1        0.002  -0.004   0.002  0.00  0.00    +0.230 C 
ATOM     14  C   LIG    1       -0.019   1.526   0.010  0.00  0.00    +0.100 C 
BRANCH  13  15
ATOM     15  N   LIG    1        0.713  -0.491   1.192  0.00  0.00    -0.510 N 
ATOM     16  H   LIG    1        0.655  -1.497   1.230  0.00  0.00    +0.430 HD
ATOM     17  H   LIG    1        0.290  -0.099   2.020  0.00  0.00    +0.420 HD
BRANCH  15  18
ATOM     18  C   LIG    1        2.122  -0.083   1.122  0.00  0.00    +0.240 C 
BRANCH  18  19
ATOM     19  C   LIG    1        2.862  -0.589   2.361  0.00  0.00    +0.200 C 
BRANCH  19  21
ATOM     20  C   LIG    1        4.999  -0.462   3.649  0.00  0.00    +0.040 C 
ATOM     21  C   LIG    1        4.297  -0.060   2.351  0.00  0.00    +0.010 C 
ENDBRANCH  19  21
BRANCH  19  22
ATOM     22  O   LIG    1        2.881  -2.018   2.354  0.00  0.00    -0.550 OA
ATOM     23  H   LIG    1        3.321  -2.401   1.582  0.00  0.00    +0.390 HD
ENDBRANCH  19  22
ENDBRANCH  18  19
ENDBRANCH  15  18
ENDBRANCH  13  15
ENDBRANCH   1  13
TORSDOF 8
