REMARK  Name = ZINCpe00000MFFi0.0
REMARK                            x       y       z     vdW  Elec       q    Type
REMARK                         _______ _______ _______ _____ _____    ______ ____
ROOT
ATOM      1  N   LIG    1       -4.282  -0.814   0.517  0.00  0.00    -0.700 N 
ATOM      2  H   LIG    1       -3.811  -0.910  -0.325  0.00  0.00    +0.410 HD
ENDROOT
BRANCH   1  11
ATOM      3  C   LIG    1       -0.100   1.364   0.542  0.00  0.00    +0.190 C 
ATOM      4  N   LIG    1       -0.088  -0.103   0.461  0.00  0.00    -0.530 NA
ATOM      5  C   LIG    1        0.600  -0.689   1.623  0.00  0.00    +0.220 C 
ATOM      6  C   LIG    1       -0.019  -0.114   2.898  0.00  0.00    +0.080 C 
ATOM      7  C   LIG    1       -1.518  -0.241   2.842  0.00  0.00    +0.210 A 
ATOM      8  N   LIG    1       -2.221  -0.120   3.962  0.00  0.00    -0.560 NA
ATOM      9  C   LIG    1       -3.535  -0.221   3.955  0.00  0.00    +0.540 A 
ATOM     10  N   LIG    1       -4.208  -0.445   2.844  0.00  0.00    -0.550 NA
ATOM     11  C   LIG    1       -3.573  -0.578   1.684  0.00  0.00    +0.440 A 
ATOM     12  C   LIG    1       -2.179  -0.478   1.659  0.00  0.00    -0.280 A 
ATOM     13  C   LIG    1       -1.451  -0.635   0.354  0.00  0.00    +0.280 C 
ENDBRANCH   1  11
BRANCH   1  14
ATOM     14  C   LIG    1       -5.743  -0.917   0.556  0.00  0.00    +0.290 C 
ATOM     15  C   LIG    1       -6.225  -1.761  -0.626  0.00  0.00    +0.050 C 
ATOM     16  C   LIG    1       -6.034  -0.951  -1.912  0.00  0.00    +0.030 C 
ATOM     17  C   LIG    1       -6.999   0.235  -1.889  0.00  0.00    +0.270 C 
ATOM     18  N   LIG    1       -6.882   0.964  -0.632  0.00  0.00    -0.540 N 
ATOM     19  C   LIG    1       -6.343   0.458   0.478  0.00  0.00    +0.500 C 
ATOM     20  O   LIG    1       -6.336   1.144   1.478  0.00  0.00    -0.500 OA
BRANCH  18  21
ATOM     21  C   LIG    1       -7.364   2.272  -0.587  0.00  0.00    +0.300 A 
ATOM     22  C   LIG    1       -8.627   2.652  -0.251  0.00  0.00    -0.100 A 
ATOM     23  C   LIG    1       -8.690   4.046  -0.333  0.00  0.00    +0.240 A 
ATOM     24  N   LIG    1       -7.515   4.490  -0.701  0.00  0.00    -0.280 NA
ATOM     25  N   LIG    1       -6.659   3.393  -0.863  0.00  0.00    -0.370 N 
ATOM     26  C   LIG    1       -5.251   3.450  -1.263  0.00  0.00    +0.350 C 
ENDBRANCH  18  21
ENDBRANCH   1  14
TORSDOF 3
