REMARK  Name = ZINCpe000000V5T7.0
REMARK                            x       y       z     vdW  Elec       q    Type
REMARK                         _______ _______ _______ _____ _____    ______ ____
ROOT
ATOM      1  C   LIG    1       -1.559   4.655   0.042  0.00  0.00    +0.410 C 
ENDROOT
BRANCH   1   7
ATOM      2  C   LIG    1       -5.063   7.561  -2.053  0.00  0.00    +0.040 C 
ATOM      3  C   LIG    1       -4.501   6.634  -3.132  0.00  0.00    +0.050 C 
ATOM      4  C   LIG    1       -2.979   6.544  -2.980  0.00  0.00    +0.290 C 
ATOM      5  N   LIG    1       -2.664   6.131  -1.606  0.00  0.00    -0.610 N 
ATOM      6  C   LIG    1       -3.235   6.898  -0.490  0.00  0.00    +0.280 C 
ATOM      7  C   LIG    1       -1.872   5.066  -1.373  0.00  0.00    +0.510 C 
ATOM      8  O   LIG    1       -1.412   4.438  -2.303  0.00  0.00    -0.510 OA
ATOM      9  C   LIG    1       -4.749   6.987  -0.669  0.00  0.00    +0.050 C 
BRANCH   2  10
ATOM     10  C   LIG    1       -6.556   7.678  -2.220  0.00  0.00    +0.460 C 
ATOM     11  O   LIG    1       -7.113   7.081  -3.111  0.00  0.00    -0.500 OA
BRANCH  10  13
ATOM     12  C   LIG    1       -8.701   8.512  -1.600  0.00  0.00    +0.250 C 
ATOM     13  O   LIG    1       -7.268   8.446  -1.379  0.00  0.00    -0.360 OA
ENDBRANCH  10  13
ENDBRANCH   2  10
ENDBRANCH   1   7
BRANCH   1  14
ATOM     14  N   LIG    1       -0.686   3.478   0.027  0.00  0.00    -0.130 N 
ATOM     15  N   LIG    1        0.601   3.506   0.015  0.00  0.00    -0.040 NA
ATOM     16  N   LIG    1        1.046   2.296   0.004  0.00  0.00    -0.260 NA
ATOM     17  C   LIG    1       -0.018   1.480   0.010  0.00  0.00    +0.210 A 
ATOM     18  N   LIG    1       -1.086   2.253   0.019  0.00  0.00    -0.290 NA
BRANCH  17  19
ATOM     19  C   LIG    1        0.002  -0.004   0.002  0.00  0.00    +0.020 A 
ATOM     20  C   LIG    1        1.216  -0.686  -0.013  0.00  0.00    +0.050 A 
ATOM     21  C   LIG    1        1.231  -2.067  -0.020  0.00  0.00    +0.050 A 
ATOM     22  C   LIG    1        0.043  -2.774  -0.012  0.00  0.00    +0.010 A 
ATOM     23  C   LIG    1       -1.169  -2.101   0.003  0.00  0.00    +0.100 A 
ATOM     24  F   LIG    1       -2.327  -2.797   0.011  0.00  0.00    -0.130 F 
ATOM     25  C   LIG    1       -1.193  -0.719   0.015  0.00  0.00    +0.020 A 
ENDBRANCH  17  19
ENDBRANCH   1  14
TORSDOF 5
