REMARK  Name = ZINCpk000000otFX.1
REMARK                            x       y       z     vdW  Elec       q    Type
REMARK                         _______ _______ _______ _____ _____    ______ ____
ROOT
ATOM      1  C   LIG    1       -1.671   3.890  -3.874  0.00  0.00    +0.600 C 
ATOM      2  N   LIG    1       -2.634   3.790  -4.812  0.00  0.00    -0.590 N 
ATOM      3  C   LIG    1       -3.487   2.595  -4.885  0.00  0.00    +0.290 C 
ATOM      4  C   LIG    1       -3.434   2.032  -6.304  0.00  0.00    +0.030 C 
ATOM      5  C   LIG    1       -3.805   3.132  -7.301  0.00  0.00    -0.010 C 
ATOM      6  C   LIG    1       -2.798   4.279  -7.197  0.00  0.00    +0.060 C 
ATOM      7  C   LIG    1       -2.847   4.870  -5.785  0.00  0.00    +0.290 C 
ATOM      8  O   LIG    1       -1.420   2.941  -3.158  0.00  0.00    -0.510 OA
ENDROOT
BRANCH   1  11
ATOM      9  C   LIG    1        0.539   6.667  -3.060  0.00  0.00    +0.110 A 
ATOM     10  C   LIG    1        0.192   5.372  -2.873  0.00  0.00    -0.100 A 
ATOM     11  C   LIG    1       -0.922   5.153  -3.717  0.00  0.00    +0.050 A 
ATOM     12  N   LIG    1       -1.164   6.291  -4.338  0.00  0.00    -0.230 NA
ATOM     13  N   LIG    1       -0.323   7.186  -3.961  0.00  0.00    -0.360 N 
ATOM     14  H   LIG    1       -0.307   8.102  -4.279  0.00  0.00    +0.460 HD
BRANCH  10  15
ATOM     15  N   LIG    1        0.840   4.392  -1.972  0.00  0.00    +0.060 N 
ATOM     16  O   LIG    1        1.755   3.701  -2.382  0.00  0.00    -0.120 OA
ATOM     17  O   LIG    1        0.457   4.276  -0.822  0.00  0.00    -0.120 OA
ENDBRANCH  10  15
BRANCH   9  18
ATOM     18  C   LIG    1        1.673   7.395  -2.385  0.00  0.00    +0.130 C 
BRANCH  18  20
ATOM     19  C   LIG    1        4.122   7.884  -2.472  0.00  0.00    +0.030 C 
ATOM     20  C   LIG    1        2.971   7.145  -3.157  0.00  0.00    +0.030 C 
ENDBRANCH  18  20
ENDBRANCH   9  18
ENDBRANCH   1  11
BRANCH   5  21
ATOM     21  C   LIG    1       -3.784   2.570  -8.699  0.00  0.00    +0.520 C 
ATOM     22  N   LIG    1       -4.595   1.544  -9.026  0.00  0.00    -0.700 N 
ATOM     23  H   LIG    1       -5.193   1.168  -8.361  0.00  0.00    +0.400 HD
ATOM     24  O   LIG    1       -3.036   3.040  -9.530  0.00  0.00    -0.530 OA
BRANCH  22  25
ATOM     25  C   LIG    1       -4.574   0.998 -10.385  0.00  0.00    +0.220 C 
ATOM     26  C   LIG    1       -5.920   0.691 -11.044  0.00  0.00    +0.010 C 
ATOM     27  C   LIG    1       -5.021  -0.453 -10.570  0.00  0.00    +0.010 C 
ENDBRANCH  22  25
ENDBRANCH   5  21
TORSDOF 6
