REMARK  Name = ZINCpk000000otFX.0
REMARK                            x       y       z     vdW  Elec       q    Type
REMARK                         _______ _______ _______ _____ _____    ______ ____
ROOT
ATOM      1  C   LIG    1        2.765   2.251  -2.036  0.00  0.00    +0.580 C 
ATOM      2  N   LIG    1        1.581   1.709  -1.688  0.00  0.00    -0.600 N 
ATOM      3  C   LIG    1        0.830   2.226  -0.536  0.00  0.00    +0.300 C 
ATOM      4  C   LIG    1       -0.592   2.573  -0.990  0.00  0.00    +0.050 C 
ATOM      5  C   LIG    1       -1.224   1.347  -1.653  0.00  0.00    +0.000 C 
ATOM      6  C   LIG    1       -0.406   0.953  -2.886  0.00  0.00    +0.040 C 
ATOM      7  C   LIG    1        1.017   0.588  -2.454  0.00  0.00    +0.260 C 
ATOM      8  O   LIG    1        3.173   3.241  -1.460  0.00  0.00    -0.490 OA
ENDROOT
BRANCH   1  13
ATOM      9  C   LIG    1        4.898   1.310  -4.845  0.00  0.00    +0.100 A 
ATOM     10  N   LIG    1        4.460   0.157  -4.408  0.00  0.00    -0.240 NA
ATOM     11  N   LIG    1        3.680   0.315  -3.400  0.00  0.00    -0.350 N 
ATOM     12  H   LIG    1        3.241  -0.401  -2.915  0.00  0.00    +0.460 HD
ATOM     13  C   LIG    1        3.563   1.646  -3.114  0.00  0.00    +0.040 A 
ATOM     14  C   LIG    1        4.342   2.311  -4.045  0.00  0.00    -0.080 A 
BRANCH  14  15
ATOM     15  N   LIG    1        4.545   3.772  -4.165  0.00  0.00    +0.050 N 
ATOM     16  O   LIG    1        3.800   4.435  -4.863  0.00  0.00    -0.130 OA
ATOM     17  O   LIG    1        5.458   4.311  -3.566  0.00  0.00    -0.110 OA
ENDBRANCH  14  15
BRANCH   9  18
ATOM     18  C   LIG    1        5.831   1.521  -6.010  0.00  0.00    +0.140 C 
BRANCH  18  20
ATOM     19  C   LIG    1        5.963   1.898  -8.476  0.00  0.00    +0.030 C 
ATOM     20  C   LIG    1        5.015   1.684  -7.294  0.00  0.00    +0.020 C 
ENDBRANCH  18  20
ENDBRANCH   9  18
ENDBRANCH   1  13
BRANCH   5  21
ATOM     21  C   LIG    1       -2.635   1.674  -2.070  0.00  0.00    +0.520 C 
ATOM     22  N   LIG    1       -3.391   0.740  -2.679  0.00  0.00    -0.700 N 
ATOM     23  H   LIG    1       -3.027  -0.144  -2.849  0.00  0.00    +0.400 HD
ATOM     24  O   LIG    1       -3.090   2.778  -1.858  0.00  0.00    -0.530 OA
BRANCH  22  25
ATOM     25  C   LIG    1       -4.763   1.057  -3.084  0.00  0.00    +0.220 C 
ATOM     26  C   LIG    1       -5.843   0.011  -2.802  0.00  0.00    +0.010 C 
ATOM     27  C   LIG    1       -5.364   0.249  -4.236  0.00  0.00    +0.020 C 
ENDBRANCH  22  25
ENDBRANCH   5  21
TORSDOF 6
