REMARK  Name = ZINCrD00000hQ6d8.0
REMARK                            x       y       z     vdW  Elec       q    Type
REMARK                         _______ _______ _______ _____ _____    ______ ____
ROOT
ATOM      1  N   LIG    1        2.802   3.597   0.108  0.00  0.00    -0.380 N 
ATOM      2  C   LIG    1        3.463   2.406  -0.009  0.00  0.00    +0.020 A 
ATOM      3  C   LIG    1        2.567   1.407  -0.064  0.00  0.00    -0.010 A 
ATOM      4  C   LIG    1        1.240   2.033   0.026  0.00  0.00    -0.210 A 
ATOM      5  C   LIG    1        4.960   2.240  -0.067  0.00  0.00    +0.130 C 
ATOM      6  C   LIG    1        1.470   3.395   0.126  0.00  0.00    +0.110 A 
ATOM      7  C   LIG    1        0.414   4.465   0.237  0.00  0.00    +0.150 C 
ENDROOT
BRANCH   1  11
ATOM      8  C   LIG    1        4.648   7.329   0.361  0.00  0.00    +0.150 A 
ATOM      9  C   LIG    1        4.764   6.575  -0.797  0.00  0.00    +0.000 A 
ATOM     10  C   LIG    1        4.154   5.340  -0.882  0.00  0.00    +0.080 A 
ATOM     11  C   LIG    1        3.423   4.852   0.194  0.00  0.00    +0.060 A 
ATOM     12  C   LIG    1        3.302   5.610   1.351  0.00  0.00    +0.070 A 
ATOM     13  C   LIG    1        3.918   6.842   1.436  0.00  0.00    -0.060 A 
BRANCH   8  15
ATOM     14  C   LIG    1        5.087   9.268   1.666  0.00  0.00    +0.250 C 
ATOM     15  O   LIG    1        5.249   8.546   0.444  0.00  0.00    -0.310 OA
ENDBRANCH   8  15
ENDBRANCH   1  11
BRANCH   4  16
ATOM     16  C   LIG    1       -0.017   1.377   0.010  0.00  0.00    +0.300 C 
ATOM     17  C   LIG    1       -0.111   0.076  -0.444  0.00  0.00    -0.180 C 
BRANCH  17  18
ATOM     18  C   LIG    1       -1.380  -0.655  -0.322  0.00  0.00    +0.580 C 
ATOM     19  N   LIG    1       -1.472  -1.924  -0.765  0.00  0.00    -0.640 N 
ATOM     20  H   LIG    1       -0.700  -2.356  -1.163  0.00  0.00    +0.410 HD
ATOM     21  O   LIG    1       -2.348  -0.113   0.178  0.00  0.00    -0.530 OA
BRANCH  19  22
ATOM     22  C   LIG    1       -2.687  -2.624  -0.648  0.00  0.00    +0.000 A 
ATOM     23  C   LIG    1       -2.917  -3.900  -1.051  0.00  0.00    +0.200 A 
ATOM     24  N   LIG    1       -4.211  -4.195  -0.760  0.00  0.00    -0.470 N 
ATOM     25  H   LIG    1       -4.657  -5.038  -0.934  0.00  0.00    +0.440 HD
ATOM     26  N   LIG    1       -4.786  -3.065  -0.163  0.00  0.00    -0.280 NA
ATOM     27  C   LIG    1       -3.875  -2.129  -0.091  0.00  0.00    +0.270 A 
ENDBRANCH  19  22
ENDBRANCH  17  18
BRANCH  17  28
ATOM     28  C   LIG    1        1.029  -0.561  -1.032  0.00  0.00    +0.260 C 
ATOM     29  N   LIG    1        1.932  -1.067  -1.499  0.00  0.00    -0.430 NA
ENDBRANCH  17  28
ENDBRANCH   4  16
TORSDOF 6
