REMARK  Name = ZINCnE00000enPlF.0
REMARK                            x       y       z     vdW  Elec       q    Type
REMARK                         _______ _______ _______ _____ _____    ______ ____
ROOT
ATOM      1  N   LIG    1        2.673   3.993   0.719  0.00  0.00    -0.510 N 
ATOM      2  C   LIG    1        3.619   4.459  -0.319  0.00  0.00    +0.190 C 
ATOM      3  C   LIG    1        3.595   3.600  -1.596  0.00  0.00    +0.010 C 
ATOM      4  C   LIG    1        3.525   2.124  -1.309  0.00  0.00    +0.020 C 
ATOM      5  C   LIG    1        2.042   1.691  -1.273  0.00  0.00    +0.020 C 
ATOM      6  C   LIG    1        1.399   2.075  -0.022  0.00  0.00    +0.000 C 
ATOM      7  C   LIG    1        1.387   3.600   0.196  0.00  0.00    +0.190 C 
ENDROOT
BRANCH   1  15
ATOM      8  C   LIG    1       -0.196   9.821   0.998  0.00  0.00    +0.130 C 
ATOM      9  C   LIG    1        0.529   8.512   1.176  0.00  0.00    +0.180 A 
ATOM     10  N   LIG    1        1.065   8.233   2.340  0.00  0.00    -0.470 NA
ATOM     11  C   LIG    1        1.720   7.085   2.549  0.00  0.00    +0.320 A 
ATOM     12  N   LIG    1        2.261   6.813   3.741  0.00  0.00    -0.480 NA
ATOM     13  C   LIG    1        2.907   5.692   3.967  0.00  0.00    +0.340 A 
ATOM     14  C   LIG    1        3.063   4.724   2.987  0.00  0.00    -0.020 A 
ATOM     15  C   LIG    1        2.533   4.938   1.723  0.00  0.00    +0.180 A 
ATOM     16  C   LIG    1        1.839   6.149   1.494  0.00  0.00    -0.190 A 
ATOM     17  C   LIG    1        1.268   6.441   0.246  0.00  0.00    +0.090 A 
ATOM     18  C   LIG    1        0.613   7.634   0.100  0.00  0.00    -0.040 A 
ENDBRANCH   1  15
BRANCH   6  19
ATOM     19  C   LIG    1       -0.044   1.567  -0.032  0.00  0.00    +0.030 C 
BRANCH  19  20
ATOM     20  C   LIG    1       -0.046   0.037  -0.043  0.00  0.00    -0.070 C 
BRANCH  20  21
ATOM     21  C   LIG    1       -1.467  -0.464  -0.053  0.00  0.00    +0.490 C 
ATOM     22  O   LIG    1       -1.691  -1.663  -0.063  0.00  0.00    -0.710 OA
ATOM     23  O   LIG    1       -2.393   0.329  -0.051  0.00  0.00    -0.700 OA
ENDBRANCH  20  21
ENDBRANCH  19  20
ENDBRANCH   6  19
TORSDOF 4
