REMARK  Name = ZINCrg000000mWTT.0
REMARK                            x       y       z     vdW  Elec       q    Type
REMARK                         _______ _______ _______ _____ _____    ______ ____
ROOT
ATOM      1  N   LIG    1       -3.420   0.912   1.644  0.00  0.00    -1.000 NA
ATOM      2  C   LIG    1       -2.557  -0.185   2.105  0.00  0.00    +0.300 C 
ATOM      3  C   LIG    1       -1.861   0.253   3.403  0.00  0.00    +0.030 C 
ATOM      4  C   LIG    1       -2.919   0.690   4.419  0.00  0.00    +0.000 C 
ATOM      5  C   LIG    1       -3.699   1.884   3.864  0.00  0.00    +0.040 C 
ATOM      6  C   LIG    1       -4.412   1.468   2.574  0.00  0.00    +0.300 C 
ENDROOT
BRANCH   4   7
ATOM      7  C   LIG    1       -2.244   1.085   5.707  0.00  0.00    +0.520 C 
ATOM      8  N   LIG    1       -1.938   0.146   6.623  0.00  0.00    -0.620 N 
ATOM      9  C   LIG    1       -1.373   0.520   7.929  0.00  0.00    +0.300 C 
ATOM     10  C   LIG    1       -2.206  -0.160   9.027  0.00  0.00    +0.170 C 
ATOM     11  N   LIG    1       -2.263  -1.604   8.767  0.00  0.00    -0.540 NA
ATOM     12  C   LIG    1       -2.950  -1.891   7.501  0.00  0.00    +0.170 C 
ATOM     13  C   LIG    1       -2.900  -2.315   9.884  0.00  0.00    +0.190 C 
ATOM     14  C   LIG    1       -2.153  -1.282   6.342  0.00  0.00    +0.280 C 
ATOM     15  O   LIG    1       -1.977   2.249   5.919  0.00  0.00    -0.540 OA
ENDBRANCH   4   7
BRANCH   1  16
ATOM     16  S   LIG    1       -3.281   1.504   0.104  0.00  0.00    +2.690 S 
ATOM     17  O   LIG    1       -2.695   0.469  -0.673  0.00  0.00    -0.950 OA
ATOM     18  O   LIG    1       -4.532   2.099  -0.212  0.00  0.00    -0.950 OA
BRANCH  16  23
ATOM     19  C   LIG    1       -1.589   5.146   0.431  0.00  0.00    -0.190 A 
ATOM     20  C   LIG    1       -0.235   4.867   0.221  0.00  0.00    +0.120 A 
ATOM     21  C   LIG    1        0.169   3.570  -0.017  0.00  0.00    -0.010 A 
ATOM     22  C   LIG    1       -0.762   2.546  -0.049  0.00  0.00    +0.160 A 
ATOM     23  C   LIG    1       -2.105   2.815   0.153  0.00  0.00    -0.690 A 
ATOM     24  C   LIG    1       -2.524   4.106   0.398  0.00  0.00    +0.190 A 
BRANCH  19  26
ATOM     25  C   LIG    1       -1.019   7.645   0.719  0.00  0.00    +0.080 C 
ATOM     26  C   LIG    1       -2.029   6.527   0.685  0.00  0.00    +0.390 C 
ATOM     27  O   LIG    1       -3.204   6.766   0.867  0.00  0.00    -0.450 OA
ENDBRANCH  19  26
ENDBRANCH  16  23
ENDBRANCH   1  16
TORSDOF 4
