REMARK  Name = ZINCqH0000036Nra.0
REMARK                            x       y       z     vdW  Elec       q    Type
REMARK                         _______ _______ _______ _____ _____    ______ ____
ROOT
ATOM      1  N   LIG    1       -2.599   9.427  -1.246  0.00  0.00    -0.620 N 
ATOM      2  C   LIG    1       -2.700   8.287  -0.327  0.00  0.00    +0.300 C 
ATOM      3  C   LIG    1       -1.256   7.761  -0.164  0.00  0.00    +0.010 C 
ATOM      4  C   LIG    1       -0.599   8.229  -1.483  0.00  0.00    +0.070 C 
ATOM      5  C   LIG    1       -1.432   9.417  -1.912  0.00  0.00    +0.520 C 
ATOM      6  O   LIG    1       -1.095  10.240  -2.736  0.00  0.00    -0.510 OA
ENDROOT
BRANCH   3   7
ATOM      7  C   LIG    1       -1.238   6.258  -0.056  0.00  0.00    +0.530 C 
ATOM      8  N   LIG    1       -0.064   5.603   0.030  0.00  0.00    -0.670 N 
ATOM      9  H   LIG    1        0.766   6.101   0.088  0.00  0.00    +0.420 HD
ATOM     10  O   LIG    1       -2.281   5.639  -0.046  0.00  0.00    -0.500 OA
BRANCH   8  11
ATOM     11  C   LIG    1       -0.042   4.208   0.035  0.00  0.00    +0.190 A 
ATOM     12  C   LIG    1       -1.064   3.500   0.660  0.00  0.00    +0.040 A 
ATOM     13  C   LIG    1       -1.050   2.123   0.662  0.00  0.00    +0.110 A 
ATOM     14  C   LIG    1       -0.002   1.436   0.045  0.00  0.00    -0.030 A 
ATOM     15  C   LIG    1        1.025   2.150  -0.582  0.00  0.00    +0.020 A 
ATOM     16 CL   LIG    1        2.327   1.302  -1.357  0.00  0.00    -0.040 Cl
ATOM     17  C   LIG    1        1.001   3.528  -0.585  0.00  0.00    +0.010 A 
BRANCH  14  18
ATOM     18  C   LIG    1        0.019   0.004   0.050  0.00  0.00    +0.250 C 
ATOM     19  N   LIG    1        0.036  -1.132   0.054  0.00  0.00    -0.390 NA
ENDBRANCH  14  18
ENDBRANCH   8  11
ENDBRANCH   3   7
BRANCH   1  21
ATOM     20  C   LIG    1       -3.037  11.832  -1.174  0.00  0.00    +0.040 C 
ATOM     21  C   LIG    1       -3.638  10.446  -1.415  0.00  0.00    +0.300 C 
BRANCH  21  22
ATOM     22  C   LIG    1       -4.189  10.374  -2.816  0.00  0.00    -0.100 A 
ATOM     23  C   LIG    1       -4.676  11.515  -3.426  0.00  0.00    +0.020 A 
ATOM     24  C   LIG    1       -5.178  11.450  -4.713  0.00  0.00    +0.000 A 
ATOM     25  C   LIG    1       -5.200  10.243  -5.386  0.00  0.00    +0.000 A 
ATOM     26  C   LIG    1       -4.717   9.101  -4.774  0.00  0.00    +0.000 A 
ATOM     27  C   LIG    1       -4.212   9.167  -3.489  0.00  0.00    +0.020 A 
ENDBRANCH  21  22
ENDBRANCH   1  21
TORSDOF 5
