REMARK  Name = ZINCpk000000oMvY.0
REMARK                            x       y       z     vdW  Elec       q    Type
REMARK                         _______ _______ _______ _____ _____    ______ ____
ROOT
ATOM      1  C   LIG    1       -1.190  -0.772   0.010  0.00  0.00    +0.490 A 
ATOM      2  N   LIG    1       -1.087  -2.092   0.002  0.00  0.00    -0.580 NA
ATOM      3  C   LIG    1        0.100  -2.696  -0.012  0.00  0.00    +0.340 A 
ATOM      4  N   LIG    1        1.239  -2.030  -0.020  0.00  0.00    -0.570 NA
ATOM      5  C   LIG    1        1.242  -0.688  -0.013  0.00  0.00    +0.200 A 
ATOM      6  C   LIG    1        2.433   0.050  -0.021  0.00  0.00    +0.020 A 
ATOM      7  C   LIG    1        2.380   1.413  -0.013  0.00  0.00    +0.060 A 
ATOM      8  C   LIG    1        1.161   2.083   0.002  0.00  0.00    -0.010 A 
ATOM      9  C   LIG    1       -0.017   1.394   0.010  0.00  0.00    +0.070 A 
ATOM     10  C   LIG    1        0.002  -0.004   0.002  0.00  0.00    -0.200 A 
ENDROOT
BRANCH   1  11
ATOM     11  N   LIG    1       -2.425  -0.160   0.024  0.00  0.00    -0.690 N 
ATOM     12  H   LIG    1       -2.486   0.808   0.029  0.00  0.00    +0.410 HD
BRANCH  11  14
ATOM     13  C   LIG    1       -4.868  -0.053   0.048  0.00  0.00    +0.030 C 
ATOM     14  C   LIG    1       -3.644  -0.972   0.032  0.00  0.00    +0.260 C 
ENDBRANCH  11  14
ENDBRANCH   1  11
BRANCH   3  15
ATOM     15  S   LIG    1        0.151  -4.457  -0.022  0.00  0.00    +0.090 S 
BRANCH  15  16
ATOM     16  C   LIG    1        1.942  -4.719  -0.040  0.00  0.00    +0.110 C 
BRANCH  16  17
ATOM     17  C   LIG    1        2.233  -6.198  -0.051  0.00  0.00    +0.530 C 
ATOM     18  N   LIG    1        3.509  -6.633  -0.065  0.00  0.00    -0.710 N 
ATOM     19  H   LIG    1        4.239  -5.995  -0.069  0.00  0.00    +0.410 HD
ATOM     20  O   LIG    1        1.320  -6.996  -0.046  0.00  0.00    -0.510 OA
BRANCH  18  21
ATOM     21  C   LIG    1        3.792  -8.070  -0.075  0.00  0.00    +0.270 C 
ATOM     22  C   LIG    1        5.173  -8.331  -0.701  0.00  0.00    +0.070 C 
ATOM     23  C   LIG    1        5.589  -9.784  -0.393  0.00  0.00    -0.300 C 
ATOM     24  S   LIG    1        4.744 -10.199   1.175  0.00  0.00    +2.400 S 
ATOM     25  O   LIG    1        5.710 -10.332   2.209  0.00  0.00    -0.930 OA
ATOM     26  O   LIG    1        3.805 -11.239   0.944  0.00  0.00    -0.930 OA
ATOM     27  C   LIG    1        3.854  -8.610   1.378  0.00  0.00    -0.320 C 
ENDBRANCH  18  21
ENDBRANCH  16  17
ENDBRANCH  15  16
ENDBRANCH   3  15
TORSDOF 6
