REMARK  Name = ZINCkj00000GeSZz.1
REMARK                            x       y       z     vdW  Elec       q    Type
REMARK                         _______ _______ _______ _____ _____    ______ ____
ROOT
ATOM      1  N   LIG    1       -2.019   1.490  -3.397  0.00  0.00    -0.390 N 
ATOM      2  C   LIG    1       -0.827   2.344  -3.311  0.00  0.00    +0.260 C 
ATOM      3  C   LIG    1        0.069   1.855  -2.171  0.00  0.00    +0.200 C 
ATOM      4  N   LIG    1       -0.680   1.901  -0.908  0.00  0.00    -0.530 NA
ATOM      5  C   LIG    1       -1.889   1.070  -0.988  0.00  0.00    +0.210 C 
ATOM      6  C   LIG    1       -2.770   1.566  -2.137  0.00  0.00    +0.280 C 
ATOM      7  H   LIG    1       -1.738   0.536  -3.564  0.00  0.00    +0.430 HD
ENDROOT
BRANCH   1   8
ATOM      8  C   LIG    1       -2.871   1.950  -4.502  0.00  0.00    +0.280 C 
BRANCH   8   9
ATOM      9  C   LIG    1       -2.144   1.733  -5.831  0.00  0.00    +0.200 C 
BRANCH   9  10
ATOM     10  O   LIG    1       -1.945   0.333  -6.042  0.00  0.00    -0.400 OA
BRANCH  10  12
ATOM     11  C   LIG    1        0.239  -0.015  -7.016  0.00  0.00    +0.020 C 
ATOM     12  C   LIG    1       -1.271   0.019  -7.262  0.00  0.00    +0.160 C 
ATOM     13  C   LIG    1       -1.736  -1.348  -7.765  0.00  0.00    +0.060 C 
ENDBRANCH  10  12
ENDBRANCH   9  10
ENDBRANCH   8   9
ENDBRANCH   1   8
BRANCH   4  14
ATOM     14  C   LIG    1        0.166   1.491   0.221  0.00  0.00    +0.180 C 
BRANCH  14  15
ATOM     15  C   LIG    1        1.135   2.623   0.569  0.00  0.00    +0.330 C 
BRANCH  15  16
ATOM     16  C   LIG    1        2.082   2.160   1.647  0.00  0.00    -0.070 A 
ATOM     17  C   LIG    1        3.343   1.734   1.457  0.00  0.00    -0.040 A 
ATOM     18  C   LIG    1        3.859   1.402   2.730  0.00  0.00    -0.070 A 
ATOM     19  C   LIG    1        2.882   1.644   3.623  0.00  0.00    +0.190 A 
ATOM     20  O   LIG    1        1.810   2.109   2.961  0.00  0.00    -0.170 OA
ENDBRANCH  15  16
BRANCH  15  21
ATOM     21  O   LIG    1        0.398   3.755   1.035  0.00  0.00    -0.540 OA
ATOM     22  H   LIG    1       -0.132   3.580   1.825  0.00  0.00    +0.380 HD
ENDBRANCH  15  21
ENDBRANCH  14  15
ENDBRANCH   4  14
TORSDOF 8
