REMARK  Name = ZINCqH0000033Q68.1
REMARK                            x       y       z     vdW  Elec       q    Type
REMARK                         _______ _______ _______ _____ _____    ______ ____
ROOT
ATOM      1  C   LIG    1       -0.664  -0.465  -0.055  0.00  0.00    +0.000 C 
ATOM      2  C   LIG    1        0.777  -0.934   0.156  0.00  0.00    +0.060 C 
ATOM      3  C   LIG    1        1.376  -1.367  -1.184  0.00  0.00    +0.030 C 
ATOM      4  C   LIG    1        1.392  -0.171  -2.142  0.00  0.00    +0.270 C 
ATOM      5  N   LIG    1        0.032   0.377  -2.237  0.00  0.00    -0.600 N 
ATOM      6  C   LIG    1       -0.559   0.542  -3.437  0.00  0.00    +0.570 C 
ATOM      7  O   LIG    1       -1.714   0.914  -3.499  0.00  0.00    -0.530 OA
ATOM      8  C   LIG    1       -0.671   0.741  -1.000  0.00  0.00    +0.300 C 
ENDROOT
BRANCH   6   9
ATOM      9  C   LIG    1        0.198   0.271  -4.677  0.00  0.00    -0.130 A 
ATOM     10  C   LIG    1        1.544   0.630  -4.769  0.00  0.00    +0.060 A 
ATOM     11  C   LIG    1        2.247   0.368  -5.927  0.00  0.00    +0.020 A 
ATOM     12  C   LIG    1        1.617  -0.237  -7.001  0.00  0.00    -0.010 A 
ATOM     13  C   LIG    1        0.280  -0.590  -6.918  0.00  0.00    +0.030 A 
ATOM     14 CL   LIG    1        2.506  -0.556  -8.458  0.00  0.00    -0.060 Cl
ATOM     15  C   LIG    1       -0.431  -0.340  -5.763  0.00  0.00    +0.090 A 
ENDBRANCH   6   9
BRANCH   1  18
ATOM     16  N   LIG    1       -2.533   0.379   1.328  0.00  0.00    -0.630 N 
ATOM     17  H   LIG    1       -3.061   0.448   0.517  0.00  0.00    +0.430 HD
ATOM     18  C   LIG    1       -1.264  -0.071   1.270  0.00  0.00    +0.520 C 
ATOM     19  O   LIG    1       -0.604  -0.157   2.284  0.00  0.00    -0.460 OA
BRANCH  16  23
ATOM     20  C   LIG    1       -4.369   1.467   4.538  0.00  0.00    -0.020 A 
ATOM     21  N   LIG    1       -3.144   1.068   4.720  0.00  0.00    -0.240 NA
ATOM     22  N   LIG    1       -2.492   0.699   3.706  0.00  0.00    -0.250 NA
ATOM     23  C   LIG    1       -3.088   0.743   2.552  0.00  0.00    +0.250 A 
ATOM     24  S   LIG    1       -4.722   1.355   2.813  0.00  0.00    +0.130 S 
BRANCH  20  25
ATOM     25  S   LIG    1       -5.475   2.026   5.791  0.00  0.00    +0.020 S 
BRANCH  25  27
ATOM     26  C   LIG    1       -5.313   2.352   8.502  0.00  0.00    +0.080 C 
ATOM     27  C   LIG    1       -4.481   1.894   7.302  0.00  0.00    +0.090 C 
ENDBRANCH  25  27
ENDBRANCH  20  25
ENDBRANCH  16  23
ENDBRANCH   1  18
TORSDOF 5
