REMARK  Name = ZINCtV000002vVae.0
REMARK                            x       y       z     vdW  Elec       q    Type
REMARK                         _______ _______ _______ _____ _____    ______ ____
ROOT
ATOM      1  C   LIG    1       -0.086  -0.004  -0.039  0.00  0.00    +0.290 C 
ENDROOT
BRANCH   1   2
ATOM      2  C   LIG    1       -0.083   1.503  -0.019  0.00  0.00    -0.090 A 
ATOM      3  C   LIG    1       -1.278   2.196  -0.067  0.00  0.00    +0.040 A 
ATOM      4  C   LIG    1       -1.279   3.577  -0.045  0.00  0.00    +0.000 A 
ATOM      5  C   LIG    1       -0.077   4.269   0.014  0.00  0.00    +0.090 A 
ATOM      6  C   LIG    1        1.121   3.571   0.057  0.00  0.00    +0.020 A 
ATOM      7  C   LIG    1        1.115   2.190   0.040  0.00  0.00    +0.040 A 
BRANCH   5   8
ATOM      8  O   LIG    1       -0.074   5.628   0.031  0.00  0.00    -0.260 OA
BRANCH   8   9
ATOM      9  C   LIG    1       -0.580   6.253   1.127  0.00  0.00    +0.120 A 
ATOM     10  C   LIG    1       -0.967   5.512   2.234  0.00  0.00    -0.060 A 
ATOM     11  C   LIG    1       -1.476   6.150   3.348  0.00  0.00    +0.050 A 
ATOM     12  C   LIG    1       -1.610   7.527   3.356  0.00  0.00    -0.020 A 
ATOM     13  C   LIG    1       -1.230   8.267   2.252  0.00  0.00    +0.050 A 
ATOM     14  C   LIG    1       -0.715   7.634   1.138  0.00  0.00    -0.010 A 
ENDBRANCH   8   9
ENDBRANCH   5   8
ENDBRANCH   1   2
BRANCH   1  15
ATOM     15  N   LIG    1       -1.182  -0.501   0.797  0.00  0.00    -0.730 N 
ATOM     16  H   LIG    1       -1.961   0.055   0.957  0.00  0.00    +0.400 HD
BRANCH  15  17
ATOM     17  C   LIG    1       -1.104  -1.785   1.369  0.00  0.00    +0.090 A 
ATOM     18  C   LIG    1       -2.042  -2.365   2.159  0.00  0.00    +0.140 A 
ATOM     19  N   LIG    1       -1.583  -3.602   2.501  0.00  0.00    -0.330 N 
ATOM     20  N   LIG    1       -0.330  -3.775   1.899  0.00  0.00    -0.260 NA
ATOM     21  C   LIG    1       -0.046  -2.694   1.219  0.00  0.00    +0.220 A 
BRANCH  19  22
ATOM     22  C   LIG    1       -2.245  -4.533   3.308  0.00  0.00    +0.220 A 
ATOM     23  C   LIG    1       -3.493  -4.244   3.857  0.00  0.00    -0.060 A 
ATOM     24  C   LIG    1       -4.115  -5.191   4.644  0.00  0.00    +0.300 A 
ATOM     25  N   LIG    1       -3.539  -6.353   4.886  0.00  0.00    -0.500 NA
ATOM     26  C   LIG    1       -2.357  -6.663   4.388  0.00  0.00    +0.300 A 
ATOM     27  C   LIG    1       -1.672  -5.772   3.587  0.00  0.00    -0.030 A 
ENDBRANCH  19  22
ENDBRANCH  15  17
ENDBRANCH   1  15
BRANCH   1  28
ATOM     28  C   LIG    1       -0.278  -0.496  -1.475  0.00  0.00    +0.010 C 
BRANCH  28  30
ATOM     29  C   LIG    1       -0.348  -2.512  -2.949  0.00  0.00    +0.000 C 
ATOM     30  C   LIG    1       -0.156  -2.020  -1.513  0.00  0.00    +0.000 C 
ENDBRANCH  28  30
ENDBRANCH   1  28
TORSDOF 8
