REMARK  Name = ZINCrH000004t3GZ.0
REMARK                            x       y       z     vdW  Elec       q    Type
REMARK                         _______ _______ _______ _____ _____    ______ ____
ROOT
ATOM      1  C   LIG    1        1.588   3.080   0.258  0.00  0.00    -0.240 A 
ATOM      2  C   LIG    1        1.334   1.816  -0.233  0.00  0.00    +0.180 A 
ATOM      3  N   LIG    1        2.521   1.202  -0.395  0.00  0.00    -0.320 N 
ATOM      4  N   LIG    1        3.534   2.088  -0.011  0.00  0.00    -0.300 NA
ATOM      5  C   LIG    1        2.989   3.207   0.382  0.00  0.00    +0.310 A 
ENDROOT
BRANCH   3   6
ATOM      6  C   LIG    1        2.711  -0.103  -0.871  0.00  0.00    +0.150 A 
ATOM      7  C   LIG    1        1.881  -1.128  -0.439  0.00  0.00    +0.050 A 
ATOM      8  C   LIG    1        2.067  -2.412  -0.913  0.00  0.00    +0.050 A 
ATOM      9  C   LIG    1        3.085  -2.678  -1.810  0.00  0.00    +0.070 A 
ATOM     10  C   LIG    1        3.917  -1.660  -2.239  0.00  0.00    -0.170 A 
ATOM     11  C   LIG    1        3.732  -0.373  -1.772  0.00  0.00    +0.090 A 
BRANCH  10  12
ATOM     12  C   LIG    1        5.025  -1.954  -3.216  0.00  0.00    +0.510 C 
ATOM     13  F   LIG    1        5.267  -0.822  -4.002  0.00  0.00    -0.170 F 
ATOM     14  F   LIG    1        4.650  -3.021  -4.040  0.00  0.00    -0.170 F 
ATOM     15  F   LIG    1        6.188  -2.292  -2.515  0.00  0.00    -0.170 F 
ENDBRANCH  10  12
ENDBRANCH   3   6
BRANCH   2  16
ATOM     16  C   LIG    1       -0.022   1.229  -0.527  0.00  0.00    +0.020 C 
ATOM     17  C   LIG    1       -0.984   2.063  -1.377  0.00  0.00    +0.090 C 
ATOM     18  C   LIG    1       -0.316   0.821  -1.972  0.00  0.00    +0.010 C 
ENDBRANCH   2  16
BRANCH   1  19
ATOM     19  C   LIG    1        0.581   4.108   0.594  0.00  0.00    +0.580 C 
ATOM     20  O   LIG    1       -0.607   3.839   0.539  0.00  0.00    -0.560 OA
BRANCH  19  26
ATOM     21  C   LIG    1       -1.118   9.563   2.287  0.00  0.00    +0.370 C 
ATOM     22  N   LIG    1       -0.916   8.175   1.862  0.00  0.00    -0.390 N 
ATOM     23  C   LIG    1       -1.901   7.266   1.609  0.00  0.00    +0.350 A 
ATOM     24  C   LIG    1       -1.335   6.097   1.242  0.00  0.00    -0.110 A 
ATOM     25  C   LIG    1        0.067   6.261   1.259  0.00  0.00    +0.490 A 
ATOM     26  N   LIG    1        0.973   5.335   0.957  0.00  0.00    -0.670 NA
ATOM     27  N   LIG    1        0.322   7.553   1.651  0.00  0.00    -0.480 N 
ATOM     28  H   LIG    1        1.196   7.960   1.759  0.00  0.00    +0.450 HD
ENDBRANCH  19  26
ENDBRANCH   1  19
TORSDOF 5
