REMARK  Name = ZINCpe000000Y1O1.0
REMARK                            x       y       z     vdW  Elec       q    Type
REMARK                         _______ _______ _______ _____ _____    ______ ____
ROOT
ATOM      1  C   LIG    1       -0.237   1.812  -2.348  0.00  0.00    +0.540 C 
ATOM      2  N   LIG    1       -0.788   1.605  -1.135  0.00  0.00    -0.600 N 
ATOM      3  C   LIG    1       -0.013   1.086   0.008  0.00  0.00    +0.370 C 
ATOM      4  S   LIG    1       -0.952   1.718   1.459  0.00  0.00    -0.250 S 
ATOM      5  C   LIG    1       -2.588   1.591   0.607  0.00  0.00    +0.170 C 
ATOM      6  C   LIG    1       -2.190   1.879  -0.858  0.00  0.00    +0.230 C 
ATOM      7  O   LIG    1       -0.916   2.241  -3.257  0.00  0.00    -0.510 OA
ENDROOT
BRANCH   6   8
ATOM      8  C   LIG    1       -3.039   1.027  -1.767  0.00  0.00    +0.530 C 
ATOM      9  N   LIG    1       -4.383   1.101  -1.699  0.00  0.00    -0.620 N 
ATOM     10  C   LIG    1       -5.148   1.962  -0.786  0.00  0.00    +0.230 C 
ATOM     11  C   LIG    1       -6.645   1.694  -1.050  0.00  0.00    +0.040 C 
ATOM     12  C   LIG    1       -6.635   0.282  -1.693  0.00  0.00    +0.040 C 
ATOM     13  C   LIG    1       -5.329   0.329  -2.525  0.00  0.00    +0.260 C 
ATOM     14  O   LIG    1       -2.512   0.274  -2.558  0.00  0.00    -0.510 OA
ENDBRANCH   6   8
BRANCH   1  15
ATOM     15  C   LIG    1        1.222   1.509  -2.574  0.00  0.00    +0.070 C 
BRANCH  15  16
ATOM     16  C   LIG    1        1.590   1.829  -4.025  0.00  0.00    +0.140 C 
BRANCH  16  26
ATOM     17  C   LIG    1        3.625   3.818  -3.382  0.00  0.00    +0.160 C 
ATOM     18  C   LIG    1        4.026   2.479  -3.944  0.00  0.00    +0.280 A 
ATOM     19  N   LIG    1        5.298   2.199  -4.141  0.00  0.00    -0.550 NA
ATOM     20  C   LIG    1        5.669   1.019  -4.643  0.00  0.00    +0.630 A 
ATOM     21  N   LIG    1        4.755   0.081  -4.956  0.00  0.00    -0.620 N 
ATOM     22  H   LIG    1        5.041  -0.771  -5.320  0.00  0.00    +0.420 HD
ATOM     23  C   LIG    1        3.433   0.327  -4.762  0.00  0.00    +0.220 A 
ATOM     24  C   LIG    1        2.405  -0.719  -5.110  0.00  0.00    +0.150 C 
ATOM     25  O   LIG    1        6.853   0.787  -4.822  0.00  0.00    -0.530 OA
ATOM     26  C   LIG    1        3.049   1.527  -4.251  0.00  0.00    -0.260 A 
ENDBRANCH  16  26
ENDBRANCH  15  16
ENDBRANCH   1  15
TORSDOF 4
