REMARK  Name = ZINCvU0000000Fzs.1
REMARK                            x       y       z     vdW  Elec       q    Type
REMARK                         _______ _______ _______ _____ _____    ______ ____
ROOT
ATOM      1  C   LIG    1        9.441   1.964   4.848  0.00  0.00    +0.120 C 
ATOM      2  C   LIG    1        8.460   1.262   3.945  0.00  0.00    -0.060 A 
ATOM      3  C   LIG    1        8.551  -0.103   3.764  0.00  0.00    +0.040 A 
ATOM      4  C   LIG    1        7.647  -0.757   2.937  0.00  0.00    +0.210 A 
ATOM      5  C   LIG    1        6.649  -0.023   2.280  0.00  0.00    -0.150 A 
ATOM      6  C   LIG    1        6.568   1.358   2.472  0.00  0.00    +0.040 A 
ATOM      7  C   LIG    1        7.471   1.991   3.301  0.00  0.00    +0.070 A 
ATOM      8  F   LIG    1        7.391   3.327   3.487  0.00  0.00    -0.130 F 
ENDROOT
BRANCH   5   9
ATOM      9  C   LIG    1        5.687  -0.707   1.394  0.00  0.00    +0.570 C 
ATOM     10  N   LIG    1        4.667  -0.017   0.848  0.00  0.00    -0.720 N 
ATOM     11  H   LIG    1        4.564   0.929   1.037  0.00  0.00    +0.400 HD
ATOM     12  O   LIG    1        5.816  -1.893   1.157  0.00  0.00    -0.530 OA
BRANCH  10  13
ATOM     13  C   LIG    1        3.711  -0.696  -0.031  0.00  0.00    +0.280 C 
ATOM     14  C   LIG    1        4.263  -0.724  -1.458  0.00  0.00    +0.040 C 
BRANCH  13  15
ATOM     15  C   LIG    1        2.399   0.045  -0.014  0.00  0.00    -0.100 A 
ATOM     16  C   LIG    1        1.209  -0.658  -0.003  0.00  0.00    +0.020 A 
ATOM     17  C   LIG    1        0.005   0.021   0.013  0.00  0.00    +0.020 A 
ATOM     18  C   LIG    1       -0.009   1.404   0.019  0.00  0.00    +0.000 A 
ATOM     19  C   LIG    1        1.182   2.107   0.008  0.00  0.00    +0.020 A 
ATOM     20  C   LIG    1        2.385   1.427  -0.009  0.00  0.00    +0.000 A 
ENDBRANCH  13  15
ENDBRANCH  10  13
ENDBRANCH   5   9
BRANCH   4  21
ATOM     21  N   LIG    1        7.734  -2.136   2.758  0.00  0.00    -0.650 N 
ATOM     22  H   LIG    1        7.516  -2.528   1.898  0.00  0.00    +0.430 HD
ATOM     23  C   LIG    1        8.123  -2.925   3.779  0.00  0.00    +0.600 C 
ATOM     24  O   LIG    1        8.305  -2.447   4.882  0.00  0.00    -0.490 OA
BRANCH  23  25
ATOM     25  C   LIG    1        8.328  -4.370   3.558  0.00  0.00    +0.000 A 
ATOM     26  N   LIG    1        8.169  -5.020   2.421  0.00  0.00    -0.230 NA
ATOM     27  N   LIG    1        8.432  -6.267   2.584  0.00  0.00    -0.370 N 
ATOM     28  H   LIG    1        8.383  -6.940   1.887  0.00  0.00    +0.450 HD
ATOM     29  C   LIG    1        8.786  -6.505   3.872  0.00  0.00    +0.070 A 
ATOM     30  C   LIG    1        8.739  -5.319   4.525  0.00  0.00    -0.090 A 
ATOM     31 CL   LIG    1        9.101  -5.026   6.197  0.00  0.00    +0.000 Cl
BRANCH  29  32
ATOM     32  C   LIG    1        9.168  -7.838   4.463  0.00  0.00    +0.040 C 
ATOM     33  C   LIG    1        9.356  -9.011   3.498  0.00  0.00    +0.030 C 
ATOM     34  C   LIG    1        8.127  -8.959   4.408  0.00  0.00    +0.050 C 
ENDBRANCH  29  32
ENDBRANCH  23  25
ENDBRANCH   4  21
TORSDOF 6
