REMARK  Name = ZINCvU0000000Fzs.0
REMARK                            x       y       z     vdW  Elec       q    Type
REMARK                         _______ _______ _______ _____ _____    ______ ____
ROOT
ATOM      1  C   LIG    1        8.858   1.855   5.383  0.00  0.00    +0.120 C 
ATOM      2  C   LIG    1        8.175   1.208   4.205  0.00  0.00    -0.070 A 
ATOM      3  C   LIG    1        8.271  -0.156   4.020  0.00  0.00    +0.050 A 
ATOM      4  C   LIG    1        7.645  -0.757   2.937  0.00  0.00    +0.200 A 
ATOM      5  C   LIG    1        6.914   0.027   2.032  0.00  0.00    -0.140 A 
ATOM      6  C   LIG    1        6.829   1.408   2.228  0.00  0.00    +0.040 A 
ATOM      7  C   LIG    1        7.453   1.988   3.312  0.00  0.00    +0.080 A 
ATOM      8  F   LIG    1        7.366   3.323   3.504  0.00  0.00    -0.130 F 
ENDROOT
BRANCH   5   9
ATOM      9  C   LIG    1        6.245  -0.601   0.877  0.00  0.00    +0.570 C 
ATOM     10  N   LIG    1        5.541   0.156   0.012  0.00  0.00    -0.720 N 
ATOM     11  H   LIG    1        5.475   1.114   0.149  0.00  0.00    +0.400 HD
ATOM     12  O   LIG    1        6.328  -1.802   0.706  0.00  0.00    -0.540 OA
BRANCH  10  13
ATOM     13  C   LIG    1        4.877  -0.468  -1.134  0.00  0.00    +0.290 C 
ATOM     14  C   LIG    1        5.871  -0.603  -2.289  0.00  0.00    +0.040 C 
BRANCH  13  15
ATOM     15  C   LIG    1        3.715   0.388  -1.569  0.00  0.00    -0.100 A 
ATOM     16  C   LIG    1        2.528  -0.203  -1.958  0.00  0.00    +0.020 A 
ATOM     17  C   LIG    1        1.462   0.582  -2.356  0.00  0.00    +0.020 A 
ATOM     18  C   LIG    1        1.584   1.959  -2.364  0.00  0.00    +0.000 A 
ATOM     19  C   LIG    1        2.771   2.551  -1.975  0.00  0.00    +0.020 A 
ATOM     20  C   LIG    1        3.837   1.765  -1.578  0.00  0.00    +0.000 A 
ENDBRANCH  13  15
ENDBRANCH  10  13
ENDBRANCH   5   9
BRANCH   4  21
ATOM     21  N   LIG    1        7.742  -2.134   2.749  0.00  0.00    -0.660 N 
ATOM     22  H   LIG    1        6.959  -2.644   2.489  0.00  0.00    +0.420 HD
ATOM     23  C   LIG    1        8.923  -2.757   2.928  0.00  0.00    +0.590 C 
ATOM     24  O   LIG    1        9.883  -2.134   3.340  0.00  0.00    -0.480 OA
BRANCH  23  25
ATOM     25  C   LIG    1        9.052  -4.190   2.627  0.00  0.00    -0.030 A 
ATOM     26  C   LIG    1       10.190  -4.969   2.757  0.00  0.00    -0.070 A 
ATOM     27  C   LIG    1        9.810  -6.251   2.350  0.00  0.00    +0.080 A 
ATOM     28  N   LIG    1        8.546  -6.206   2.012  0.00  0.00    -0.240 NA
ATOM     29 CL   LIG    1       11.756  -4.461   3.309  0.00  0.00    +0.000 Cl
ATOM     30  N   LIG    1        8.071  -5.023   2.166  0.00  0.00    -0.360 N 
ATOM     31  H   LIG    1        7.155  -4.761   1.980  0.00  0.00    +0.450 HD
BRANCH  27  32
ATOM     32  C   LIG    1       10.697  -7.468   2.308  0.00  0.00    +0.040 C 
ATOM     33  C   LIG    1       10.139  -8.726   1.639  0.00  0.00    +0.040 C 
ATOM     34  C   LIG    1       10.287  -8.671   3.161  0.00  0.00    +0.040 C 
ENDBRANCH  27  32
ENDBRANCH  23  25
ENDBRANCH   4  21
TORSDOF 6
