REMARK  Name = ZINCpk00000y6wYM.0
REMARK                            x       y       z     vdW  Elec       q    Type
REMARK                         _______ _______ _______ _____ _____    ______ ____
ROOT
ATOM      1  C   LIG    1       -3.410  -0.819  -1.215  0.00  0.00    +0.270 C 
ATOM      2  C   LIG    1       -2.429  -0.425  -0.105  0.00  0.00    +0.310 C 
ATOM      3  N   LIG    1       -2.432   1.041   0.019  0.00  0.00    -0.590 N 
ATOM      4  C   LIG    1       -3.730   1.721   0.150  0.00  0.00    +0.270 C 
ATOM      5  C   LIG    1       -4.648   1.224  -0.978  0.00  0.00    +0.240 C 
ATOM      6  O   LIG    1       -4.676  -0.205  -0.963  0.00  0.00    -0.380 OA
ENDROOT
BRANCH   3   7
ATOM      7  C   LIG    1       -1.243   1.762   0.018  0.00  0.00    +0.420 A 
ATOM      8  N   LIG    1       -1.280   3.074   0.019  0.00  0.00    -0.340 NA
ATOM      9  N   LIG    1       -0.098   3.817   0.012  0.00  0.00    -0.270 N 
ATOM     10  C   LIG    1        1.117   3.178   0.009  0.00  0.00    +0.110 A 
ATOM     11  C   LIG    1        1.156   1.770   0.013  0.00  0.00    +0.200 A 
ATOM     12  N   LIG    1        2.046   4.120   0.002  0.00  0.00    -0.250 NA
ATOM     13  N   LIG    1        1.479   5.276   0.000  0.00  0.00    -0.260 NA
ATOM     14  C   LIG    1        0.176   5.139   0.007  0.00  0.00    +0.220 A 
ATOM     15  C   LIG    1       -0.013   1.076   0.020  0.00  0.00    -0.030 A 
BRANCH  14  16
ATOM     16  C   LIG    1       -0.835   6.257   0.007  0.00  0.00    +0.020 C 
ATOM     17  C   LIG    1       -1.716   6.147  -1.239  0.00  0.00    +0.050 C 
ATOM     18  C   LIG    1       -0.107   7.603  -0.000  0.00  0.00    +0.080 C 
ATOM     19  C   LIG    1       -1.707   6.155   1.260  0.00  0.00    +0.050 C 
ENDBRANCH  14  16
ENDBRANCH   3   7
BRANCH   1  24
ATOM     20  C   LIG    1       -5.363  -5.477  -1.152  0.00  0.00    +0.200 C 
ATOM     21  C   LIG    1       -4.408  -4.313  -1.210  0.00  0.00    +0.190 A 
ATOM     22  N   LIG    1       -3.110  -4.382  -1.328  0.00  0.00    -0.290 NA
ATOM     23  N   LIG    1       -2.613  -3.196  -1.350  0.00  0.00    -0.280 NA
ATOM     24  C   LIG    1       -3.571  -2.317  -1.237  0.00  0.00    +0.180 A 
ATOM     25  N   LIG    1       -4.738  -3.000  -1.149  0.00  0.00    -0.560 N 
ATOM     26  H   LIG    1       -5.628  -2.626  -1.060  0.00  0.00    +0.430 HD
ENDBRANCH   1  24
TORSDOF 3
