REMARK  Name = ZINCpk00000y6wYM.1
REMARK                            x       y       z     vdW  Elec       q    Type
REMARK                         _______ _______ _______ _____ _____    ______ ____
ROOT
ATOM      1  C   LIG    1       -4.095   3.918   6.083  0.00  0.00    +0.280 C 
ATOM      2  C   LIG    1       -5.315   3.782   5.166  0.00  0.00    +0.290 C 
ATOM      3  N   LIG    1       -5.015   4.455   3.892  0.00  0.00    -0.590 N 
ATOM      4  C   LIG    1       -3.756   4.116   3.211  0.00  0.00    +0.270 C 
ATOM      5  C   LIG    1       -2.611   4.235   4.224  0.00  0.00    +0.230 C 
ATOM      6  O   LIG    1       -2.930   3.468   5.387  0.00  0.00    -0.360 OA
ENDROOT
BRANCH   3   7
ATOM      7  C   LIG    1       -5.896   5.383   3.348  0.00  0.00    +0.420 A 
ATOM      8  N   LIG    1       -5.553   6.047   2.269  0.00  0.00    -0.340 NA
ATOM      9  N   LIG    1       -6.423   6.984   1.706  0.00  0.00    -0.270 N 
ATOM     10  C   LIG    1       -7.648   7.217   2.281  0.00  0.00    +0.110 A 
ATOM     11  C   LIG    1       -8.015   6.503   3.438  0.00  0.00    +0.190 A 
ATOM     12  N   LIG    1       -8.248   8.139   1.544  0.00  0.00    -0.250 NA
ATOM     13  N   LIG    1       -7.473   8.476   0.573  0.00  0.00    -0.260 NA
ATOM     14  C   LIG    1       -6.353   7.798   0.632  0.00  0.00    +0.220 A 
ATOM     15  C   LIG    1       -7.148   5.595   3.958  0.00  0.00    -0.030 A 
BRANCH  14  16
ATOM     16  C   LIG    1       -5.195   7.909  -0.326  0.00  0.00    +0.020 C 
ATOM     17  C   LIG    1       -3.941   8.341   0.437  0.00  0.00    +0.050 C 
ATOM     18  C   LIG    1       -5.521   8.946  -1.402  0.00  0.00    +0.080 C 
ATOM     19  C   LIG    1       -4.948   6.550  -0.986  0.00  0.00    +0.050 C 
ENDBRANCH  14  16
ENDBRANCH   3   7
BRANCH   1  23
ATOM     20  C   LIG    1       -5.041   2.665  10.839  0.00  0.00    +0.210 C 
ATOM     21  C   LIG    1       -4.708   2.550   9.373  0.00  0.00    +0.290 A 
ATOM     22  N   LIG    1       -4.608   3.544   8.528  0.00  0.00    -0.530 NA
ATOM     23  C   LIG    1       -4.298   3.079   7.319  0.00  0.00    +0.230 A 
ATOM     24  N   LIG    1       -4.204   1.776   7.376  0.00  0.00    -0.280 NA
ATOM     25  N   LIG    1       -4.467   1.409   8.706  0.00  0.00    -0.480 N 
ATOM     26  H   LIG    1       -4.475   0.509   9.070  0.00  0.00    +0.440 HD
ENDBRANCH   1  23
TORSDOF 3
