REMARK  Name = ZINCrD000000AZra.0
REMARK                            x       y       z     vdW  Elec       q    Type
REMARK                         _______ _______ _______ _____ _____    ______ ____
ROOT
ATOM      1  C   LIG    1       -2.518   3.868   0.044  0.00  0.00    +0.520 C 
ATOM      2  O   LIG    1       -2.531   5.083   0.050  0.00  0.00    -0.510 OA
ENDROOT
BRANCH   1   3
ATOM      3  C   LIG    1       -1.232   3.145   0.029  0.00  0.00    -0.170 A 
ATOM      4  C   LIG    1       -1.215   1.747   0.017  0.00  0.00    +0.130 A 
ATOM      5  C   LIG    1       -0.013   1.076   0.008  0.00  0.00    -0.020 A 
ATOM      6  C   LIG    1        1.182   1.786   0.000  0.00  0.00    +0.170 A 
ATOM      7  C   LIG    1        1.169   3.176   0.007  0.00  0.00    -0.080 A 
ATOM      8  C   LIG    1       -0.029   3.855   0.022  0.00  0.00    +0.130 A 
BRANCH   6   9
ATOM      9  O   LIG    1        2.365   1.121  -0.014  0.00  0.00    -0.300 OA
BRANCH   9  10
ATOM     10  C   LIG    1        3.555   1.913  -0.021  0.00  0.00    +0.300 C 
BRANCH  10  11
ATOM     11  C   LIG    1        4.760   1.008  -0.036  0.00  0.00    -0.200 A 
ATOM     12  C   LIG    1        5.365   0.551  -1.134  0.00  0.00    +0.040 A 
ATOM     13  C   LIG    1        6.457  -0.267  -0.900  0.00  0.00    +0.010 A 
ATOM     14  C   LIG    1        6.738  -0.475   0.387  0.00  0.00    -0.030 A 
ATOM     15  S   LIG    1        5.588   0.399   1.391  0.00  0.00    +0.130 S 
ENDBRANCH  10  11
ENDBRANCH   9  10
ENDBRANCH   6   9
ENDBRANCH   1   3
BRANCH   1  16
ATOM     16  O   LIG    1       -3.677   3.181   0.051  0.00  0.00    -0.350 OA
BRANCH  16  17
ATOM     17  C   LIG    1       -4.903   3.958   0.066  0.00  0.00    +0.220 C 
BRANCH  17  18
ATOM     18  C   LIG    1       -6.106   3.013   0.072  0.00  0.00    +0.310 C 
BRANCH  18  21
ATOM     19  O   LIG    1       -7.963   1.167   0.719  0.00  0.00    -0.520 OA
ATOM     20  C   LIG    1       -7.094   1.345   1.549  0.00  0.00    +0.560 C 
ATOM     21  N   LIG    1       -6.118   2.247   1.321  0.00  0.00    -0.720 N 
ATOM     22  H   LIG    1       -5.424   2.388   1.984  0.00  0.00    +0.400 HD
BRANCH  20  23
ATOM     23  C   LIG    1       -7.106   0.570   2.812  0.00  0.00    -0.090 A 
ATOM     24  C   LIG    1       -6.112   0.754   3.777  0.00  0.00    +0.000 A 
ATOM     25  C   LIG    1       -6.164   0.014   4.942  0.00  0.00    +0.260 A 
ATOM     26  N   LIG    1       -7.127  -0.863   5.144  0.00  0.00    -0.470 NA
ATOM     27  C   LIG    1       -8.081  -1.071   4.258  0.00  0.00    +0.270 A 
ATOM     28  C   LIG    1       -8.108  -0.370   3.068  0.00  0.00    +0.040 A 
ENDBRANCH  20  23
ENDBRANCH  18  21
ENDBRANCH  17  18
ENDBRANCH  16  17
ENDBRANCH   1  16
TORSDOF 9
