REMARK  Name = ZINCqH0000032xjk.0
REMARK                            x       y       z     vdW  Elec       q    Type
REMARK                         _______ _______ _______ _____ _____    ______ ____
ROOT
ATOM      1  C   LIG    1        2.475   1.380   0.339  0.00  0.00    +0.170 A 
ATOM      2  C   LIG    1        1.341   1.931  -0.249  0.00  0.00    -0.020 A 
ATOM      3  C   LIG    1        0.177   1.199  -0.322  0.00  0.00    +0.100 A 
ATOM      4  C   LIG    1        0.136  -0.099   0.194  0.00  0.00    -0.150 A 
ATOM      5  C   LIG    1        1.277  -0.649   0.785  0.00  0.00    +0.060 A 
ATOM      6  C   LIG    1        2.437   0.088   0.855  0.00  0.00    +0.010 A 
ENDROOT
BRANCH   4   7
ATOM      7  C   LIG    1       -1.110  -0.886   0.118  0.00  0.00    +0.560 C 
ATOM      8  N   LIG    1       -1.054  -2.223  -0.045  0.00  0.00    -0.600 N 
ATOM      9  C   LIG    1        0.231  -2.894  -0.284  0.00  0.00    +0.260 C 
ATOM     10  C   LIG    1        0.403  -4.012   0.750  0.00  0.00    +0.010 C 
ATOM     11  C   LIG    1       -0.812  -4.942   0.696  0.00  0.00    +0.020 C 
ATOM     12  C   LIG    1       -2.076  -4.152   1.043  0.00  0.00    +0.020 C 
ATOM     13  C   LIG    1       -2.275  -3.037   0.019  0.00  0.00    +0.210 C 
ATOM     14  C   LIG    1       -3.455  -2.159   0.441  0.00  0.00    +0.060 C 
ATOM     15  O   LIG    1       -2.187  -0.329   0.201  0.00  0.00    -0.530 OA
ENDBRANCH   4   7
BRANCH   1  17
ATOM     16  C   LIG    1        4.846   1.508   0.301  0.00  0.00    +0.610 C 
ATOM     17  N   LIG    1        3.652   2.123   0.412  0.00  0.00    -0.660 N 
ATOM     18  H   LIG    1        3.611   3.083   0.542  0.00  0.00    +0.420 HD
ATOM     19  O   LIG    1        4.896   0.321   0.042  0.00  0.00    -0.510 OA
BRANCH  16  23
ATOM     20  N   LIG    1        7.423   3.898   0.875  0.00  0.00    -0.270 N 
ATOM     21  C   LIG    1        8.220   2.830   0.657  0.00  0.00    +0.170 A 
ATOM     22  C   LIG    1        7.413   1.772   0.409  0.00  0.00    -0.010 A 
ATOM     23  C   LIG    1        6.093   2.275   0.493  0.00  0.00    -0.030 A 
ATOM     24  N   LIG    1        6.188   3.560   0.771  0.00  0.00    -0.260 NA
BRANCH  20  26
ATOM     25  C   LIG    1        8.156   5.374   2.682  0.00  0.00    +0.050 C 
ATOM     26  C   LIG    1        7.899   5.250   1.179  0.00  0.00    +0.250 C 
ATOM     27  C   LIG    1        9.197   5.518   0.415  0.00  0.00    +0.060 C 
ENDBRANCH  20  26
ENDBRANCH  16  23
ENDBRANCH   1  17
TORSDOF 4
