REMARK  Name = ZINCqH0000050a1Z.0
REMARK                            x       y       z     vdW  Elec       q    Type
REMARK                         _______ _______ _______ _____ _____    ______ ____
ROOT
ATOM      1  C   LIG    1       -0.869   1.683  -1.218  0.00  0.00    +0.240 C 
ATOM      2  C   LIG    1       -0.305   1.249   0.151  0.00  0.00    +0.060 C 
ATOM      3  C   LIG    1       -1.338   1.823   1.156  0.00  0.00    +0.040 C 
ATOM      4  C   LIG    1       -2.664   1.650   0.364  0.00  0.00    +0.250 C 
ATOM      5  N   LIG    1       -2.307   1.933  -1.038  0.00  0.00    -0.620 N 
ATOM      6  C   LIG    1       -3.158   2.351  -1.996  0.00  0.00    +0.730 C 
ATOM      7  N   LIG    1       -4.459   2.544  -1.704  0.00  0.00    -0.740 N 
ATOM      8  H   LIG    1       -4.784   2.382  -0.805  0.00  0.00    +0.390 HD
ATOM      9  O   LIG    1       -2.751   2.555  -3.124  0.00  0.00    -0.580 OA
ENDROOT
BRANCH   7  10
ATOM     10  C   LIG    1       -5.384   2.999  -2.746  0.00  0.00    +0.260 C 
ATOM     11  C   LIG    1       -5.331   4.525  -2.844  0.00  0.00    +0.000 C 
ATOM     12  C   LIG    1       -6.296   5.000  -3.931  0.00  0.00    +0.000 C 
ATOM     13  C   LIG    1       -7.719   4.561  -3.578  0.00  0.00    +0.000 C 
ATOM     14  C   LIG    1       -7.772   3.035  -3.480  0.00  0.00    +0.020 C 
ATOM     15  C   LIG    1       -6.806   2.560  -2.392  0.00  0.00    +0.010 C 
ENDBRANCH   7  10
BRANCH   1  17
ATOM     16  N   LIG    1        1.101   2.904  -2.083  0.00  0.00    -0.550 N 
ATOM     17  C   LIG    1       -0.184   2.944  -1.678  0.00  0.00    +0.510 C 
ATOM     18  O   LIG    1       -0.789   3.996  -1.684  0.00  0.00    -0.490 OA
ATOM     19  C   LIG    1        1.814   1.625  -2.131  0.00  0.00    +0.290 C 
BRANCH  16  25
ATOM     20  C   LIG    1        0.916   7.722  -3.044  0.00  0.00    +0.100 C 
ATOM     21  C   LIG    1        1.689   6.433  -2.931  0.00  0.00    -0.060 A 
ATOM     22  C   LIG    1        3.046   6.415  -3.199  0.00  0.00    -0.030 A 
ATOM     23  C   LIG    1        3.758   5.234  -3.097  0.00  0.00    -0.060 A 
ATOM     24  C   LIG    1        3.116   4.069  -2.727  0.00  0.00    -0.050 A 
ATOM     25  C   LIG    1        1.754   4.083  -2.457  0.00  0.00    +0.160 A 
ATOM     26  C   LIG    1        5.236   5.220  -3.389  0.00  0.00    +0.100 C 
ATOM     27  C   LIG    1        1.040   5.270  -2.566  0.00  0.00    +0.010 A 
ENDBRANCH  16  25
ENDBRANCH   1  17
TORSDOF 3
