REMARK  Name = ZINCrD0000075vIv.0
REMARK                            x       y       z     vdW  Elec       q    Type
REMARK                         _______ _______ _______ _____ _____    ______ ____
ROOT
ATOM      1  C   LIG    1       -2.512   0.973   0.000  0.00  0.00    +0.290 C 
ENDROOT
BRANCH   1   2
ATOM      2  C   LIG    1       -1.220   1.749   0.004  0.00  0.00    -0.080 A 
ATOM      3  C   LIG    1       -0.013   1.077  -0.063  0.00  0.00    +0.030 A 
ATOM      4  C   LIG    1        1.173   1.782  -0.066  0.00  0.00    +0.080 A 
ATOM      5  C   LIG    1        1.153   3.175   0.003  0.00  0.00    -0.120 A 
ATOM      6  C   LIG    1       -0.068   3.847   0.076  0.00  0.00    +0.030 A 
ATOM      7  C   LIG    1       -1.247   3.130   0.079  0.00  0.00    +0.030 A 
BRANCH   5   8
ATOM      8  C   LIG    1        2.420   3.937   0.001  0.00  0.00    +0.570 C 
ATOM      9  N   LIG    1        2.398   5.282  -0.094  0.00  0.00    -0.610 N 
ATOM     10  C   LIG    1        1.191   6.121  -0.097  0.00  0.00    +0.250 C 
ATOM     11  C   LIG    1        1.651   7.586  -0.248  0.00  0.00    +0.030 C 
ATOM     12  C   LIG    1        3.053   7.442  -0.896  0.00  0.00    +0.040 C 
ATOM     13  C   LIG    1        3.580   6.154  -0.217  0.00  0.00    +0.250 C 
ATOM     14  O   LIG    1        3.482   3.351   0.083  0.00  0.00    -0.530 OA
ENDBRANCH   5   8
ENDBRANCH   1   2
BRANCH   1  15
ATOM     15  O   LIG    1       -2.890   0.655   1.366  0.00  0.00    -0.350 OA
BRANCH  15  17
ATOM     16  O   LIG    1       -4.683  -0.370   0.580  0.00  0.00    -0.490 OA
ATOM     17  C   LIG    1       -4.026  -0.039   1.538  0.00  0.00    +0.470 C 
BRANCH  17  18
ATOM     18  C   LIG    1       -4.481  -0.405   2.927  0.00  0.00    +0.240 C 
BRANCH  18  19
ATOM     19  C   LIG    1       -5.774  -1.176   2.845  0.00  0.00    +0.140 A 
ATOM     20  N   LIG    1       -5.894  -2.464   2.744  0.00  0.00    -0.270 NA
ATOM     21  O   LIG    1       -7.263  -2.813   2.694  0.00  0.00    -0.080 OA
ATOM     22  C   LIG    1       -8.012  -1.694   2.766  0.00  0.00    +0.090 A 
ATOM     23  C   LIG    1       -9.381  -1.459   2.760  0.00  0.00    +0.020 A 
ATOM     24  C   LIG    1       -9.855  -0.168   2.866  0.00  0.00    +0.080 A 
ATOM     25  C   LIG    1       -8.976   0.901   2.965  0.00  0.00    -0.010 A 
ATOM     26  C   LIG    1       -7.625   0.691   2.969  0.00  0.00    +0.090 A 
ATOM     27  C   LIG    1       -7.125  -0.610   2.871  0.00  0.00    -0.190 A 
ENDBRANCH  18  19
ENDBRANCH  17  18
ENDBRANCH  15  17
ENDBRANCH   1  15
TORSDOF 6
