REMARK  Name = ZINCvU0000000G64.0
REMARK                            x       y       z     vdW  Elec       q    Type
REMARK                         _______ _______ _______ _____ _____    ______ ____
ROOT
ATOM      1  C   LIG    1       -0.096   6.064  -1.722  0.00  0.00    -0.300 C 
ENDROOT
BRANCH   1   5
ATOM      2  C   LIG    1       -2.799   4.036  -3.111  0.00  0.00    +0.060 A 
ATOM      3  C   LIG    1       -3.248   5.272  -3.457  0.00  0.00    -0.040 A 
ATOM      4  C   LIG    1       -2.296   6.197  -2.984  0.00  0.00    +0.000 A 
ATOM      5  C   LIG    1       -1.324   5.489  -2.378  0.00  0.00    -0.020 A 
ATOM      6  O   LIG    1       -1.629   4.183  -2.461  0.00  0.00    -0.160 OA
BRANCH   2  10
ATOM      7  C   LIG    1       -4.743   0.352  -3.947  0.00  0.00    +0.140 A 
ATOM      8  C   LIG    1       -3.536   0.358  -3.260  0.00  0.00    -0.010 A 
ATOM      9  C   LIG    1       -2.902   1.551  -2.987  0.00  0.00    +0.080 A 
ATOM     10  C   LIG    1       -3.475   2.755  -3.402  0.00  0.00    -0.060 A 
ATOM     11  C   LIG    1       -4.691   2.745  -4.087  0.00  0.00    +0.080 A 
ATOM     12  C   LIG    1       -5.316   1.547  -4.361  0.00  0.00    -0.070 A 
BRANCH   7  14
ATOM     13  C   LIG    1       -6.603  -0.760  -4.924  0.00  0.00    +0.240 C 
ATOM     14  O   LIG    1       -5.365  -0.826  -4.215  0.00  0.00    -0.310 OA
ENDBRANCH   7  14
ENDBRANCH   2  10
ENDBRANCH   1   5
BRANCH   1  15
ATOM     15  S   LIG    1       -0.074   5.602   0.032  0.00  0.00    +2.490 S 
ATOM     16  O   LIG    1        1.163   5.966   0.628  0.00  0.00    -0.900 OA
ATOM     17  O   LIG    1       -1.310   5.932   0.650  0.00  0.00    -0.920 OA
BRANCH  15  18
ATOM     18  C   LIG    1       -0.050   3.840   0.022  0.00  0.00    -0.660 A 
ATOM     19  C   LIG    1        1.156   3.165   0.008  0.00  0.00    +0.120 A 
ATOM     20  C   LIG    1        1.175   1.783   0.000  0.00  0.00    -0.010 A 
ATOM     21  C   LIG    1       -0.013   1.076   0.008  0.00  0.00    +0.070 A 
ATOM     22  C   LIG    1       -1.219   1.751   0.017  0.00  0.00    -0.010 A 
ATOM     23  C   LIG    1       -1.238   3.133   0.029  0.00  0.00    +0.140 A 
ENDBRANCH  15  18
ENDBRANCH   1  15
BRANCH   1  24
ATOM     24  C   LIG    1        1.155   5.514  -2.410  0.00  0.00    +0.100 C 
BRANCH  24  25
ATOM     25  C   LIG    1        2.379   6.181  -1.837  0.00  0.00    +0.410 C 
ATOM     26  O   LIG    1        2.261   7.016  -0.963  0.00  0.00    -0.390 OA
BRANCH  25  27
ATOM     27  C   LIG    1        3.662   5.836  -2.316  0.00  0.00    -0.120 A 
ATOM     28  C   LIG    1        4.862   6.369  -1.888  0.00  0.00    +0.070 A 
ATOM     29  C   LIG    1        5.867   5.736  -2.631  0.00  0.00    -0.070 A 
ATOM     30  C   LIG    1        5.258   4.867  -3.470  0.00  0.00    +0.220 A 
ATOM     31  O   LIG    1        3.935   4.929  -3.279  0.00  0.00    -0.160 OA
ENDBRANCH  25  27
ENDBRANCH  24  25
ENDBRANCH   1  24
TORSDOF 8
