REMARK  Name = ZINCkj000005jGpr.0
REMARK                            x       y       z     vdW  Elec       q    Type
REMARK                         _______ _______ _______ _____ _____    ______ ____
ROOT
ATOM      1  C   LIG    1       -0.014   1.212   0.009  0.00  0.00    +0.620 C 
ATOM      2  N   LIG    1       -1.191   1.870   0.018  0.00  0.00    -0.610 N 
ATOM      3  C   LIG    1       -1.411   3.336   0.033  0.00  0.00    +0.280 C 
ATOM      4  C   LIG    1       -2.623   3.556  -0.908  0.00  0.00    -0.020 C 
ATOM      5  C   LIG    1       -3.365   2.214  -0.899  0.00  0.00    -0.080 C 
ATOM      6  C   LIG    1       -4.863   2.288  -0.609  0.00  0.00    +0.030 C 
ATOM      7  C   LIG    1       -5.031   1.160  -1.643  0.00  0.00    +0.030 C 
ATOM      8  C   LIG    1       -3.710   1.640  -2.272  0.00  0.00    +0.040 C 
ATOM      9  C   LIG    1       -2.556   1.290   0.021  0.00  0.00    +0.300 C 
ATOM     10  O   LIG    1        0.002  -0.004   0.002  0.00  0.00    -0.510 OA
ENDROOT
BRANCH   1  13
ATOM     11  C   LIG    1        2.486   3.811  -0.001  0.00  0.00    -0.030 A 
ATOM     12  N   LIG    1        1.306   3.300   0.007  0.00  0.00    -0.450 NA
ATOM     13  C   LIG    1        1.251   1.966   0.001  0.00  0.00    +0.000 A 
ATOM     14  C   LIG    1        2.465   1.371  -0.008  0.00  0.00    -0.030 A 
ATOM     15  S   LIG    1        3.672   2.582  -0.018  0.00  0.00    +0.250 S 
BRANCH  11  17
ATOM     16  C   LIG    1        3.235   5.724  -1.390  0.00  0.00    +0.050 C 
ATOM     17  C   LIG    1        2.782   5.289   0.005  0.00  0.00    +0.280 C 
BRANCH  17  18
ATOM     18  N   LIG    1        3.848   5.571   0.976  0.00  0.00    -0.830 NA
ATOM     19  H   LIG    1        4.693   5.073   0.741  0.00  0.00    +0.350 HD
ATOM     20  H   LIG    1        3.549   5.353   1.915  0.00  0.00    +0.350 HD
ENDBRANCH  17  18
ENDBRANCH  11  17
ENDBRANCH   1  13
BRANCH   4  21
ATOM     21  C   LIG    1       -3.522   4.667  -0.363  0.00  0.00    +0.280 C 
BRANCH  21  22
ATOM     22  N   LIG    1       -2.836   5.960  -0.492  0.00  0.00    -0.640 N 
ATOM     23  H   LIG    1       -2.633   6.138  -1.464  0.00  0.00    +0.440 HD
ATOM     24  H   LIG    1       -1.975   5.937   0.033  0.00  0.00    +0.430 HD
ATOM     25  H   LIG    1       -3.429   6.692  -0.133  0.00  0.00    +0.440 HD
ENDBRANCH  21  22
ENDBRANCH   4  21
TORSDOF 5
