REMARK  Name = ZINCtV000002MmXn.0
REMARK                            x       y       z     vdW  Elec       q    Type
REMARK                         _______ _______ _______ _____ _____    ______ ____
ROOT
ATOM      1  C   LIG    1        1.167  10.336   0.047  0.00  0.00    +0.070 C 
ENDROOT
BRANCH   1   3
ATOM      2  O   LIG    1       -1.186  10.157   0.069  0.00  0.00    -0.440 OA
ATOM      3  C   LIG    1       -0.128   9.565   0.055  0.00  0.00    +0.410 C 
BRANCH   3   4
ATOM      4  C   LIG    1       -0.108   8.095   0.046  0.00  0.00    -0.170 A 
ATOM      5  C   LIG    1       -1.310   7.377   0.053  0.00  0.00    +0.090 A 
ATOM      6  C   LIG    1       -1.289   6.007   0.045  0.00  0.00    +0.000 A 
ATOM      7  C   LIG    1       -0.070   5.327   0.030  0.00  0.00    -0.000 A 
ATOM      8  C   LIG    1        1.129   6.040   0.029  0.00  0.00    +0.000 A 
ATOM      9  C   LIG    1        1.113   7.410   0.031  0.00  0.00    +0.080 A 
BRANCH   7  10
ATOM     10  C   LIG    1       -0.050   3.844   0.023  0.00  0.00    -0.060 A 
ATOM     11  C   LIG    1        1.165   3.161   0.008  0.00  0.00    +0.030 A 
ATOM     12  C   LIG    1        1.178   1.781   0.000  0.00  0.00    +0.010 A 
ATOM     13  C   LIG    1       -0.013   1.076   0.008  0.00  0.00    +0.020 A 
ATOM     14  C   LIG    1       -1.221   1.748   0.017  0.00  0.00    +0.010 A 
ATOM     15  C   LIG    1       -1.246   3.128   0.030  0.00  0.00    +0.030 A 
ENDBRANCH   7  10
ENDBRANCH   3   4
ENDBRANCH   1   3
BRANCH   1  16
ATOM     16  S   LIG    1        0.812  12.111   0.061  0.00  0.00    +0.050 S 
BRANCH  16  17
ATOM     17  C   LIG    1        2.454  12.751   0.050  0.00  0.00    +0.200 A 
ATOM     18  C   LIG    1        2.683  14.152   0.056  0.00  0.00    -0.160 A 
ATOM     19  C   LIG    1        4.004  14.592   0.046  0.00  0.00    +0.100 A 
ATOM     20  S   LIG    1        4.042  16.346   0.057  0.00  0.00    +0.180 S 
ATOM     21  C   LIG    1        2.290  16.460   0.074  0.00  0.00    -0.170 A 
ATOM     22  C   LIG    1        1.516  17.767   0.090  0.00  0.00    +0.120 C 
ATOM     23  C   LIG    1        0.067  17.488  -0.315  0.00  0.00    +0.030 C 
ATOM     24  C   LIG    1       -0.469  16.324   0.524  0.00  0.00    +0.030 C 
ATOM     25  C   LIG    1        0.217  15.031   0.081  0.00  0.00    +0.110 C 
ATOM     26  N   LIG    1        4.993  13.687   0.031  0.00  0.00    -0.490 NA
ATOM     27  C   LIG    1        4.732  12.400   0.026  0.00  0.00    +0.530 A 
ATOM     28  C   LIG    1        1.724  15.251   0.071  0.00  0.00    -0.070 A 
ATOM     29  N   LIG    1        3.497  11.933   0.040  0.00  0.00    -0.530 NA
ENDBRANCH  16  17
ENDBRANCH   1  16
TORSDOF 5
