REMARK  Name = ZINCpk00000xI85D.0
REMARK                            x       y       z     vdW  Elec       q    Type
REMARK                         _______ _______ _______ _____ _____    ______ ____
ROOT
ATOM      1  C   LIG    1        3.572   0.844  -0.026  0.00  0.00    +0.300 C 
ENDROOT
BRANCH   1  11
ATOM      2  N   LIG    1        1.334  -0.367  -0.013  0.00  0.00    -0.470 N 
ATOM      3  C   LIG    1        0.002  -0.004   0.002  0.00  0.00    +0.080 A 
ATOM      4  C   LIG    1       -1.191  -0.713   0.010  0.00  0.00    +0.010 A 
ATOM      5  C   LIG    1       -2.392  -0.037   0.025  0.00  0.00    +0.070 A 
ATOM      6  C   LIG    1       -2.418   1.350   0.033  0.00  0.00    -0.030 A 
ATOM      7  C   LIG    1       -1.244   2.072   0.030  0.00  0.00    +0.150 A 
ATOM      8  F   LIG    1       -1.278   3.423   0.038  0.00  0.00    -0.130 F 
ATOM      9  C   LIG    1       -0.017   1.400   0.010  0.00  0.00    +0.010 A 
ATOM     10  N   LIG    1        1.277   1.814  -0.000  0.00  0.00    -0.480 NA
ATOM     11  C   LIG    1        2.066   0.781  -0.013  0.00  0.00    +0.300 A 
BRANCH   2  13
ATOM     12  C   LIG    1        2.032  -2.201  -1.473  0.00  0.00    +0.050 C 
ATOM     13  C   LIG    1        1.862  -1.733  -0.026  0.00  0.00    +0.290 C 
ENDBRANCH   2  13
ENDBRANCH   1  11
BRANCH   1  14
ATOM     14  N   LIG    1        4.049   0.872  -1.416  0.00  0.00    -0.510 NA
ATOM     15  C   LIG    1        3.718   2.155  -2.062  0.00  0.00    +0.210 C 
ATOM     16  C   LIG    1        5.042   2.767  -2.567  0.00  0.00    -0.010 C 
ATOM     17  C   LIG    1        5.976   1.533  -2.682  0.00  0.00    +0.120 C 
ATOM     18  C   LIG    1        5.513   0.677  -1.477  0.00  0.00    +0.230 C 
BRANCH  17  19
ATOM     19  O   LIG    1        5.761   0.842  -3.914  0.00  0.00    -0.530 OA
ATOM     20  H   LIG    1        5.946   1.374  -4.701  0.00  0.00    +0.390 HD
ENDBRANCH  17  19
BRANCH  17  21
ATOM     21  C   LIG    1        7.443   1.941  -2.534  0.00  0.00    +0.320 C 
BRANCH  21  22
ATOM     22  N   LIG    1        7.771   2.959  -3.535  0.00  0.00    -0.290 N 
ATOM     23  C   LIG    1        8.295   4.180  -3.282  0.00  0.00    +0.140 A 
ATOM     24  C   LIG    1        8.438   4.786  -4.484  0.00  0.00    +0.140 A 
ATOM     25  N   LIG    1        7.992   3.920  -5.401  0.00  0.00    -0.260 NA
ATOM     26  N   LIG    1        7.604   2.847  -4.806  0.00  0.00    -0.090 NA
ENDBRANCH  21  22
ENDBRANCH  17  21
ENDBRANCH   1  14
TORSDOF 6
