REMARK  Name = ZINCrD00000F5LIq.0
REMARK                            x       y       z     vdW  Elec       q    Type
REMARK                         _______ _______ _______ _____ _____    ______ ____
ROOT
ATOM      1  N   LIG    1        3.494   3.908   2.947  0.00  0.00    -0.960 NA
ATOM      2  C   LIG    1        2.462   4.707   2.930  0.00  0.00    +0.500 C 
ATOM      3  S   LIG    1        1.867   5.715   4.262  0.00  0.00    +0.160 S 
ATOM      4  C   LIG    1        0.517   6.393   3.332  0.00  0.00    -0.480 C 
ATOM      5  C   LIG    1        0.614   5.787   2.057  0.00  0.00    +0.570 C 
ATOM      6  O   LIG    1       -0.180   6.038   1.168  0.00  0.00    -0.510 OA
ATOM      7  C   LIG    1       -0.407   7.289   3.752  0.00  0.00    +0.530 C 
ATOM      8  N   LIG    1        1.609   4.936   1.879  0.00  0.00    -0.560 N 
ENDROOT
BRANCH   8   9
ATOM      9  C   LIG    1        1.797   4.256   0.595  0.00  0.00    +0.190 C 
ATOM     10  C   LIG    1        2.114   5.289  -0.488  0.00  0.00    +0.060 C 
ATOM     11  C   LIG    1        2.310   4.579  -1.829  0.00  0.00    +0.020 C 
ATOM     12  C   LIG    1        1.030   3.827  -2.200  0.00  0.00    +0.020 C 
ATOM     13  C   LIG    1        0.713   2.793  -1.117  0.00  0.00    +0.020 C 
ATOM     14  C   LIG    1        0.517   3.504   0.224  0.00  0.00    +0.030 C 
ENDBRANCH   8   9
BRANCH   1  15
ATOM     15  S   LIG    1        4.304   3.571   1.542  0.00  0.00    +2.630 S 
ATOM     16  O   LIG    1        3.839   2.302   1.105  0.00  0.00    -0.960 OA
ATOM     17  O   LIG    1        4.228   4.745   0.744  0.00  0.00    -0.970 OA
BRANCH  15  22
ATOM     18  C   LIG    1       10.124   2.855   2.965  0.00  0.00    +0.090 C 
ATOM     19  C   LIG    1        8.671   3.034   2.609  0.00  0.00    -0.030 A 
ATOM     20  C   LIG    1        7.817   1.946   2.619  0.00  0.00    +0.000 A 
ATOM     21  C   LIG    1        6.484   2.110   2.293  0.00  0.00    +0.130 A 
ATOM     22  C   LIG    1        6.004   3.362   1.958  0.00  0.00    -0.650 A 
ATOM     23  C   LIG    1        6.858   4.449   1.942  0.00  0.00    +0.130 A 
ATOM     24  C   LIG    1        8.190   4.286   2.273  0.00  0.00    -0.010 A 
ENDBRANCH  15  22
ENDBRANCH   1  15
BRANCH   7  25
ATOM     25  N   LIG    1       -0.758   8.339   2.945  0.00  0.00    -0.540 N 
ATOM     26  C   LIG    1       -1.661   9.378   3.447  0.00  0.00    +0.300 C 
ATOM     27  C   LIG    1       -0.232   8.423   1.581  0.00  0.00    +0.310 C 
ENDBRANCH   7  25
TORSDOF 4
