REMARK  Name = ZINCkj000005jUhd.0
REMARK                            x       y       z     vdW  Elec       q    Type
REMARK                         _______ _______ _______ _____ _____    ______ ____
ROOT
ATOM      1  C   LIG    1        1.516   1.553   0.272  0.00  0.00    +0.100 C 
ATOM      2  C   LIG    1        0.083   1.016   0.235  0.00  0.00    +0.150 C 
ATOM      3  C   LIG    1       -0.698   1.563   1.434  0.00  0.00    +0.330 C 
ATOM      4  N   LIG    1       -2.102   1.142   1.308  0.00  0.00    -0.630 N 
ATOM      5  C   LIG    1       -2.787   1.386   0.029  0.00  0.00    +0.310 C 
ATOM      6  C   LIG    1       -1.907   0.848  -1.104  0.00  0.00    +0.260 C 
ATOM      7  C   LIG    1       -2.742   0.548   2.334  0.00  0.00    +0.580 C 
ATOM      8  O   LIG    1       -2.136   0.270   3.350  0.00  0.00    -0.470 OA
ATOM      9  N   LIG    1       -0.569   1.445  -1.009  0.00  0.00    -0.500 N 
ATOM     10  H   LIG    1       -0.013   1.149  -1.798  0.00  0.00    +0.430 HD
ATOM     11  H   LIG    1       -0.649   2.451  -1.016  0.00  0.00    +0.430 HD
ENDROOT
BRANCH   7  12
ATOM     12  C   LIG    1       -4.181   0.234   2.224  0.00  0.00    -0.150 A 
ATOM     13  C   LIG    1       -5.106   1.254   1.999  0.00  0.00    +0.070 A 
ATOM     14  C   LIG    1       -6.448   0.954   1.891  0.00  0.00    +0.010 A 
ATOM     15  C   LIG    1       -6.884  -0.354   2.018  0.00  0.00    +0.080 A 
ATOM     16  C   LIG    1       -5.979  -1.373   2.247  0.00  0.00    -0.010 A 
ATOM     17  C   LIG    1       -4.625  -1.090   2.352  0.00  0.00    +0.210 A 
BRANCH  17  18
ATOM     18  N   LIG    1       -3.709  -2.119   2.583  0.00  0.00    -0.340 N 
ATOM     19  C   LIG    1       -4.000  -3.442   2.679  0.00  0.00    +0.230 A 
ATOM     20  C   LIG    1       -2.840  -4.101   2.905  0.00  0.00    -0.090 A 
ATOM     21  C   LIG    1       -1.808  -3.156   2.947  0.00  0.00    +0.250 A 
ATOM     22  N   LIG    1       -2.326  -1.971   2.750  0.00  0.00    -0.270 NA
ENDBRANCH  17  18
ENDBRANCH   7  12
TORSDOF 2
