REMARK  Name = ZINCvU0000000GQX.0
REMARK                            x       y       z     vdW  Elec       q    Type
REMARK                         _______ _______ _______ _____ _____    ______ ____
ROOT
ATOM      1  O   LIG    1       -6.943   4.145  -0.150  0.00  0.00    -0.440 OA
ATOM      2  C   LIG    1       -7.091   4.167   1.055  0.00  0.00    +0.530 C 
ATOM      3  O   LIG    1       -7.213   5.338   1.732  0.00  0.00    -0.350 OA
ATOM      4  C   LIG    1       -6.478   5.385   2.989  0.00  0.00    +0.240 C 
ATOM      5  C   LIG    1       -7.034   4.325   3.940  0.00  0.00    +0.110 C 
ATOM      6  C   LIG    1       -7.116   2.991   3.245  0.00  0.00    -0.040 A 
ATOM      7  C   LIG    1       -7.163   1.831   3.991  0.00  0.00    +0.070 A 
ATOM      8  C   LIG    1       -7.243   0.593   3.353  0.00  0.00    -0.090 A 
ATOM      9  C   LIG    1       -7.276   0.523   1.960  0.00  0.00    +0.030 A 
ATOM     10  C   LIG    1       -7.229   1.681   1.213  0.00  0.00    +0.100 A 
ATOM     11  C   LIG    1       -7.147   2.917   1.852  0.00  0.00    -0.150 A 
ENDROOT
BRANCH   4  12
ATOM     12  C   LIG    1       -6.633   6.749   3.611  0.00  0.00    -0.100 A 
ATOM     13  C   LIG    1       -5.555   7.354   4.230  0.00  0.00    +0.030 A 
ATOM     14  C   LIG    1       -5.696   8.607   4.796  0.00  0.00    +0.010 A 
ATOM     15  C   LIG    1       -6.917   9.254   4.747  0.00  0.00    +0.020 A 
ATOM     16  C   LIG    1       -7.997   8.647   4.133  0.00  0.00    +0.010 A 
ATOM     17  C   LIG    1       -7.855   7.394   3.567  0.00  0.00    +0.040 A 
ENDBRANCH   4  12
BRANCH   8  18
ATOM     18  C   LIG    1       -7.292  -0.650   4.157  0.00  0.00    +0.560 C 
ATOM     19  N   LIG    1       -8.178  -1.617   3.847  0.00  0.00    -0.570 N 
ATOM     20  O   LIG    1       -6.534  -0.797   5.095  0.00  0.00    -0.510 OA
BRANCH  19  21
ATOM     21  C   LIG    1       -8.322  -2.785   4.721  0.00  0.00    +0.200 C 
ATOM     22  C   LIG    1       -7.751  -2.683   6.136  0.00  0.00    +0.030 C 
ATOM     23  C   LIG    1       -7.051  -3.552   5.090  0.00  0.00    +0.020 C 
ENDBRANCH  19  21
BRANCH  19  24
ATOM     24  C   LIG    1       -8.997  -1.502   2.638  0.00  0.00    +0.330 C 
BRANCH  24  25
ATOM     25  C   LIG    1       -8.863  -2.759   1.819  0.00  0.00    -0.120 A 
ATOM     26  C   LIG    1       -7.810  -2.899   0.935  0.00  0.00    +0.050 A 
ATOM     27  C   LIG    1       -7.684  -4.054   0.186  0.00  0.00    -0.010 A 
ATOM     28  C   LIG    1       -8.619  -5.067   0.315  0.00  0.00    +0.110 A 
ATOM     29  C   LIG    1       -9.676  -4.924   1.197  0.00  0.00    -0.010 A 
ATOM     30  F   LIG    1       -8.499  -6.195  -0.419  0.00  0.00    -0.140 F 
ATOM     31  C   LIG    1       -9.797  -3.770   1.948  0.00  0.00    +0.060 A 
ENDBRANCH  24  25
ENDBRANCH  19  24
ENDBRANCH   8  18
TORSDOF 5
