REMARK  Name = ZINCrH000004sTc4.0
REMARK                            x       y       z     vdW  Elec       q    Type
REMARK                         _______ _______ _______ _____ _____    ______ ____
ROOT
ATOM      1  C   LIG    1        3.577   0.932  -0.022  0.00  0.00    +0.610 C 
ATOM      2  N   LIG    1        4.255   0.783   1.133  0.00  0.00    -0.660 N 
ATOM      3  H   LIG    1        3.774   0.713   1.972  0.00  0.00    +0.420 HD
ATOM      4  O   LIG    1        4.180   1.116  -1.062  0.00  0.00    -0.490 OA
ENDROOT
BRANCH   1   7
ATOM      5  C   LIG    1        1.529   3.352   0.356  0.00  0.00    +0.220 C 
ATOM      6  C   LIG    1        1.207   1.897   0.135  0.00  0.00    +0.030 A 
ATOM      7  C   LIG    1        2.106   0.872  -0.025  0.00  0.00    -0.260 A 
ATOM      8  C   LIG    1        1.232  -0.307  -0.202  0.00  0.00    +0.100 A 
ATOM      9  N   LIG    1        0.011   0.159  -0.126  0.00  0.00    -0.340 NA
ATOM     10  O   LIG    1       -0.009   1.351   0.057  0.00  0.00    +0.110 OA
BRANCH   8  11
ATOM     11  C   LIG    1        1.648  -1.714  -0.419  0.00  0.00    -0.040 A 
ATOM     12  C   LIG    1        2.786  -1.998  -1.172  0.00  0.00    +0.040 A 
ATOM     13  C   LIG    1        3.171  -3.309  -1.368  0.00  0.00    +0.020 A 
ATOM     14  C   LIG    1        2.425  -4.340  -0.826  0.00  0.00    +0.030 A 
ATOM     15  C   LIG    1        1.292  -4.064  -0.082  0.00  0.00    +0.010 A 
ATOM     16  C   LIG    1        0.900  -2.757   0.123  0.00  0.00    +0.040 A 
ENDBRANCH   8  11
ENDBRANCH   1   7
BRANCH   2  17
ATOM     17  C   LIG    1        5.653   0.730   1.122  0.00  0.00    +0.140 A 
ATOM     18  C   LIG    1        6.377   1.253   2.186  0.00  0.00    +0.010 A 
ATOM     19  C   LIG    1        7.758   1.203   2.180  0.00  0.00    +0.040 A 
ATOM     20  C   LIG    1        8.428   0.633   1.116  0.00  0.00    +0.030 A 
ATOM     21  C   LIG    1        7.710   0.104   0.042  0.00  0.00    -0.120 A 
ATOM     22  C   LIG    1        6.316   0.150   0.051  0.00  0.00    +0.090 A 
BRANCH  21  23
ATOM     23  C   LIG    1        8.424  -0.506  -1.099  0.00  0.00    +0.560 C 
ATOM     24  N   LIG    1        9.771  -0.553  -1.104  0.00  0.00    -0.700 N 
ATOM     25  H   LIG    1       10.272  -0.186  -0.358  0.00  0.00    +0.400 HD
ATOM     26  O   LIG    1        7.797  -0.966  -2.034  0.00  0.00    -0.530 OA
BRANCH  24  27
ATOM     27  C   LIG    1       10.479  -1.159  -2.234  0.00  0.00    +0.220 C 
ATOM     28  C   LIG    1       11.653  -2.088  -1.917  0.00  0.00    +0.010 C 
ATOM     29  C   LIG    1       11.914  -0.697  -2.498  0.00  0.00    +0.020 C 
ENDBRANCH  24  27
ENDBRANCH  21  23
ENDBRANCH   2  17
TORSDOF 5
