REMARK  Name = ZINCrD0000071jmc.0
REMARK                            x       y       z     vdW  Elec       q    Type
REMARK                         _______ _______ _______ _____ _____    ______ ____
ROOT
ATOM      1  C   LIG    1        9.385   2.415  -0.075  0.00  0.00    -0.650 A 
ATOM      2  C   LIG    1        9.593   1.047  -0.084  0.00  0.00    +0.120 A 
ATOM      3  C   LIG    1        8.518   0.182  -0.077  0.00  0.00    +0.080 A 
ATOM      4  C   LIG    1        7.218   0.691  -0.063  0.00  0.00    -0.070 A 
ATOM      5  C   LIG    1        7.015   2.072  -0.060  0.00  0.00    +0.070 A 
ATOM      6  C   LIG    1        8.099   2.925  -0.060  0.00  0.00    +0.120 A 
ENDROOT
BRANCH   1   7
ATOM      7  S   LIG    1       10.764   3.512  -0.083  0.00  0.00    +2.690 S 
ATOM      8  O   LIG    1       11.861   2.781   0.447  0.00  0.00    -0.950 OA
ATOM      9  O   LIG    1       10.305   4.737   0.472  0.00  0.00    -0.950 OA
BRANCH   7  10
ATOM     10  N   LIG    1       11.132   3.825  -1.667  0.00  0.00    -1.110 NA
ATOM     11  H   LIG    1       11.980   3.531  -2.035  0.00  0.00    +0.420 HD
BRANCH  10  13
ATOM     12  C   LIG    1       10.937   5.437  -3.496  0.00  0.00    +0.040 C 
ATOM     13  C   LIG    1       10.177   4.545  -2.512  0.00  0.00    +0.230 C 
ATOM     14  C   LIG    1        9.324   3.540  -3.289  0.00  0.00    +0.020 C 
ENDBRANCH  10  13
ENDBRANCH   7  10
ENDBRANCH   1   7
BRANCH   4  15
ATOM     15  C   LIG    1        6.062  -0.229  -0.057  0.00  0.00    +0.510 C 
ATOM     16  O   LIG    1        6.241  -1.430  -0.064  0.00  0.00    -0.490 OA
BRANCH  15  17
ATOM     17  O   LIG    1        4.808   0.265  -0.042  0.00  0.00    -0.350 OA
BRANCH  17  18
ATOM     18  C   LIG    1        3.721  -0.698  -0.037  0.00  0.00    +0.300 C 
BRANCH  18  19
ATOM     19  C   LIG    1        2.403   0.034  -0.021  0.00  0.00    -0.110 A 
ATOM     20  C   LIG    1        2.379   1.415  -0.013  0.00  0.00    +0.070 A 
ATOM     21  C   LIG    1        1.170   2.086   0.002  0.00  0.00    -0.010 A 
ATOM     22  C   LIG    1       -0.017   1.377   0.010  0.00  0.00    +0.050 A 
ATOM     23  C   LIG    1        0.002  -0.004   0.002  0.00  0.00    -0.050 A 
ATOM     24  C   LIG    1        1.213  -0.680  -0.013  0.00  0.00    +0.110 A 
BRANCH  24  25
ATOM     25  O   LIG    1        1.234  -2.039  -0.020  0.00  0.00    -0.320 OA
BRANCH  25  26
ATOM     26  C   LIG    1       -0.029  -2.707  -0.011  0.00  0.00    +0.600 C 
ATOM     27  F   LIG    1       -0.760  -2.337  -1.145  0.00  0.00    -0.200 F 
ATOM     28  F   LIG    1       -0.738  -2.348   1.140  0.00  0.00    -0.200 F 
ENDBRANCH  25  26
ENDBRANCH  24  25
ENDBRANCH  18  19
ENDBRANCH  17  18
ENDBRANCH  15  17
ENDBRANCH   4  15
TORSDOF 9
