REMARK  Name = ZINCpe000000SwcF.0
REMARK                            x       y       z     vdW  Elec       q    Type
REMARK                         _______ _______ _______ _____ _____    ______ ____
ROOT
ATOM      1  C   LIG    1       -0.235   5.277   0.033  0.00  0.00    +0.590 C 
ATOM      2  N   LIG    1       -1.438   5.879  -0.054  0.00  0.00    -0.600 N 
ATOM      3  C   LIG    1       -2.673   5.085  -0.054  0.00  0.00    +0.300 C 
ATOM      4  C   LIG    1       -3.502   5.454  -1.284  0.00  0.00    +0.050 C 
ATOM      5  C   LIG    1       -3.709   6.965  -1.321  0.00  0.00    +0.120 C 
ATOM      6  N   LIG    1       -4.474   7.407  -0.148  0.00  0.00    -0.720 N 
ATOM      7  H   LIG    1       -4.213   7.321   0.782  0.00  0.00    +0.440 HD
ATOM      8  C   LIG    1       -5.610   7.957  -0.620  0.00  0.00    +0.700 C 
ATOM      9  N   LIG    1       -5.676   7.926  -1.956  0.00  0.00    -0.580 N 
ATOM     10  C   LIG    1       -6.796   8.454  -2.738  0.00  0.00    +0.340 C 
ATOM     11  O   LIG    1       -6.478   8.428   0.089  0.00  0.00    -0.540 OA
ATOM     12  C   LIG    1       -2.372   7.694  -1.392  0.00  0.00    +0.060 C 
ATOM     13  C   LIG    1       -4.582   7.348  -2.494  0.00  0.00    +0.530 C 
ATOM     14  O   LIG    1       -4.347   7.173  -3.671  0.00  0.00    -0.460 OA
ATOM     15  C   LIG    1       -1.535   7.341  -0.157  0.00  0.00    +0.300 C 
ATOM     16  O   LIG    1        0.777   5.947   0.095  0.00  0.00    -0.510 OA
ENDROOT
BRANCH   1  22
ATOM     17  C   LIG    1        0.870   3.155  -0.658  0.00  0.00    +0.140 A 
ATOM     18  C   LIG    1        0.936   1.764  -0.627  0.00  0.00    -0.020 A 
ATOM     19  C   LIG    1       -0.012   1.077   0.109  0.00  0.00    +0.050 A 
ATOM     20  C   LIG    1       -0.996   1.784   0.785  0.00  0.00    +0.230 A 
ATOM     21  N   LIG    1       -1.035   3.097   0.746  0.00  0.00    -0.420 NA
ATOM     22  C   LIG    1       -0.147   3.801   0.053  0.00  0.00    +0.040 A 
BRANCH  17  23
ATOM     23  O   LIG    1        1.778   3.873  -1.367  0.00  0.00    -0.280 OA
BRANCH  23  24
ATOM     24  C   LIG    1        2.784   3.136  -2.064  0.00  0.00    +0.230 C 
BRANCH  24  26
ATOM     25  C   LIG    1        4.994   3.928  -2.737  0.00  0.00    +0.050 C 
ATOM     26  C   LIG    1        3.695   4.093  -2.789  0.00  0.00    -0.040 C 
ENDBRANCH  24  26
ENDBRANCH  23  24
ENDBRANCH  17  23
ENDBRANCH   1  22
TORSDOF 4
