REMARK  Name = ZINCnE000001MO7s.0
REMARK                            x       y       z     vdW  Elec       q    Type
REMARK                         _______ _______ _______ _____ _____    ______ ____
ROOT
ATOM      1  N   LIG    1        0.796   5.516   1.035  0.00  0.00    -0.680 NA
ATOM      2  C   LIG    1        0.220   6.169   2.043  0.00  0.00    +0.360 A 
ATOM      3  N   LIG    1       -0.390   5.634   3.119  0.00  0.00    -0.420 NA
ATOM      4  N   LIG    1       -0.910   6.521   4.036  0.00  0.00    -0.270 NA
ATOM      5  C   LIG    1       -0.780   7.781   3.783  0.00  0.00    -0.020 A 
ATOM      6  S   LIG    1        0.089   7.875   2.242  0.00  0.00    -0.090 S 
ENDROOT
BRANCH   5   7
ATOM      7  C   LIG    1       -1.268   8.932   4.624  0.00  0.00    +0.100 C 
ATOM      8  C   LIG    1       -0.138   9.412   5.541  0.00  0.00    +0.010 C 
ATOM      9  C   LIG    1       -0.665  10.528   6.446  0.00  0.00    +0.200 C 
ATOM     10  O   LIG    1       -1.782  10.045   7.195  0.00  0.00    -0.390 OA
ATOM     11  C   LIG    1       -2.887   9.627   6.391  0.00  0.00    +0.200 C 
ATOM     12  C   LIG    1       -2.449   8.475   5.484  0.00  0.00    +0.010 C 
ENDBRANCH   5   7
BRANCH   1  14
ATOM     13  N   LIG    1        1.397   3.520   0.008  0.00  0.00    -0.630 N 
ATOM     14  C   LIG    1        0.814   4.181   1.028  0.00  0.00    +0.670 C 
ATOM     15  O   LIG    1        0.303   3.559   1.943  0.00  0.00    -0.600 OA
ATOM     16  C   LIG    1        2.011   4.267  -1.093  0.00  0.00    +0.260 C 
BRANCH  13  22
ATOM     17  C   LIG    1       -1.433  -0.534   0.013  0.00  0.00    +0.020 C 
ATOM     18  C   LIG    1        0.002  -0.004   0.002  0.00  0.00    -0.030 C 
ATOM     19  C   LIG    1        0.742  -0.511   1.242  0.00  0.00    +0.010 C 
ATOM     20  C   LIG    1        2.178   0.019   1.231  0.00  0.00    +0.000 C 
ATOM     21  C   LIG    1        2.157   1.548   1.239  0.00  0.00    -0.000 C 
ATOM     22  C   LIG    1        1.417   2.055  -0.000  0.00  0.00    +0.250 C 
ATOM     23  C   LIG    1       -0.019   1.526   0.010  0.00  0.00    +0.010 C 
ENDBRANCH  13  22
ENDBRANCH   1  14
TORSDOF 3
