REMARK  Name = ZINCAx0000000jHy.0
REMARK                            x       y       z     vdW  Elec       q    Type
REMARK                         _______ _______ _______ _____ _____    ______ ____
ROOT
ATOM      1  C   LIG    1        1.218  -0.282   0.986  0.00  0.00    +0.300 A 
ATOM      2  C   LIG    1        0.003   0.199   0.494  0.00  0.00    -0.030 A 
ATOM      3  C   LIG    1       -0.018   1.173  -0.481  0.00  0.00    +0.100 A 
ATOM      4  C   LIG    1        1.167   1.691  -0.988  0.00  0.00    +0.040 A 
ATOM      5  C   LIG    1        2.382   1.228  -0.514  0.00  0.00    -0.090 A 
ATOM      6  C   LIG    1        3.794   1.541  -0.815  0.00  0.00    +0.580 C 
ATOM      7  O   LIG    1        4.183   2.357  -1.627  0.00  0.00    -0.450 OA
ATOM      8  N   LIG    1        4.577   0.770  -0.038  0.00  0.00    -0.570 N 
ATOM      9  C   LIG    1        3.838  -0.027   0.753  0.00  0.00    +0.580 C 
ATOM     10  O   LIG    1        4.273  -0.828   1.557  0.00  0.00    -0.480 OA
ATOM     11  C   LIG    1        2.413   0.230   0.483  0.00  0.00    -0.250 A 
ENDROOT
BRANCH   8  12
ATOM     12  C   LIG    1        6.042   0.797  -0.052  0.00  0.00    +0.270 C 
ATOM     13  C   LIG    1        6.553   1.522   1.198  0.00  0.00    +0.060 C 
ATOM     14  C   LIG    1        6.148   0.709   2.433  0.00  0.00    +0.090 C 
ATOM     15  C   LIG    1        6.671  -0.696   2.292  0.00  0.00    +0.550 C 
ATOM     16  N   LIG    1        6.841  -1.259   1.087  0.00  0.00    -0.660 N 
ATOM     17  H   LIG    1        7.173  -2.170   1.040  0.00  0.00    +0.420 HD
ATOM     18  O   LIG    1        6.944  -1.331   3.289  0.00  0.00    -0.500 OA
ATOM     19  C   LIG    1        6.571  -0.613  -0.057  0.00  0.00    +0.520 C 
ATOM     20  O   LIG    1        6.756  -1.175  -1.115  0.00  0.00    -0.480 OA
ENDBRANCH   8  12
BRANCH   1  21
ATOM     21  N   LIG    1        1.236  -1.263   1.966  0.00  0.00    -0.720 N 
ATOM     22  H   LIG    1        2.082  -1.595   2.305  0.00  0.00    +0.410 HD
BRANCH  21  23
ATOM     23  C   LIG    1       -0.023  -1.798   2.490  0.00  0.00    +0.250 C 
BRANCH  23  24
ATOM     24  C   LIG    1        0.275  -2.858   3.552  0.00  0.00    +0.010 C 
BRANCH  24  25
ATOM     25  C   LIG    1       -1.040  -3.417   4.099  0.00  0.00    +0.030 C 
BRANCH  25  26
ATOM     26  C   LIG    1       -0.741  -4.477   5.161  0.00  0.00    +0.000 C 
BRANCH  26  27
ATOM     27  C   LIG    1       -2.056  -5.036   5.708  0.00  0.00    +0.000 C 
BRANCH  27  28
ATOM     28  C   LIG    1       -1.757  -6.096   6.770  0.00  0.00    +0.030 C 
BRANCH  28  29
ATOM     29  C   LIG    1       -3.072  -6.655   7.316  0.00  0.00    +0.040 C 
BRANCH  29  31
ATOM     30  O   LIG    1       -1.630  -7.970   8.643  0.00  0.00    -0.540 OA
ATOM     31  C   LIG    1       -2.778  -7.699   8.363  0.00  0.00    +0.510 C 
ATOM     32  N   LIG    1       -3.791  -8.332   8.986  0.00  0.00    -0.730 N 
ATOM     33  H   LIG    1       -4.710  -8.116   8.762  0.00  0.00    +0.400 HD
BRANCH  32  34
ATOM     34  C   LIG    1       -3.505  -9.348  10.003  0.00  0.00    +0.390 C 
BRANCH  34  35
ATOM     35  C   LIG    1       -4.801  -9.898  10.542  0.00  0.00    -0.040 A 
ATOM     36  C   LIG    1       -5.470 -10.957  10.051  0.00  0.00    -0.030 A 
ATOM     37  C   LIG    1       -6.622 -11.120  10.854  0.00  0.00    -0.070 A 
ATOM     38  C   LIG    1       -6.588 -10.152  11.787  0.00  0.00    +0.180 A 
ATOM     39  O   LIG    1       -5.479  -9.418  11.597  0.00  0.00    -0.170 OA
ENDBRANCH  34  35
ENDBRANCH  32  34
ENDBRANCH  29  31
ENDBRANCH  28  29
ENDBRANCH  27  28
ENDBRANCH  26  27
ENDBRANCH  25  26
ENDBRANCH  24  25
ENDBRANCH  23  24
ENDBRANCH  21  23
ENDBRANCH   1  21
TORSDOF 12
