REMARK  Name = ZINCvU00000005dx.0
REMARK                            x       y       z     vdW  Elec       q    Type
REMARK                         _______ _______ _______ _____ _____    ______ ____
ROOT
ATOM      1  C   LIG    1        4.417  -0.256  -3.490  0.00  0.00    +0.270 C 
ENDROOT
BRANCH   1  16
ATOM      2  C   LIG    1        4.615   2.422  -2.883  0.00  0.00    +0.040 C 
ATOM      3  C   LIG    1        3.688   1.544  -2.040  0.00  0.00    +0.260 C 
ATOM      4  C   LIG    1        2.281   1.619  -2.587  0.00  0.00    +0.050 A 
ATOM      5  C   LIG    1        1.492   0.534  -2.734  0.00  0.00    -0.170 A 
ATOM      6  C   LIG    1        0.222   0.989  -3.284  0.00  0.00    -0.090 A 
ATOM      7  C   LIG    1       -0.968   0.356  -3.649  0.00  0.00    +0.050 A 
ATOM      8  C   LIG    1       -2.005   1.092  -4.147  0.00  0.00    -0.020 A 
ATOM      9  C   LIG    1       -1.887   2.467  -4.295  0.00  0.00    +0.030 A 
ATOM     10  C   LIG    1       -0.725   3.114  -3.938  0.00  0.00    -0.010 A 
ATOM     11  C   LIG    1        0.346   2.385  -3.433  0.00  0.00    +0.100 A 
ATOM     12  C   LIG    1        1.917  -0.865  -2.370  0.00  0.00    +0.070 C 
ATOM     13  C   LIG    1        3.164  -0.763  -1.480  0.00  0.00    +0.210 C 
ATOM     14  N   LIG    1        1.608   2.732  -3.000  0.00  0.00    -0.580 N 
ATOM     15  H   LIG    1        1.966   3.634  -2.992  0.00  0.00    +0.410 HD
ATOM     16  N   LIG    1        4.137   0.144  -2.105  0.00  0.00    -0.500 NA
ENDBRANCH   1  16
BRANCH   1  17
ATOM     17  C   LIG    1        4.978  -1.655  -3.506  0.00  0.00    +0.220 A 
ATOM     18  C   LIG    1        4.282  -2.680  -4.109  0.00  0.00    -0.140 A 
ATOM     19  C   LIG    1        4.827  -3.965  -4.114  0.00  0.00    +0.520 A 
ATOM     20  N   LIG    1        6.033  -4.193  -3.515  0.00  0.00    -0.460 N 
ATOM     21  C   LIG    1        6.701  -5.396  -3.429  0.00  0.00    +0.130 A 
ATOM     22  C   LIG    1        7.880  -5.427  -2.800  0.00  0.00    +0.010 A 
ATOM     23  S   LIG    1        8.172  -3.764  -2.262  0.00  0.00    +0.190 S 
ATOM     24  C   LIG    1        6.659  -3.133  -2.934  0.00  0.00    +0.310 A 
ATOM     25  O   LIG    1        4.226  -4.883  -4.648  0.00  0.00    -0.500 OA
ATOM     26  N   LIG    1        6.147  -1.916  -2.933  0.00  0.00    -0.480 NA
BRANCH  21  27
ATOM     27  C   LIG    1        6.126  -6.624  -4.019  0.00  0.00    -0.060 A 
ATOM     28  C   LIG    1        4.869  -7.075  -3.614  0.00  0.00    +0.070 A 
ATOM     29  C   LIG    1        4.336  -8.218  -4.173  0.00  0.00    +0.010 A 
ATOM     30  C   LIG    1        5.050  -8.924  -5.125  0.00  0.00    +0.030 A 
ATOM     31  C   LIG    1        6.300  -8.486  -5.527  0.00  0.00    +0.000 A 
ATOM     32  C   LIG    1        6.841  -7.341  -4.980  0.00  0.00    +0.040 A 
ENDBRANCH  21  27
ENDBRANCH   1  17
TORSDOF 3
