REMARK  Name = ZINCrm00001177e6.0
REMARK                            x       y       z     vdW  Elec       q    Type
REMARK                         _______ _______ _______ _____ _____    ______ ____
ROOT
ATOM      1  C   LIG    1        2.058  -1.851  -0.218  0.00  0.00    +0.070 C 
ATOM      2  C   LIG    1        2.353  -2.810   0.938  0.00  0.00    +0.140 C 
ENDROOT
BRANCH   2   3
ATOM      3  O   LIG    1        3.477  -2.331   1.679  0.00  0.00    -0.550 OA
ATOM      4  H   LIG    1        3.618  -2.789   2.519  0.00  0.00    +0.380 HD
ENDBRANCH   2   3
BRANCH   2   5
ATOM      5  C   LIG    1        2.665  -4.200   0.380  0.00  0.00    +0.080 C 
BRANCH   5   6
ATOM      6  C   LIG    1        3.104  -5.104   1.503  0.00  0.00    -0.090 A 
ATOM      7  C   LIG    1        4.230  -4.792   2.241  0.00  0.00    +0.000 A 
ATOM      8  C   LIG    1        4.630  -5.620   3.274  0.00  0.00    +0.020 A 
ATOM      9  C   LIG    1        3.911  -6.764   3.561  0.00  0.00    +0.020 A 
ATOM     10  C   LIG    1        2.788  -7.079   2.819  0.00  0.00    +0.020 A 
ATOM     11  C   LIG    1        2.385  -6.249   1.790  0.00  0.00    +0.010 A 
ENDBRANCH   5   6
BRANCH   5  12
ATOM     12  C   LIG    1        3.767  -4.096  -0.642  0.00  0.00    -0.080 A 
ATOM     13  C   LIG    1        3.612  -4.674  -1.888  0.00  0.00    +0.010 A 
ATOM     14  C   LIG    1        4.622  -4.575  -2.827  0.00  0.00    +0.010 A 
ATOM     15  C   LIG    1        5.790  -3.905  -2.517  0.00  0.00    +0.010 A 
ATOM     16  C   LIG    1        5.948  -3.331  -1.269  0.00  0.00    +0.000 A 
ATOM     17  C   LIG    1        4.936  -3.426  -0.332  0.00  0.00    +0.030 A 
ENDBRANCH   5  12
ENDBRANCH   2   5
BRANCH   2  18
ATOM     18  C   LIG    1        1.133  -2.891   1.857  0.00  0.00    +0.270 C 
BRANCH  18  19
ATOM     19  N   LIG    1        0.762  -1.543   2.296  0.00  0.00    -0.700 N 
ATOM     20  H   LIG    1        1.274  -0.777   1.995  0.00  0.00    +0.410 HD
ATOM     21  C   LIG    1       -0.292  -1.369   3.118  0.00  0.00    +0.480 C 
ATOM     22  O   LIG    1       -0.990  -2.314   3.419  0.00  0.00    -0.490 OA
BRANCH  21  23
ATOM     23  C   LIG    1       -0.603   0.001   3.663  0.00  0.00    -0.140 C 
ATOM     24  C   LIG    1       -1.728  -0.073   4.721  0.00  0.00    +0.110 C 
ATOM     25  C   LIG    1       -1.001  -0.116   6.078  0.00  0.00    +0.300 C 
ATOM     26  N   LIG    1        0.450  -0.098   5.794  0.00  0.00    -0.520 N 
ATOM     27  H   LIG    1        0.809  -1.041   5.755  0.00  0.00    +0.440 HD
ATOM     28  H   LIG    1        0.937   0.432   6.501  0.00  0.00    +0.450 HD
ATOM     29  C   LIG    1        0.595   0.560   4.470  0.00  0.00    +0.320 C 
BRANCH  23  30
ATOM     30  C   LIG    1       -0.987   0.958   2.532  0.00  0.00    +0.320 C 
BRANCH  30  31
ATOM     31  N   LIG    1       -2.260   0.527   1.938  0.00  0.00    -0.640 N 
ATOM     32  H   LIG    1       -2.551   1.199   1.244  0.00  0.00    +0.460 HD
ATOM     33  H   LIG    1       -2.141  -0.375   1.504  0.00  0.00    +0.440 HD
ATOM     34  H   LIG    1       -2.963   0.464   2.659  0.00  0.00    +0.440 HD
ENDBRANCH  30  31
ENDBRANCH  23  30
ENDBRANCH  21  23
ENDBRANCH  18  19
ENDBRANCH   2  18
TORSDOF 9
