REMARK  Name = ZINCtV00000L6jvm.0
REMARK                            x       y       z     vdW  Elec       q    Type
REMARK                         _______ _______ _______ _____ _____    ______ ____
ROOT
ATOM      1  C   LIG    1        4.321   5.906  -0.001  0.00  0.00    +0.230 A 
ATOM      2  N   LIG    1        4.625   4.687   0.380  0.00  0.00    -0.270 NA
ATOM      3  N   LIG    1        3.606   3.917   0.242  0.00  0.00    -0.290 NA
ATOM      4  C   LIG    1        2.588   4.598  -0.236  0.00  0.00    +0.150 A 
ATOM      5  N   LIG    1        3.008   5.885  -0.412  0.00  0.00    -0.440 N 
ENDROOT
BRANCH   1  11
ATOM      6  C   LIG    1        4.993  10.830   0.452  0.00  0.00    +0.090 C 
ATOM      7  C   LIG    1        5.549   9.448   0.223  0.00  0.00    -0.080 A 
ATOM      8  C   LIG    1        6.907   9.276   0.019  0.00  0.00    +0.030 A 
ATOM      9  C   LIG    1        7.426   8.011  -0.192  0.00  0.00    +0.020 A 
ATOM     10  C   LIG    1        6.592   6.912  -0.195  0.00  0.00    +0.050 A 
ATOM     11  C   LIG    1        5.221   7.079   0.006  0.00  0.00    -0.010 A 
ATOM     12  C   LIG    1        4.704   8.358   0.218  0.00  0.00    +0.010 A 
ENDBRANCH   1  11
BRANCH   5  13
ATOM     13  C   LIG    1        2.224   7.009  -0.929  0.00  0.00    +0.250 C 
ATOM     14  C   LIG    1        1.083   7.324   0.041  0.00  0.00    +0.010 C 
ATOM     15  C   LIG    1        0.264   8.498  -0.499  0.00  0.00    +0.040 C 
ATOM     16  C   LIG    1       -0.315   8.130  -1.867  0.00  0.00    +0.010 C 
ATOM     17  C   LIG    1        0.826   7.816  -2.836  0.00  0.00    +0.040 C 
ATOM     18  C   LIG    1        1.645   6.642  -2.296  0.00  0.00    -0.020 C 
ATOM     19  C   LIG    1        2.786   6.327  -3.266  0.00  0.00    +0.030 C 
ENDBRANCH   5  13
BRANCH   4  20
ATOM     20  S   LIG    1        0.982   3.965  -0.590  0.00  0.00    +0.080 S 
BRANCH  20  21
ATOM     21  C   LIG    1        1.213   2.235  -0.111  0.00  0.00    +0.070 C 
BRANCH  21  22
ATOM     22  C   LIG    1       -0.070   1.476  -0.334  0.00  0.00    +0.450 C 
ATOM     23  O   LIG    1       -1.045   2.049  -0.779  0.00  0.00    -0.430 OA
BRANCH  22  24
ATOM     24  C   LIG    1       -0.137   0.100  -0.032  0.00  0.00    -0.310 A 
ATOM     25  C   LIG    1       -1.245  -0.696  -0.186  0.00  0.00    +0.140 A 
ATOM     26  C   LIG    1       -1.030  -1.999   0.182  0.00  0.00    +0.010 A 
ATOM     27  C   LIG    1        0.205  -2.268   0.632  0.00  0.00    -0.160 A 
ATOM     28 CL   LIG    1        0.739  -3.832   1.167  0.00  0.00    +0.000 Cl
ATOM     29  S   LIG    1        1.182  -0.870   0.609  0.00  0.00    +0.290 S 
ENDBRANCH  22  24
ENDBRANCH  21  22
ENDBRANCH  20  21
ENDBRANCH   4  20
TORSDOF 6
