REMARK  Name = ZINCpe00000MJMha.0
REMARK                            x       y       z     vdW  Elec       q    Type
REMARK                         _______ _______ _______ _____ _____    ______ ____
ROOT
ATOM      1  C   LIG    1       -2.244   1.289  -1.069  0.00  0.00    -0.020 C 
ATOM      2  C   LIG    1       -0.750   1.591  -1.235  0.00  0.00    +0.040 C 
ATOM      3  C   LIG    1       -0.013   1.086   0.008  0.00  0.00    +0.070 C 
ATOM      4  C   LIG    1       -0.712   1.568   1.246  0.00  0.00    +0.510 C 
ATOM      5  N   LIG    1       -1.964   2.024   1.256  0.00  0.00    -0.600 N 
ATOM      6  C   LIG    1       -2.542   2.418   2.544  0.00  0.00    +0.290 C 
ATOM      7  O   LIG    1       -0.105   1.543   2.296  0.00  0.00    -0.550 OA
ATOM      8  C   LIG    1       -2.795   2.154   0.066  0.00  0.00    +0.320 C 
ENDROOT
BRANCH   8   9
ATOM      9  C   LIG    1       -4.200   1.716   0.389  0.00  0.00    -0.260 A 
ATOM     10  C   LIG    1       -5.338   2.319  -0.027  0.00  0.00    +0.260 A 
ATOM     11  N   LIG    1       -6.379   1.623   0.475  0.00  0.00    -0.370 N 
ATOM     12  N   LIG    1       -5.865   0.557   1.224  0.00  0.00    -0.290 NA
ATOM     13  C   LIG    1       -7.798   1.929   0.272  0.00  0.00    +0.360 C 
ATOM     14  C   LIG    1       -4.559   0.610   1.167  0.00  0.00    +0.250 A 
ENDBRANCH   8   9
BRANCH   1  15
ATOM     15  C   LIG    1       -2.981   1.613  -2.370  0.00  0.00    +0.290 C 
BRANCH  15  17
ATOM     16  C   LIG    1       -3.035   0.813  -4.671  0.00  0.00    +0.570 C 
ATOM     17  N   LIG    1       -2.521   0.712  -3.429  0.00  0.00    -0.720 N 
ATOM     18  H   LIG    1       -1.846   0.042  -3.237  0.00  0.00    +0.400 HD
ATOM     19  O   LIG    1       -3.880   1.652  -4.911  0.00  0.00    -0.520 OA
BRANCH  16  23
ATOM     20  C   LIG    1       -3.126  -0.853  -9.401  0.00  0.00    +0.160 C 
ATOM     21  C   LIG    1       -2.603  -0.900  -7.989  0.00  0.00    +0.070 A 
ATOM     22  C   LIG    1       -3.092  -0.017  -7.039  0.00  0.00    +0.100 A 
ATOM     23  C   LIG    1       -2.569  -0.098  -5.742  0.00  0.00    -0.130 A 
ATOM     24  C   LIG    1       -1.599  -1.071  -5.491  0.00  0.00    +0.230 A 
ATOM     25  N   LIG    1       -1.205  -1.867  -6.467  0.00  0.00    -0.230 NA
ATOM     26  N   LIG    1       -1.684  -1.785  -7.654  0.00  0.00    -0.220 NA
ENDBRANCH  16  23
ENDBRANCH  15  17
ENDBRANCH   1  15
TORSDOF 4
