REMARK  Name = ZINCqH0000006Rp7.0
REMARK                            x       y       z     vdW  Elec       q    Type
REMARK                         _______ _______ _______ _____ _____    ______ ____
ROOT
ATOM      1  N   LIG    1        1.235  -2.081  -0.021  0.00  0.00    -0.660 N 
ATOM      2  H   LIG    1        2.079  -2.553  -0.096  0.00  0.00    +0.420 HD
ATOM      3  C   LIG    1        0.084  -2.774   0.089  0.00  0.00    +0.520 C 
ATOM      4  O   LIG    1       -0.978  -2.187   0.102  0.00  0.00    -0.500 OA
ENDROOT
BRANCH   1   7
ATOM      5  C   LIG    1        0.134   1.382  -0.618  0.00  0.00    +0.120 A 
ATOM      6  C   LIG    1        0.155  -0.004  -0.615  0.00  0.00    +0.000 A 
ATOM      7  C   LIG    1        1.212  -0.680  -0.025  0.00  0.00    +0.160 A 
ATOM      8  C   LIG    1        2.251   0.036   0.565  0.00  0.00    +0.080 A 
ATOM      9  C   LIG    1        2.226   1.421   0.560  0.00  0.00    +0.010 A 
ATOM     10  C   LIG    1        1.171   2.093  -0.030  0.00  0.00    -0.050 A 
ATOM     11 CL   LIG    1        1.143   3.829  -0.035  0.00  0.00    -0.050 Cl
BRANCH   5  13
ATOM     12  C   LIG    1       -1.929   1.250  -1.793  0.00  0.00    +0.240 C 
ATOM     13  O   LIG    1       -0.900   2.045  -1.202  0.00  0.00    -0.300 OA
ENDBRANCH   5  13
BRANCH   8  14
ATOM     14  O   LIG    1        3.290  -0.624   1.144  0.00  0.00    -0.310 OA
ATOM     15  C   LIG    1        4.321   0.174   1.730  0.00  0.00    +0.250 C 
ENDBRANCH   8  14
ENDBRANCH   1   7
BRANCH   3  16
ATOM     16  C   LIG    1        0.116  -4.277   0.195  0.00  0.00    +0.100 C 
BRANCH  16  17
ATOM     17  C   LIG    1       -1.314  -4.810   0.307  0.00  0.00    +0.070 C 
ATOM     18  S   LIG    1       -2.050  -4.257   1.875  0.00  0.00    -0.040 S 
ATOM     19  C   LIG    1       -1.234  -5.299   3.043  0.00  0.00    -0.150 A 
ATOM     20  C   LIG    1       -1.012  -4.850   4.335  0.00  0.00    +0.080 A 
ATOM     21  C   LIG    1       -0.390  -5.675   5.255  0.00  0.00    +0.000 A 
ATOM     22  C   LIG    1        0.009  -6.945   4.882  0.00  0.00    +0.050 A 
ATOM     23  C   LIG    1       -0.205  -7.395   3.594  0.00  0.00    -0.010 A 
ATOM     24  C   LIG    1       -0.826  -6.575   2.658  0.00  0.00    +0.160 A 
ATOM     25  N   LIG    1       -1.019  -7.050   1.364  0.00  0.00    -0.650 N 
ATOM     26  H   LIG    1       -0.947  -8.009   1.233  0.00  0.00    +0.420 HD
ATOM     27  C   LIG    1       -1.294  -6.316   0.290  0.00  0.00    +0.530 C 
ATOM     28  O   LIG    1       -1.540  -6.886  -0.753  0.00  0.00    -0.510 OA
ENDBRANCH  16  17
ENDBRANCH   3  16
TORSDOF 5
