REMARK  Name = ZINCkj00000GeOwZ.1
REMARK                            x       y       z     vdW  Elec       q    Type
REMARK                         _______ _______ _______ _____ _____    ______ ____
ROOT
ATOM      1  N   LIG    1       -0.012   1.005   0.008  0.00  0.00    -0.390 N 
ATOM      2  C   LIG    1       -0.701   1.478   1.215  0.00  0.00    +0.280 C 
ATOM      3  C   LIG    1        0.028   0.957   2.456  0.00  0.00    +0.200 C 
ATOM      4  N   LIG    1        1.417   1.437   2.443  0.00  0.00    -0.530 NA
ATOM      5  C   LIG    1        2.112   0.992   1.228  0.00  0.00    +0.210 C 
ATOM      6  C   LIG    1        1.367   1.513  -0.003  0.00  0.00    +0.260 C 
ATOM      7  H   LIG    1        0.002  -0.004   0.002  0.00  0.00    +0.430 HD
ENDROOT
BRANCH   1   8
ATOM      8  C   LIG    1       -0.722   1.491  -1.183  0.00  0.00    +0.280 C 
BRANCH   8   9
ATOM      9  C   LIG    1       -0.080   0.896  -2.438  0.00  0.00    +0.200 C 
BRANCH   9  10
ATOM     10  O   LIG    1       -0.263  -0.521  -2.441  0.00  0.00    -0.400 OA
BRANCH  10  12
ATOM     11  C   LIG    1        1.748  -1.575  -3.269  0.00  0.00    +0.020 C 
ATOM     12  C   LIG    1        0.303  -1.177  -3.577  0.00  0.00    +0.160 C 
ATOM     13  C   LIG    1       -0.513  -2.431  -3.900  0.00  0.00    +0.060 C 
ENDBRANCH  10  12
ENDBRANCH   9  10
ENDBRANCH   8   9
ENDBRANCH   1   8
BRANCH   4  14
ATOM     14  C   LIG    1        2.134   1.003   3.649  0.00  0.00    +0.180 C 
BRANCH  14  15
ATOM     15  C   LIG    1        1.265   1.262   4.881  0.00  0.00    +0.320 C 
BRANCH  15  16
ATOM     16  C   LIG    1        2.001   0.817   6.119  0.00  0.00    -0.070 A 
ATOM     17  C   LIG    1        1.874  -0.378   6.723  0.00  0.00    -0.040 A 
ATOM     18  C   LIG    1        2.745  -0.368   7.837  0.00  0.00    -0.070 A 
ATOM     19  C   LIG    1        3.346   0.835   7.851  0.00  0.00    +0.190 A 
ATOM     20  O   LIG    1        2.892   1.549   6.808  0.00  0.00    -0.170 OA
ENDBRANCH  15  16
BRANCH  15  21
ATOM     21  O   LIG    1        0.976   2.659   4.975  0.00  0.00    -0.540 OA
ATOM     22  H   LIG    1        1.760   3.218   5.057  0.00  0.00    +0.390 HD
ENDBRANCH  15  21
ENDBRANCH  14  15
ENDBRANCH   4  14
TORSDOF 8
