REMARK  Name = ZINCqH00000014Fq.0
REMARK                            x       y       z     vdW  Elec       q    Type
REMARK                         _______ _______ _______ _____ _____    ______ ____
ROOT
ATOM      1  N   LIG    1       -2.419   3.834   0.047  0.00  0.00    -0.690 N 
ATOM      2  H   LIG    1       -3.252   3.337   0.053  0.00  0.00    +0.420 HD
ENDROOT
BRANCH   1   9
ATOM      3  C   LIG    1        2.432   3.592  -0.002  0.00  0.00    +0.220 A 
ATOM      4  N   LIG    1        3.195   2.527  -0.015  0.00  0.00    -0.260 NA
ATOM      5  N   LIG    1        2.470   1.463  -0.014  0.00  0.00    -0.250 NA
ATOM      6  C   LIG    1        1.192   1.805   0.000  0.00  0.00    +0.110 A 
ATOM      7  C   LIG    1       -0.013   1.076   0.008  0.00  0.00    +0.190 A 
ATOM      8  C   LIG    1       -1.194   1.748   0.017  0.00  0.00    -0.020 A 
ATOM      9  C   LIG    1       -1.204   3.157   0.032  0.00  0.00    +0.420 A 
ATOM     10  N   LIG    1       -0.083   3.838   0.024  0.00  0.00    -0.330 NA
ATOM     11  N   LIG    1        1.147   3.178   0.008  0.00  0.00    -0.270 N 
BRANCH   3  13
ATOM     12  C   LIG    1        4.434   5.056  -0.014  0.00  0.00    +0.080 C 
ATOM     13  C   LIG    1        2.904   5.024   0.001  0.00  0.00    +0.030 C 
ATOM     14  C   LIG    1        2.391   5.727   1.260  0.00  0.00    +0.050 C 
ATOM     15  C   LIG    1        2.366   5.741  -1.239  0.00  0.00    +0.050 C 
ENDBRANCH   3  13
ENDBRANCH   1   9
BRANCH   1  16
ATOM     16  C   LIG    1       -2.441   5.299   0.055  0.00  0.00    +0.240 C 
ATOM     17  C   LIG    1       -2.341   5.821  -1.382  0.00  0.00    -0.010 C 
ATOM     18  C   LIG    1       -2.444   7.348  -1.370  0.00  0.00    +0.220 C 
ATOM     19  O   LIG    1       -3.673   7.737  -0.753  0.00  0.00    -0.370 OA
ATOM     20  C   LIG    1       -3.802   7.317   0.607  0.00  0.00    +0.210 C 
ATOM     21  C   LIG    1       -3.752   5.789   0.677  0.00  0.00    +0.010 C 
BRANCH  20  22
ATOM     22  C   LIG    1       -5.116   7.804   1.161  0.00  0.00    -0.090 A 
ATOM     23  C   LIG    1       -6.252   7.772   0.373  0.00  0.00    +0.040 A 
ATOM     24  C   LIG    1       -7.459   8.214   0.883  0.00  0.00    +0.000 A 
ATOM     25  C   LIG    1       -7.527   8.697   2.177  0.00  0.00    +0.010 A 
ATOM     26  C   LIG    1       -6.390   8.734   2.962  0.00  0.00    +0.000 A 
ATOM     27  C   LIG    1       -5.185   8.287   2.454  0.00  0.00    +0.010 A 
ENDBRANCH  20  22
ENDBRANCH   1  16
TORSDOF 4
