REMARK  Name = ZINCtV000002Gwt0.0
REMARK                            x       y       z     vdW  Elec       q    Type
REMARK                         _______ _______ _______ _____ _____    ______ ____
ROOT
ATOM      1  C   LIG    1       -0.116   1.639   0.733  0.00  0.00    +0.160 C 
ATOM      2  C   LIG    1       -0.064   0.155   0.479  0.00  0.00    +0.100 A 
ATOM      3  N   LIG    1       -0.009  -0.776   1.397  0.00  0.00    -0.260 NA
ATOM      4  N   LIG    1        0.025  -2.024   0.760  0.00  0.00    -0.350 N 
ATOM      5  C   LIG    1       -0.011  -1.806  -0.583  0.00  0.00    +0.310 A 
ATOM      6  C   LIG    1       -0.072  -0.460  -0.776  0.00  0.00    -0.070 A 
ENDROOT
BRANCH   4   7
ATOM      7  C   LIG    1        0.086  -3.273   1.393  0.00  0.00    +0.160 A 
ATOM      8  C   LIG    1       -0.799  -4.279   1.032  0.00  0.00    +0.070 A 
ATOM      9  C   LIG    1       -0.738  -5.510   1.658  0.00  0.00    -0.160 A 
ATOM     10  C   LIG    1        0.205  -5.740   2.643  0.00  0.00    +0.110 A 
ATOM     11  C   LIG    1        1.088  -4.739   3.006  0.00  0.00    +0.070 A 
ATOM     12  C   LIG    1        1.036  -3.509   2.380  0.00  0.00    -0.000 A 
ATOM     13 CL   LIG    1        2.151  -2.256   2.830  0.00  0.00    -0.020 Cl
BRANCH   9  14
ATOM     14  C   LIG    1       -1.699  -6.602   1.266  0.00  0.00    +0.510 C 
ATOM     15  F   LIG    1       -2.901  -6.032   0.834  0.00  0.00    -0.170 F 
ATOM     16  F   LIG    1       -1.943  -7.426   2.370  0.00  0.00    -0.170 F 
ATOM     17  F   LIG    1       -1.145  -7.362   0.231  0.00  0.00    -0.170 F 
ENDBRANCH   9  14
ENDBRANCH   4   7
BRANCH   5  18
ATOM     18  N   LIG    1        0.005  -2.782  -1.577  0.00  0.00    -0.650 N 
ATOM     19  H   LIG    1       -0.035  -3.721  -1.336  0.00  0.00    +0.410 HD
ATOM     20  C   LIG    1        0.076  -2.422  -2.874  0.00  0.00    +0.570 C 
ATOM     21  O   LIG    1        0.225  -1.253  -3.173  0.00  0.00    -0.460 OA
BRANCH  20  22
ATOM     22  C   LIG    1       -0.028  -3.446  -3.932  0.00  0.00    -0.110 A 
ATOM     23  C   LIG    1       -0.090  -4.800  -3.592  0.00  0.00    +0.070 A 
ATOM     24  C   LIG    1       -0.187  -5.754  -4.585  0.00  0.00    +0.070 A 
ATOM     25  C   LIG    1       -0.223  -5.369  -5.919  0.00  0.00    +0.120 A 
ATOM     26  C   LIG    1       -0.162  -4.028  -6.261  0.00  0.00    +0.050 A 
ATOM     27  F   LIG    1       -0.318  -6.307  -6.887  0.00  0.00    -0.110 F 
ATOM     28  F   LIG    1       -0.248  -7.063  -4.259  0.00  0.00    -0.110 F 
ATOM     29  C   LIG    1       -0.071  -3.066  -5.276  0.00  0.00    +0.040 A 
ATOM     30 CL   LIG    1       -0.002  -1.385  -5.706  0.00  0.00    +0.000 Cl
ENDBRANCH  20  22
ENDBRANCH   5  18
TORSDOF 4
