REMARK  Name = ZINCpe00000VVH6J.0
REMARK                            x       y       z     vdW  Elec       q    Type
REMARK                         _______ _______ _______ _____ _____    ______ ____
ROOT
ATOM      1  C   LIG    1       -0.963   4.344   3.590  0.00  0.00    +0.610 C 
ATOM      2  N   LIG    1       -0.432   3.348   2.853  0.00  0.00    -0.600 N 
ATOM      3  C   LIG    1        0.440   2.243   3.313  0.00  0.00    +0.240 C 
ATOM      4  C   LIG    1       -0.051   1.007   2.529  0.00  0.00    +0.180 C 
ATOM      5  C   LIG    1       -0.729   1.579   1.267  0.00  0.00    -0.010 C 
ATOM      6  C   LIG    1       -0.591   3.111   1.397  0.00  0.00    +0.280 C 
ATOM      7  O   LIG    1       -0.740   4.402   4.783  0.00  0.00    -0.520 OA
ENDROOT
BRANCH   1  10
ATOM      8  N   LIG    1       -2.792   6.162   1.051  0.00  0.00    -0.340 N 
ATOM      9  N   LIG    1       -2.053   5.303   1.655  0.00  0.00    -0.180 NA
ATOM     10  C   LIG    1       -1.818   5.365   2.946  0.00  0.00    +0.020 A 
ATOM     11  C   LIG    1       -2.375   6.410   3.723  0.00  0.00    +0.130 A 
ATOM     12  C   LIG    1       -3.157   7.333   3.095  0.00  0.00    -0.010 A 
ATOM     13  C   LIG    1       -3.365   7.190   1.705  0.00  0.00    +0.480 A 
ATOM     14  O   LIG    1       -4.058   7.992   1.101  0.00  0.00    -0.520 OA
BRANCH   8  15
ATOM     15  C   LIG    1       -3.014   6.022  -0.391  0.00  0.00    +0.320 C 
BRANCH  15  17
ATOM     16  C   LIG    1       -2.158   6.640  -2.655  0.00  0.00    +0.030 C 
ATOM     17  C   LIG    1       -1.927   6.786  -1.150  0.00  0.00    +0.000 C 
ENDBRANCH  15  17
ENDBRANCH   8  15
ENDBRANCH   1  10
BRANCH   4  18
ATOM     18  N   LIG    1       -1.020   0.246   3.329  0.00  0.00    -0.520 NA
ATOM     19  C   LIG    1       -2.121   1.109   3.782  0.00  0.00    +0.140 C 
ATOM     20  C   LIG    1       -3.135   0.266   4.559  0.00  0.00    +0.220 C 
ATOM     21  O   LIG    1       -2.474  -0.383   5.648  0.00  0.00    -0.380 OA
ATOM     22  C   LIG    1       -1.396  -1.232   5.243  0.00  0.00    +0.220 C 
ATOM     23  C   LIG    1       -0.364  -0.404   4.473  0.00  0.00    +0.150 C 
ENDBRANCH   4  18
BRANCH   5  24
ATOM     24  C   LIG    1       -0.013   1.086   0.008  0.00  0.00    +0.020 C 
ATOM     25  C   LIG    1       -0.753   1.593  -1.232  0.00  0.00    +0.020 C 
ENDBRANCH   5  24
TORSDOF 5
