REMARK  Name = ZINCnE000001R8Yj.0
REMARK                            x       y       z     vdW  Elec       q    Type
REMARK                         _______ _______ _______ _____ _____    ______ ____
ROOT
ATOM      1  C   LIG    1       -4.744   0.950   5.031  0.00  0.00    +0.250 A 
ATOM      2  C   LIG    1       -5.015   2.247   4.617  0.00  0.00    -0.040 A 
ATOM      3  C   LIG    1       -4.463   2.726   3.445  0.00  0.00    -0.050 A 
ATOM      4  C   LIG    1       -3.640   1.912   2.682  0.00  0.00    +0.020 A 
ATOM      5  C   LIG    1       -3.374   0.614   3.092  0.00  0.00    +0.020 A 
ATOM      6  C   LIG    1       -3.920   0.135   4.267  0.00  0.00    -0.130 A 
ENDROOT
BRANCH   1   7
ATOM      7  N   LIG    1       -5.303   0.463   6.218  0.00  0.00    -1.090 NA
BRANCH   7   8
ATOM      8  S   LIG    1       -4.981  -1.084   6.712  0.00  0.00    +2.630 S 
ATOM      9  O   LIG    1       -3.596  -1.124   7.028  0.00  0.00    -1.020 OA
ATOM     10  O   LIG    1       -5.585  -1.945   5.756  0.00  0.00    -1.030 OA
BRANCH   8  17
ATOM     11  C   LIG    1       -4.029  -0.578   9.944  0.00  0.00    +0.170 C 
ATOM     12  C   LIG    1       -5.383  -1.105   9.542  0.00  0.00    +0.100 A 
ATOM     13  N   LIG    1       -6.359  -1.433  10.338  0.00  0.00    -0.380 NA
ATOM     14  O   LIG    1       -7.321  -1.830   9.722  0.00  0.00    +0.080 OA
ATOM     15  C   LIG    1       -7.103  -1.810   8.400  0.00  0.00    +0.080 A 
ATOM     16  C   LIG    1       -8.066  -2.230   7.320  0.00  0.00    +0.210 C 
ATOM     17  C   LIG    1       -5.845  -1.339   8.226  0.00  0.00    -0.730 A 
ENDBRANCH   8  17
ENDBRANCH   7   8
ENDBRANCH   1   7
BRANCH   4  18
ATOM     18  O   LIG    1       -3.098   2.384   1.527  0.00  0.00    -0.320 OA
BRANCH  18  19
ATOM     19  C   LIG    1       -3.320   3.763   1.223  0.00  0.00    +0.150 C 
ATOM     20  C   LIG    1       -4.633   3.938   0.413  0.00  0.00    +0.000 C 
ATOM     21  C   LIG    1       -4.402   5.284  -0.318  0.00  0.00    +0.020 C 
ATOM     22  C   LIG    1       -2.908   5.259  -0.700  0.00  0.00    +0.000 C 
ATOM     23  C   LIG    1       -2.220   4.291   0.280  0.00  0.00    +0.030 C 
ENDBRANCH  18  19
ENDBRANCH   4  18
TORSDOF 5
