REMARK  Name = ZINCrg000000tSc7.0
REMARK                            x       y       z     vdW  Elec       q    Type
REMARK                         _______ _______ _______ _____ _____    ______ ____
ROOT
ATOM      1  C   LIG    1        1.176   1.783   0.000  0.00  0.00    -0.170 A 
ATOM      2  C   LIG    1       -0.013   1.076   0.008  0.00  0.00    +0.080 A 
ATOM      3  C   LIG    1       -1.218   1.749   0.017  0.00  0.00    -0.060 A 
ATOM      4  C   LIG    1       -1.236   3.138   0.031  0.00  0.00    +0.220 A 
ATOM      5  C   LIG    1       -0.040   3.845   0.023  0.00  0.00    -0.060 A 
ATOM      6  C   LIG    1        1.162   3.166   0.008  0.00  0.00    +0.050 A 
ENDROOT
BRANCH   1  10
ATOM      7  O   LIG    1        3.516   2.768   2.903  0.00  0.00    -0.490 OA
ATOM      8  C   LIG    1        3.591   2.373   1.760  0.00  0.00    +0.530 C 
ATOM      9  C   LIG    1        3.071   1.005   1.399  0.00  0.00    +0.100 C 
ATOM     10  C   LIG    1        2.490   1.044  -0.017  0.00  0.00    +0.310 C 
ATOM     11  N   LIG    1        3.424   1.732  -0.909  0.00  0.00    -0.720 N 
ATOM     12  H   LIG    1        3.519   1.431  -1.827  0.00  0.00    +0.430 HD
ATOM     13  C   LIG    1        4.152   2.774  -0.477  0.00  0.00    +0.710 C 
ATOM     14  O   LIG    1        4.840   3.387  -1.269  0.00  0.00    -0.560 OA
ATOM     15  N   LIG    1        4.139   3.155   0.812  0.00  0.00    -0.680 N 
ATOM     16  H   LIG    1        4.530   4.007   1.062  0.00  0.00    +0.430 HD
ENDBRANCH   1  10
BRANCH   4  17
ATOM     17  N   LIG    1       -2.454   3.822   0.046  0.00  0.00    -0.730 N 
ATOM     18  H   LIG    1       -2.465   4.792   0.052  0.00  0.00    +0.410 HD
BRANCH  17  19
ATOM     19  C   LIG    1       -3.714   3.075   0.054  0.00  0.00    +0.270 C 
ATOM     20  C   LIG    1       -4.875   3.964  -0.437  0.00  0.00    +0.110 C 
ATOM     21  C   LIG    1       -5.808   4.017   0.753  0.00  0.00    +0.530 C 
ATOM     22  N   LIG    1       -5.289   3.294   1.753  0.00  0.00    -0.580 N 
ATOM     23  O   LIG    1       -6.859   4.620   0.794  0.00  0.00    -0.460 OA
ATOM     24  C   LIG    1       -4.113   2.720   1.470  0.00  0.00    +0.500 C 
ATOM     25  O   LIG    1       -3.471   2.026   2.228  0.00  0.00    -0.440 OA
BRANCH  22  26
ATOM     26  C   LIG    1       -5.953   3.144   3.050  0.00  0.00    +0.340 C 
BRANCH  26  27
ATOM     27  C   LIG    1       -5.495   4.262   3.990  0.00  0.00    +0.440 C 
ATOM     28  F   LIG    1       -4.109   4.186   4.164  0.00  0.00    -0.170 F 
ATOM     29  F   LIG    1       -6.129   4.119   5.229  0.00  0.00    -0.170 F 
ATOM     30  F   LIG    1       -5.829   5.503   3.436  0.00  0.00    -0.170 F 
ENDBRANCH  26  27
ENDBRANCH  22  26
ENDBRANCH  17  19
ENDBRANCH   4  17
TORSDOF 5
