REMARK  Name = ZINCrD000000CC18.0
REMARK                            x       y       z     vdW  Elec       q    Type
REMARK                         _______ _______ _______ _____ _____    ______ ____
ROOT
ATOM      1  O   LIG    1       -1.160   1.327  -3.232  0.00  0.00    -0.530 OA
ATOM      2  C   LIG    1       -1.091   0.740  -2.170  0.00  0.00    +0.570 C 
ATOM      3  N   LIG    1       -1.405   1.379  -1.025  0.00  0.00    -0.610 N 
ATOM      4  C   LIG    1       -1.452   0.658   0.257  0.00  0.00    +0.240 C 
ATOM      5  C   LIG    1       -2.787   0.973   0.941  0.00  0.00    +0.220 C 
ATOM      6  O   LIG    1       -2.961   2.390   1.003  0.00  0.00    -0.370 OA
ATOM      7  C   LIG    1       -3.034   3.028  -0.275  0.00  0.00    +0.190 C 
ATOM      8  C   LIG    1       -1.712   2.818  -1.021  0.00  0.00    +0.280 C 
ENDROOT
BRANCH   2   9
ATOM      9  C   LIG    1       -0.663  -0.671  -2.133  0.00  0.00    -0.140 A 
ATOM     10  C   LIG    1       -0.950  -1.518  -3.207  0.00  0.00    +0.100 A 
ATOM     11  C   LIG    1       -0.550  -2.835  -3.171  0.00  0.00    +0.000 A 
ATOM     12  C   LIG    1        0.140  -3.324  -2.067  0.00  0.00    +0.100 A 
ATOM     13  C   LIG    1        0.428  -2.483  -0.993  0.00  0.00    +0.070 A 
ATOM     14  F   LIG    1        1.099  -2.961   0.078  0.00  0.00    -0.130 F 
ATOM     15  C   LIG    1        0.035  -1.163  -1.026  0.00  0.00    +0.040 A 
BRANCH  12  16
ATOM     16  N   LIG    1        0.543  -4.656  -2.034  0.00  0.00    -0.470 N 
ATOM     17  C   LIG    1        0.308  -5.316  -3.343  0.00  0.00    +0.190 C 
ATOM     18  C   LIG    1        1.255  -6.541  -3.298  0.00  0.00    +0.030 C 
ATOM     19  C   LIG    1        2.501  -5.989  -2.568  0.00  0.00    +0.020 C 
ATOM     20  C   LIG    1        1.996  -4.764  -1.782  0.00  0.00    +0.190 C 
ENDBRANCH  12  16
ENDBRANCH   2   9
BRANCH   7  21
ATOM     21  C   LIG    1       -3.278   4.503  -0.088  0.00  0.00    -0.070 A 
ATOM     22  C   LIG    1       -2.636   5.186   0.929  0.00  0.00    +0.030 A 
ATOM     23  C   LIG    1       -2.857   6.540   1.103  0.00  0.00    +0.030 A 
ATOM     24  C   LIG    1       -3.721   7.214   0.261  0.00  0.00    -0.010 A 
ATOM     25  C   LIG    1       -4.366   6.531  -0.760  0.00  0.00    +0.110 A 
ATOM     26  C   LIG    1       -4.138   5.174  -0.936  0.00  0.00    +0.000 A 
BRANCH  25  27
ATOM     27  O   LIG    1       -5.216   7.191  -1.590  0.00  0.00    -0.500 OA
ATOM     28  H   LIG    1       -4.790   7.562  -2.375  0.00  0.00    +0.390 HD
ENDBRANCH  25  27
ENDBRANCH   7  21
TORSDOF 4
