REMARK  Name = ZINCrg00000agWSr.0
REMARK                            x       y       z     vdW  Elec       q    Type
REMARK                         _______ _______ _______ _____ _____    ______ ____
ROOT
ATOM      1  N   LIG    1        1.995  -2.187  -1.414  0.00  0.00    -0.540 NA
ATOM      2  C   LIG    1        0.696  -2.316  -2.087  0.00  0.00    +0.190 C 
ATOM      3  C   LIG    1        0.916  -2.639  -3.566  0.00  0.00    +0.070 C 
ATOM      4  C   LIG    1        1.707  -3.943  -3.687  0.00  0.00    +0.110 C 
ATOM      5  C   LIG    1        1.986  -4.236  -5.164  0.00  0.00    +0.270 C 
ATOM      6  N   LIG    1        2.578  -5.580  -5.268  0.00  0.00    -0.620 N 
ATOM      7  C   LIG    1        1.893  -6.691  -4.588  0.00  0.00    +0.240 C 
ATOM      8  C   LIG    1        1.623  -6.278  -3.137  0.00  0.00    +0.210 C 
ATOM      9  C   LIG    1        3.713  -5.786  -5.964  0.00  0.00    +0.520 C 
ATOM     10  O   LIG    1        4.263  -4.857  -6.517  0.00  0.00    -0.510 OA
ATOM     11  C   LIG    1        3.034  -3.801  -2.936  0.00  0.00    +0.020 C 
ATOM     12  O   LIG    1        0.951  -5.016  -3.124  0.00  0.00    -0.360 OA
ATOM     13  C   LIG    1        2.752  -3.444  -1.475  0.00  0.00    +0.190 C 
ENDROOT
BRANCH   1  14
ATOM     14  C   LIG    1        1.827  -1.740  -0.025  0.00  0.00    +0.360 C 
BRANCH  14  18
ATOM     15  C   LIG    1       -0.016   1.341   0.009  0.00  0.00    +0.170 A 
ATOM     16  N   LIG    1        1.218   1.747  -0.000  0.00  0.00    -0.350 NA
ATOM     17  O   LIG    1        1.972   0.797  -0.013  0.00  0.00    +0.090 OA
ATOM     18  C   LIG    1        1.270  -0.340  -0.012  0.00  0.00    +0.190 A 
ATOM     19  N   LIG    1        0.002  -0.004   0.002  0.00  0.00    -0.470 NA
BRANCH  15  20
ATOM     20  C   LIG    1       -1.243   2.216   0.020  0.00  0.00    +0.270 C 
ATOM     21  C   LIG    1       -1.448   2.824  -1.369  0.00  0.00    +0.040 C 
BRANCH  20  22
ATOM     22  O   LIG    1       -1.073   3.263   0.978  0.00  0.00    -0.370 OA
BRANCH  22  24
ATOM     23  C   LIG    1       -1.992   4.829   2.572  0.00  0.00    +0.050 C 
ATOM     24  C   LIG    1       -2.293   3.714   1.569  0.00  0.00    +0.160 C 
ENDBRANCH  22  24
ENDBRANCH  20  22
ENDBRANCH  15  20
ENDBRANCH  14  18
ENDBRANCH   1  14
BRANCH   9  25
ATOM     25  C   LIG    1        4.300  -7.171  -6.056  0.00  0.00    +0.200 C 
BRANCH  25  26
ATOM     26  O   LIG    1        5.493  -7.132  -6.841  0.00  0.00    -0.370 OA
ATOM     27  C   LIG    1        6.132  -8.401  -6.991  0.00  0.00    +0.220 C 
ENDBRANCH  25  26
ENDBRANCH   9  25
TORSDOF 7
