REMARK  Name = ZINCpe00000z43xp.1
REMARK                            x       y       z     vdW  Elec       q    Type
REMARK                         _______ _______ _______ _____ _____    ______ ____
ROOT
ATOM      1  C   LIG    1       -2.883   8.009   3.246  0.00  0.00    +0.600 C 
ATOM      2  N   LIG    1       -2.676   6.722   2.903  0.00  0.00    -0.600 N 
ATOM      3  C   LIG    1       -2.838   5.649   3.894  0.00  0.00    +0.290 C 
ATOM      4  C   LIG    1       -1.540   4.833   3.949  0.00  0.00    +0.280 C 
ATOM      5  N   LIG    1       -1.149   4.479   2.578  0.00  0.00    -0.620 N 
ATOM      6  C   LIG    1       -0.982   5.553   1.588  0.00  0.00    +0.270 C 
ATOM      7  C   LIG    1       -0.942   3.192   2.234  0.00  0.00    +0.530 C 
ATOM      8  O   LIG    1       -1.168   2.307   3.033  0.00  0.00    -0.520 OA
ATOM      9  C   LIG    1       -2.285   6.367   1.532  0.00  0.00    +0.290 C 
ATOM     10  O   LIG    1       -3.094   8.302   4.407  0.00  0.00    -0.510 OA
ENDROOT
BRANCH   1  20
ATOM     11  C   LIG    1       -3.058  11.108   3.792  0.00  0.00    +0.140 C 
ATOM     12  C   LIG    1       -2.929  10.440   2.447  0.00  0.00    -0.180 A 
ATOM     13  C   LIG    1       -2.863  11.078   1.218  0.00  0.00    +0.100 A 
ATOM     14  C   LIG    1       -2.891  12.437   0.843  0.00  0.00    +0.050 A 
ATOM     15  C   LIG    1       -2.812  12.764  -0.475  0.00  0.00    +0.050 A 
ATOM     16  C   LIG    1       -2.705  11.746  -1.437  0.00  0.00    +0.010 A 
ATOM     17  C   LIG    1       -2.679  10.450  -1.063  0.00  0.00    +0.270 A 
ATOM     18  N   LIG    1       -2.757  10.104   0.257  0.00  0.00    -0.260 N 
ATOM     19  N   LIG    1       -2.753   8.863   0.906  0.00  0.00    -0.290 NA
ATOM     20  C   LIG    1       -2.852   9.064   2.211  0.00  0.00    +0.060 A 
ENDBRANCH   1  20
BRANCH   7  21
ATOM     21  C   LIG    1       -0.430   2.852   0.858  0.00  0.00    +0.170 C 
ATOM     22  C   LIG    1        1.044   3.248   0.750  0.00  0.00    +0.020 C 
BRANCH  21  23
ATOM     23  N   LIG    1       -0.567   1.408   0.628  0.00  0.00    -0.530 NA
ATOM     24  C   LIG    1        0.345   0.647   1.492  0.00  0.00    +0.200 C 
ATOM     25  C   LIG    1       -0.349   1.077  -0.787  0.00  0.00    +0.190 C 
ENDBRANCH  21  23
ENDBRANCH   7  21
TORSDOF 3
