REMARK  Name = ZINCnE000001LYHW.0
REMARK                            x       y       z     vdW  Elec       q    Type
REMARK                         _______ _______ _______ _____ _____    ______ ____
ROOT
ATOM      1  C   LIG    1        3.803  -0.352  -0.035  0.00  0.00    -0.160 A 
ATOM      2  C   LIG    1        4.507   0.809  -0.036  0.00  0.00    +0.120 A 
ATOM      3  O   LIG    1        3.658   1.858  -0.023  0.00  0.00    -0.170 OA
ATOM      4  C   LIG    1        2.378   1.439  -0.013  0.00  0.00    +0.050 A 
ATOM      5  C   LIG    1        1.158   2.104   0.002  0.00  0.00    +0.030 A 
ATOM      6  C   LIG    1       -0.017   1.384   0.010  0.00  0.00    +0.020 A 
ATOM      7  C   LIG    1        0.002  -0.004   0.002  0.00  0.00    -0.020 A 
ATOM      8  C   LIG    1        1.190  -0.680  -0.013  0.00  0.00    +0.050 A 
ATOM      9  C   LIG    1        2.391   0.031  -0.020  0.00  0.00    -0.110 A 
ENDROOT
BRANCH   2  10
ATOM     10  C   LIG    1        5.974   0.908  -0.049  0.00  0.00    +0.450 C 
ATOM     11  N   LIG    1        6.567   2.118  -0.048  0.00  0.00    -0.480 NA
ATOM     12  O   LIG    1        6.652  -0.102  -0.060  0.00  0.00    -0.650 OA
BRANCH  11  13
ATOM     13  N   LIG    1        7.965   2.212  -0.060  0.00  0.00    -0.510 N 
ATOM     14  H   LIG    1        8.506   1.407  -0.069  0.00  0.00    +0.390 HD
ATOM     15  C   LIG    1        8.559   3.422  -0.060  0.00  0.00    +0.670 C 
ATOM     16  O   LIG    1        9.771   3.504  -0.070  0.00  0.00    -0.620 OA
BRANCH  15  17
ATOM     17  O   LIG    1        7.809   4.540  -0.048  0.00  0.00    -0.340 OA
BRANCH  17  18
ATOM     18  C   LIG    1        8.516   5.809  -0.048  0.00  0.00    +0.130 C 
ATOM     19  C   LIG    1        9.405   5.897   1.194  0.00  0.00    +0.030 C 
ATOM     20  C   LIG    1        7.504   6.956  -0.033  0.00  0.00    +0.050 C 
ATOM     21  C   LIG    1        9.383   5.909  -1.304  0.00  0.00    +0.030 C 
ENDBRANCH  17  18
ENDBRANCH  15  17
ENDBRANCH  11  13
ENDBRANCH   2  10
BRANCH   1  22
ATOM     22  C   LIG    1        4.362  -1.751  -0.048  0.00  0.00    +0.190 C 
BRANCH  22  24
ATOM     23  C   LIG    1        5.241  -3.979  -1.573  0.00  0.00    +0.120 C 
ATOM     24  S   LIG    1        4.570  -2.304  -1.763  0.00  0.00    -0.260 S 
ENDBRANCH  22  24
ENDBRANCH   1  22
TORSDOF 6
