REMARK  Name = ZINCpk00000KfKxK.1
REMARK                            x       y       z     vdW  Elec       q    Type
REMARK                         _______ _______ _______ _____ _____    ______ ____
ROOT
ATOM      1  C   LIG    1        0.434   0.142   1.933  0.00  0.00    +0.100 A 
ATOM      2  C   LIG    1        0.360   1.495   1.665  0.00  0.00    +0.020 A 
ATOM      3  C   LIG    1        1.322   2.095   0.848  0.00  0.00    -0.130 A 
ATOM      4  C   LIG    1        2.353   1.325   0.306  0.00  0.00    +0.050 A 
ATOM      5  C   LIG    1        2.421  -0.025   0.578  0.00  0.00    -0.040 A 
ATOM      6  C   LIG    1        1.466  -0.622   1.389  0.00  0.00    +0.130 A 
ENDROOT
BRANCH   3   7
ATOM      7  C   LIG    1        1.248   3.541   0.558  0.00  0.00    +0.570 C 
ATOM      8  N   LIG    1        2.380   4.258   0.416  0.00  0.00    -0.610 N 
ATOM      9  C   LIG    1        3.698   3.606   0.456  0.00  0.00    +0.230 C 
ATOM     10  C   LIG    1        4.583   4.346   1.458  0.00  0.00    +0.210 C 
ATOM     11  N   LIG    1        4.607   5.776   1.124  0.00  0.00    -0.680 NA
ATOM     12  H   LIG    1        4.992   5.927   0.204  0.00  0.00    +0.340 HD
ATOM     13  C   LIG    1        3.270   6.373   1.240  0.00  0.00    +0.220 C 
ATOM     14  C   LIG    1        2.331   5.716   0.223  0.00  0.00    +0.180 C 
ATOM     15  C   LIG    1        0.902   6.215   0.445  0.00  0.00    +0.060 C 
ATOM     16  O   LIG    1        0.166   4.084   0.448  0.00  0.00    -0.530 OA
ENDBRANCH   3   7
BRANCH   1  18
ATOM     17  C   LIG    1       -1.529   0.397   3.252  0.00  0.00    +0.240 C 
ATOM     18  O   LIG    1       -0.500  -0.446   2.728  0.00  0.00    -0.300 OA
ENDBRANCH   1  18
BRANCH   6  19
ATOM     19  O   LIG    1        1.537  -1.952   1.654  0.00  0.00    -0.300 OA
BRANCH  19  20
ATOM     20  C   LIG    1        2.620  -2.674   1.064  0.00  0.00    +0.280 C 
BRANCH  20  21
ATOM     21  C   LIG    1        2.536  -4.123   1.466  0.00  0.00    -0.250 A 
ATOM     22  C   LIG    1        1.874  -5.097   0.799  0.00  0.00    +0.270 A 
ATOM     23  N   LIG    1        2.041  -6.250   1.481  0.00  0.00    -0.370 N 
ATOM     24  N   LIG    1        2.831  -5.975   2.604  0.00  0.00    -0.290 NA
ATOM     25  C   LIG    1        1.492  -7.557   1.112  0.00  0.00    +0.360 C 
ATOM     26  C   LIG    1        3.132  -4.702   2.591  0.00  0.00    +0.260 A 
ENDBRANCH  20  21
ENDBRANCH  19  20
ENDBRANCH   6  19
TORSDOF 5
