REMARK  Name = ZINCvU0000000B35.0
REMARK                            x       y       z     vdW  Elec       q    Type
REMARK                         _______ _______ _______ _____ _____    ______ ____
ROOT
ATOM      1  C   LIG    1       -1.023   2.962   3.448  0.00  0.00    -0.150 A 
ATOM      2  C   LIG    1       -0.459   2.768   2.186  0.00  0.00    +0.180 A 
ATOM      3  C   LIG    1       -0.629   1.563   1.536  0.00  0.00    -0.690 A 
ATOM      4  C   LIG    1       -1.347   0.544   2.136  0.00  0.00    +0.180 A 
ATOM      5  C   LIG    1       -1.905   0.727   3.389  0.00  0.00    +0.020 A 
ATOM      6  C   LIG    1       -1.747   1.929   4.049  0.00  0.00    +0.070 A 
ATOM      7 CL   LIG    1       -2.447   2.157   5.621  0.00  0.00    -0.010 Cl
ENDROOT
BRANCH   1  10
ATOM      8  N   LIG    1       -0.150   5.246   3.566  0.00  0.00    -0.660 N 
ATOM      9  H   LIG    1        0.307   5.089   2.725  0.00  0.00    +0.410 HD
ATOM     10  C   LIG    1       -0.850   4.252   4.148  0.00  0.00    +0.550 C 
ATOM     11  O   LIG    1       -1.338   4.416   5.249  0.00  0.00    -0.490 OA
BRANCH   8  18
ATOM     12  C   LIG    1        2.024   6.953   2.889  0.00  0.00    +0.090 C 
ATOM     13  C   LIG    1        0.960   7.368   3.872  0.00  0.00    -0.110 A 
ATOM     14  C   LIG    1        1.022   8.610   4.474  0.00  0.00    +0.030 A 
ATOM     15  C   LIG    1        0.046   8.992   5.376  0.00  0.00    -0.010 A 
ATOM     16  C   LIG    1       -0.995   8.134   5.678  0.00  0.00    +0.030 A 
ATOM     17  C   LIG    1       -1.065   6.893   5.076  0.00  0.00    +0.020 A 
ATOM     18  C   LIG    1       -0.084   6.503   4.174  0.00  0.00    +0.140 A 
ENDBRANCH   8  18
ENDBRANCH   1  10
BRANCH   3  19
ATOM     19  S   LIG    1        0.077   1.319  -0.060  0.00  0.00    +2.690 S 
ATOM     20  O   LIG    1        1.221   2.159  -0.125  0.00  0.00    -0.940 OA
ATOM     21  O   LIG    1        0.132  -0.086  -0.263  0.00  0.00    -0.940 OA
BRANCH  19  22
ATOM     22  N   LIG    1       -1.002   1.910  -1.168  0.00  0.00    -1.060 N 
ATOM     23  H   LIG    1       -1.435   1.307  -1.792  0.00  0.00    +0.430 HD
BRANCH  22  24
ATOM     24  C   LIG    1       -1.287   3.277  -1.205  0.00  0.00    +0.120 A 
ATOM     25  C   LIG    1       -2.494   3.750  -0.709  0.00  0.00    +0.060 A 
ATOM     26  C   LIG    1       -2.771   5.103  -0.743  0.00  0.00    +0.030 A 
ATOM     27  C   LIG    1       -1.852   5.985  -1.280  0.00  0.00    +0.080 A 
ATOM     28  C   LIG    1       -0.650   5.517  -1.780  0.00  0.00    -0.170 A 
ATOM     29  C   LIG    1       -0.365   4.166  -1.744  0.00  0.00    +0.090 A 
BRANCH  28  30
ATOM     30  C   LIG    1        0.348   6.482  -2.365  0.00  0.00    +0.510 C 
ATOM     31  F   LIG    1        1.643   5.987  -2.173  0.00  0.00    -0.170 F 
ATOM     32  F   LIG    1        0.225   7.722  -1.730  0.00  0.00    -0.170 F 
ATOM     33  F   LIG    1        0.105   6.633  -3.734  0.00  0.00    -0.170 F 
ENDBRANCH  28  30
ENDBRANCH  22  24
ENDBRANCH  19  22
ENDBRANCH   3  19
TORSDOF 6
