REMARK  Name = ZINCpk00000y04g2.0
REMARK                            x       y       z     vdW  Elec       q    Type
REMARK                         _______ _______ _______ _____ _____    ______ ____
ROOT
ATOM      1  C   LIG    1       -1.441   2.886   1.255  0.00  0.00    +0.370 C 
ATOM      2  O   LIG    1       -0.443   3.356   1.746  0.00  0.00    -0.370 OA
ENDROOT
BRANCH   1   3
ATOM      3  C   LIG    1       -1.342   2.029   0.019  0.00  0.00    +0.210 C 
BRANCH   3   9
ATOM      4  C   LIG    1        3.543   2.248  -0.020  0.00  0.00    +0.150 C 
ATOM      5  C   LIG    1        2.278   1.429  -0.012  0.00  0.00    +0.180 A 
ATOM      6  C   LIG    1        2.337   0.044  -0.020  0.00  0.00    -0.070 A 
ATOM      7  C   LIG    1        1.148  -0.666  -0.013  0.00  0.00    +0.180 A 
ATOM      8  N   LIG    1        0.002  -0.004   0.002  0.00  0.00    -0.510 NA
ATOM      9  C   LIG    1       -0.016   1.314   0.009  0.00  0.00    +0.330 A 
ATOM     10  C   LIG    1        1.158  -2.173  -0.021  0.00  0.00    +0.150 C 
ATOM     11  N   LIG    1        1.095   2.022   0.003  0.00  0.00    -0.490 NA
ENDBRANCH   3   9
BRANCH   3  12
ATOM     12  C   LIG    1       -1.450   2.879  -1.177  0.00  0.00    +0.220 C 
ATOM     13  N   LIG    1       -1.534   3.535  -2.101  0.00  0.00    -0.390 NA
ENDBRANCH   3  12
ENDBRANCH   1   3
BRANCH   1  14
ATOM     14  C   LIG    1       -2.786   3.158   1.878  0.00  0.00    +0.160 C 
BRANCH  14  15
ATOM     15  C   LIG    1       -2.610   4.033   3.092  0.00  0.00    +0.110 A 
ATOM     16  C   LIG    1       -3.251   5.194   3.243  0.00  0.00    -0.090 A 
ATOM     17  S   LIG    1       -2.767   5.888   4.788  0.00  0.00    +0.140 S 
ATOM     18  C   LIG    1       -1.740   4.553   5.078  0.00  0.00    +0.310 A 
ATOM     19  N   LIG    1       -1.805   3.717   4.089  0.00  0.00    -0.470 NA
BRANCH  18  20
ATOM     20  N   LIG    1       -0.949   4.387   6.209  0.00  0.00    -0.540 N 
ATOM     21  C   LIG    1       -0.863   5.331   7.334  0.00  0.00    +0.280 C 
ATOM     22  C   LIG    1        0.138   4.665   8.298  0.00  0.00    +0.280 C 
ATOM     23  N   LIG    1        0.516   3.422   7.611  0.00  0.00    -0.740 N 
ATOM     24  H   LIG    1        1.142   2.761   7.947  0.00  0.00    +0.440 HD
ATOM     25  C   LIG    1       -0.141   3.346   6.446  0.00  0.00    +0.700 C 
ATOM     26  O   LIG    1       -0.014   2.416   5.673  0.00  0.00    -0.530 OA
ENDBRANCH  18  20
ENDBRANCH  14  15
ENDBRANCH   1  14
TORSDOF 6
