REMARK  Name = ZINCpe000000YzkE.0
REMARK                            x       y       z     vdW  Elec       q    Type
REMARK                         _______ _______ _______ _____ _____    ______ ____
ROOT
ATOM      1  N   LIG    1        1.361   2.032   0.000  0.00  0.00    -0.530 NA
ATOM      2  C   LIG    1       -0.019   1.526   0.010  0.00  0.00    +0.190 C 
ATOM      3  C   LIG    1        0.002  -0.004   0.002  0.00  0.00    +0.190 C 
ATOM      4  N   LIG    1        0.746  -0.488   1.173  0.00  0.00    -0.530 NA
ATOM      5  C   LIG    1        2.126   0.018   1.163  0.00  0.00    +0.190 C 
ATOM      6  C   LIG    1        2.105   1.549   1.171  0.00  0.00    +0.190 C 
ENDROOT
BRANCH   1   7
ATOM      7  C   LIG    1        1.383   3.500  -0.069  0.00  0.00    +0.220 C 
BRANCH   7   8
ATOM      8  C   LIG    1        2.809   4.000   0.172  0.00  0.00    -0.330 C 
BRANCH   8   9
ATOM      9  S   LIG    1        2.836   5.812   0.088  0.00  0.00    +2.420 S 
ATOM     10  O   LIG    1        2.069   6.327   1.168  0.00  0.00    -0.930 OA
ATOM     11  O   LIG    1        2.518   6.208  -1.240  0.00  0.00    -0.930 OA
BRANCH   9  12
ATOM     12  C   LIG    1        4.586   6.175   0.396  0.00  0.00    -0.320 C 
BRANCH  12  13
ATOM     13  C   LIG    1        4.806   7.689   0.362  0.00  0.00    +0.080 C 
BRANCH  13  17
ATOM     14  N   LIG    1        6.691   9.268   0.635  0.00  0.00    -0.850 N 
ATOM     15  H   LIG    1        7.627   9.462   0.800  0.00  0.00    +0.410 HD
ATOM     16  H   LIG    1        6.064   9.993   0.482  0.00  0.00    +0.400 HD
ATOM     17  C   LIG    1        6.260   7.991   0.618  0.00  0.00    +0.530 C 
ATOM     18  O   LIG    1        7.043   7.085   0.809  0.00  0.00    -0.540 OA
ENDBRANCH  13  17
ENDBRANCH  12  13
ENDBRANCH   9  12
ENDBRANCH   8   9
ENDBRANCH   7   8
ENDBRANCH   1   7
BRANCH   4  19
ATOM     19  C   LIG    1        0.724  -1.955   1.242  0.00  0.00    +0.240 C 
BRANCH  19  20
ATOM     20  C   LIG    1        1.278  -2.404   2.570  0.00  0.00    -0.110 A 
ATOM     21  C   LIG    1        2.632  -2.655   2.707  0.00  0.00    +0.110 A 
ATOM     22  C   LIG    1        3.140  -3.062   3.929  0.00  0.00    -0.010 A 
ATOM     23  C   LIG    1        2.293  -3.229   5.008  0.00  0.00    +0.060 A 
ATOM     24  C   LIG    1        0.940  -2.984   4.870  0.00  0.00    +0.020 A 
ATOM     25  F   LIG    1        3.459  -2.497   1.650  0.00  0.00    -0.130 F 
ATOM     26  C   LIG    1        0.431  -2.572   3.651  0.00  0.00    +0.010 A 
ATOM     27 CL   LIG    1       -1.269  -2.264   3.479  0.00  0.00    -0.050 Cl
ENDBRANCH  19  20
ENDBRANCH   4  19
TORSDOF 8
