REMARK  Name = ZINCrH000004klAP.0
REMARK                            x       y       z     vdW  Elec       q    Type
REMARK                         _______ _______ _______ _____ _____    ______ ____
ROOT
ATOM      1  N   LIG    1       -3.932   7.857   0.166  0.00  0.00    -0.550 N 
ATOM      2  C   LIG    1       -2.907   8.652  -0.200  0.00  0.00    +0.600 C 
ATOM      3  O   LIG    1       -3.057   9.859  -0.236  0.00  0.00    -0.520 OA
ENDROOT
BRANCH   1   4
ATOM      4  C   LIG    1       -3.760   6.470   0.207  0.00  0.00    +0.140 A 
ATOM      5  C   LIG    1       -3.994   5.705  -0.928  0.00  0.00    +0.010 A 
ATOM      6  C   LIG    1       -3.823   4.335  -0.884  0.00  0.00    +0.010 A 
ATOM      7  C   LIG    1       -3.421   3.725   0.289  0.00  0.00    +0.030 A 
ATOM      8  C   LIG    1       -3.188   4.483   1.423  0.00  0.00    +0.010 A 
ATOM      9  C   LIG    1       -3.351   5.854   1.383  0.00  0.00    -0.060 A 
ATOM     10  C   LIG    1       -3.090   6.680   2.616  0.00  0.00    +0.080 C 
ENDBRANCH   1   4
BRANCH   2  11
ATOM     11  C   LIG    1       -1.606   8.060  -0.557  0.00  0.00    +0.000 A 
ATOM     12  C   LIG    1       -0.536   8.815  -0.934  0.00  0.00    -0.020 A 
ATOM     13  S   LIG    1        0.785   7.780  -1.266  0.00  0.00    +0.200 S 
ATOM     14  C   LIG    1       -0.194   6.372  -0.872  0.00  0.00    +0.080 A 
ATOM     15  N   LIG    1       -1.389   6.754  -0.540  0.00  0.00    -0.370 NA
BRANCH  14  16
ATOM     16  C   LIG    1        0.272   4.969  -0.918  0.00  0.00    +0.190 A 
ATOM     17  C   LIG    1        1.583   4.688  -1.298  0.00  0.00    -0.020 A 
ATOM     18  C   LIG    1        2.004   3.370  -1.337  0.00  0.00    +0.070 A 
ATOM     19  C   LIG    1        1.100   2.375  -0.994  0.00  0.00    -0.020 A 
ATOM     20  C   LIG    1       -0.189   2.725  -0.632  0.00  0.00    +0.270 A 
ATOM     21  N   LIG    1       -0.563   3.987  -0.598  0.00  0.00    -0.430 NA
ENDBRANCH  14  16
ENDBRANCH   2  11
BRANCH   1  22
ATOM     22  C   LIG    1       -5.226   8.446   0.520  0.00  0.00    +0.320 C 
BRANCH  22  23
ATOM     23  C   LIG    1       -6.053   8.661  -0.749  0.00  0.00    +0.090 C 
BRANCH  23  24
ATOM     24  C   LIG    1       -7.370   9.298  -0.388  0.00  0.00    +0.470 C 
ATOM     25  O   LIG    1       -7.622   9.553   0.766  0.00  0.00    -0.510 OA
BRANCH  24  27
ATOM     26  C   LIG    1       -9.512  10.194  -0.927  0.00  0.00    +0.260 C 
ATOM     27  O   LIG    1       -8.264   9.582  -1.348  0.00  0.00    -0.360 OA
ENDBRANCH  24  27
ENDBRANCH  23  24
ENDBRANCH  22  23
ENDBRANCH   1  22
TORSDOF 7
