REMARK  Name = ZINCrD0000044CT4.0
REMARK                            x       y       z     vdW  Elec       q    Type
REMARK                         _______ _______ _______ _____ _____    ______ ____
ROOT
ATOM      1  C   LIG    1        5.013   5.054  -0.280  0.00  0.00    -0.040 C 
ATOM      2  C   LIG    1        5.505   6.472   0.025  0.00  0.00    +0.310 C 
ATOM      3  N   LIG    1        6.968   6.503  -0.105  0.00  0.00    -0.620 N 
ATOM      4  C   LIG    1        7.576   6.025  -1.354  0.00  0.00    +0.290 C 
ATOM      5  C   LIG    1        7.061   4.611  -1.643  0.00  0.00    +0.030 C 
ATOM      6  C   LIG    1        7.737   6.962   0.902  0.00  0.00    +0.520 C 
ATOM      7  O   LIG    1        7.221   7.433   1.893  0.00  0.00    -0.520 OA
ATOM      8  C   LIG    1        5.530   4.623  -1.654  0.00  0.00    +0.290 C 
ATOM      9  F   LIG    1        5.078   5.521  -2.625  0.00  0.00    -0.190 F 
ATOM     10  F   LIG    1        5.057   3.340  -1.949  0.00  0.00    -0.190 F 
ENDROOT
BRANCH   6  11
ATOM     11  C   LIG    1        9.239   6.890   0.796  0.00  0.00    +0.020 C 
ATOM     12  C   LIG    1        9.751   5.573   1.418  0.00  0.00    +0.030 C 
ATOM     13  C   LIG    1       11.078   5.971   2.112  0.00  0.00    +0.020 C 
ATOM     14  C   LIG    1       10.759   7.377   2.683  0.00  0.00    +0.050 C 
ATOM     15  C   LIG    1        9.879   8.028   1.601  0.00  0.00    -0.120 C 
ATOM     16  C   LIG    1        9.115   9.317   1.887  0.00  0.00    +0.050 C 
ATOM     17  C   LIG    1       10.306   9.328   0.925  0.00  0.00    +0.020 C 
ENDBRANCH   6  11
BRANCH   1  18
ATOM     18  C   LIG    1        3.483   5.033  -0.281  0.00  0.00    +0.290 C 
BRANCH  18  20
ATOM     19  C   LIG    1        1.692   3.394  -0.485  0.00  0.00    +0.590 C 
ATOM     20  N   LIG    1        3.013   3.656  -0.454  0.00  0.00    -0.730 N 
ATOM     21  H   LIG    1        3.653   2.933  -0.545  0.00  0.00    +0.400 HD
ATOM     22  O   LIG    1        0.889   4.300  -0.371  0.00  0.00    -0.540 OA
BRANCH  19  25
ATOM     23  C   LIG    1       -1.298   2.453  -0.607  0.00  0.00    +0.200 C 
ATOM     24  C   LIG    1       -0.075   1.579  -0.712  0.00  0.00    +0.080 A 
ATOM     25  C   LIG    1        1.219   2.009  -0.659  0.00  0.00    -0.250 A 
ATOM     26  C   LIG    1        2.043   0.801  -0.812  0.00  0.00    -0.030 A 
ATOM     27  C   LIG    1        1.182  -0.220  -0.939  0.00  0.00    +0.170 A 
ATOM     28  O   LIG    1       -0.072   0.253  -0.879  0.00  0.00    -0.170 OA
ENDBRANCH  19  25
ENDBRANCH  18  20
ENDBRANCH   1  18
TORSDOF 4
