REMARK  Name = ZINCqH0000004v3b.0
REMARK                            x       y       z     vdW  Elec       q    Type
REMARK                         _______ _______ _______ _____ _____    ______ ____
ROOT
ATOM      1  N   LIG    1       -0.319  -0.036   0.358  0.00  0.00    -0.750 N 
ATOM      2  H   LIG    1       -0.449  -0.374   1.258  0.00  0.00    +0.390 HD
ATOM      3  C   LIG    1       -0.054  -0.890  -0.651  0.00  0.00    +0.710 C 
ATOM      4  N   LIG    1        0.030  -2.213  -0.409  0.00  0.00    -0.740 N 
ATOM      5  H   LIG    1       -0.100  -2.551   0.491  0.00  0.00    +0.400 HD
ATOM      6  O   LIG    1        0.109  -0.466  -1.779  0.00  0.00    -0.580 OA
ENDROOT
BRANCH   4   7
ATOM      7  C   LIG    1        0.318  -3.141  -1.505  0.00  0.00    +0.310 C 
ATOM      8  C   LIG    1        0.936  -4.444  -0.956  0.00  0.00    +0.050 C 
ATOM      9  C   LIG    1        0.357  -5.512  -1.910  0.00  0.00    +0.100 C 
ATOM     10  C   LIG    1       -0.944  -4.928  -2.417  0.00  0.00    -0.120 A 
ATOM     11  C   LIG    1       -2.026  -5.541  -3.035  0.00  0.00    +0.110 A 
ATOM     12  C   LIG    1       -3.126  -4.789  -3.419  0.00  0.00    -0.010 A 
ATOM     13  C   LIG    1       -3.144  -3.428  -3.185  0.00  0.00    +0.020 A 
ATOM     14  C   LIG    1       -2.067  -2.818  -2.570  0.00  0.00    +0.030 A 
ATOM     15  C   LIG    1       -0.967  -3.566  -2.185  0.00  0.00    -0.100 A 
BRANCH  11  16
ATOM     16  O   LIG    1       -2.006  -6.880  -3.265  0.00  0.00    -0.500 OA
ATOM     17  H   LIG    1       -2.372  -7.409  -2.543  0.00  0.00    +0.390 HD
ENDBRANCH  11  16
ENDBRANCH   4   7
BRANCH   1  18
ATOM     18  C   LIG    1       -0.411   1.403   0.095  0.00  0.00    +0.290 C 
BRANCH  18  19
ATOM     19  C   LIG    1       -0.860   2.126   1.367  0.00  0.00    +0.170 C 
BRANCH  19  20
ATOM     20  C   LIG    1       -2.189   1.576   1.815  0.00  0.00    -0.090 A 
ATOM     21  C   LIG    1       -3.362   2.147   1.359  0.00  0.00    +0.040 A 
ATOM     22  C   LIG    1       -4.582   1.639   1.765  0.00  0.00    +0.060 A 
ATOM     23  C   LIG    1       -4.629   0.566   2.636  0.00  0.00    -0.090 A 
ATOM     24  C   LIG    1       -3.454  -0.002   3.097  0.00  0.00    +0.060 A 
ATOM     25 BR   LIG    1       -6.297  -0.124   3.199  0.00  0.00    -0.050 Br
ATOM     26  C   LIG    1       -2.235   0.503   2.686  0.00  0.00    +0.020 A 
ENDBRANCH  19  20
BRANCH  19  28
ATOM     27  C   LIG    1        0.362   4.189   0.666  0.00  0.00    +0.040 C 
ATOM     28  C   LIG    1       -0.997   3.622   1.080  0.00  0.00    +0.050 C 
ENDBRANCH  19  28
BRANCH  19  29
ATOM     29  O   LIG    1        0.110   1.925   2.397  0.00  0.00    -0.540 OA
ATOM     30  H   LIG    1        0.250   0.997   2.630  0.00  0.00    +0.370 HD
ENDBRANCH  19  29
ENDBRANCH  18  19
ENDBRANCH   1  18
TORSDOF 7
