REMARK  Name = ZINCnE00000dSRzW.1
REMARK                            x       y       z     vdW  Elec       q    Type
REMARK                         _______ _______ _______ _____ _____    ______ ____
ROOT
ATOM      1  C   LIG    1       -0.223   1.771   2.415  0.00  0.00    +0.610 C 
ATOM      2  N   LIG    1       -0.746   1.583   1.187  0.00  0.00    -0.600 N 
ATOM      3  C   LIG    1       -0.013   1.086   0.008  0.00  0.00    +0.290 C 
ATOM      4  C   LIG    1       -0.806   1.621  -1.210  0.00  0.00    +0.010 C 
ATOM      5  C   LIG    1       -2.269   1.504  -0.705  0.00  0.00    +0.040 C 
ATOM      6  C   LIG    1       -2.143   1.837   0.797  0.00  0.00    +0.250 C 
ATOM      7  O   LIG    1       -0.925   2.187   3.317  0.00  0.00    -0.540 OA
ENDROOT
BRANCH   1  10
ATOM      8  C   LIG    1        3.237   0.801   2.074  0.00  0.00    +0.360 A 
ATOM      9  N   LIG    1        2.013   1.017   1.709  0.00  0.00    -0.530 NA
ATOM     10  C   LIG    1        1.197   1.475   2.663  0.00  0.00    +0.030 A 
ATOM     11  C   LIG    1        1.774   1.650   3.870  0.00  0.00    -0.140 A 
ATOM     12  S   LIG    1        3.421   1.201   3.777  0.00  0.00    +0.050 S 
BRANCH   8  15
ATOM     13  C   LIG    1        6.586  -0.374   0.844  0.00  0.00    +0.070 C 
ATOM     14  C   LIG    1        5.489   0.140   1.740  0.00  0.00    +0.450 C 
ATOM     15  N   LIG    1        4.248   0.327   1.248  0.00  0.00    -0.660 NA
ATOM     16  O   LIG    1        5.722   0.386   2.904  0.00  0.00    -0.620 OA
ENDBRANCH   8  15
ENDBRANCH   1  10
BRANCH   6  17
ATOM     17  C   LIG    1       -3.067   0.955   1.597  0.00  0.00    -0.050 C 
ATOM     18  C   LIG    1       -2.584   0.215   2.591  0.00  0.00    +0.070 C 
BRANCH  18  19
ATOM     19  C   LIG    1       -3.486  -0.646   3.371  0.00  0.00    -0.130 A 
ATOM     20  C   LIG    1       -3.111  -1.442   4.396  0.00  0.00    +0.000 A 
ATOM     21  C   LIG    1       -4.139  -2.155   4.976  0.00  0.00    +0.010 A 
ATOM     22  C   LIG    1       -5.344  -1.957   4.432  0.00  0.00    -0.070 A 
ATOM     23  S   LIG    1       -5.218  -0.805   3.110  0.00  0.00    +0.100 S 
ENDBRANCH  18  19
ENDBRANCH   6  17
TORSDOF 4
