REMARK  Name = ZINCvU0000000IlM.0
REMARK                            x       y       z     vdW  Elec       q    Type
REMARK                         _______ _______ _______ _____ _____    ______ ____
ROOT
ATOM      1  C   LIG    1       -3.919   6.508   0.509  0.00  0.00    +0.210 A 
ATOM      2  N   LIG    1       -4.924   5.640   0.489  0.00  0.00    -0.290 NA
ATOM      3  N   LIG    1       -6.149   6.023   0.581  0.00  0.00    -0.160 NA
ATOM      4  C   LIG    1       -6.444   7.313   0.700  0.00  0.00    +0.060 A 
ATOM      5  C   LIG    1       -5.395   8.254   0.724  0.00  0.00    +0.230 A 
ATOM      6  N   LIG    1       -4.143   7.811   0.631  0.00  0.00    -0.440 NA
ENDROOT
BRANCH   5   7
ATOM      7  C   LIG    1       -5.678   9.702   0.855  0.00  0.00    -0.080 A 
ATOM      8  C   LIG    1       -6.812  10.250   0.256  0.00  0.00    +0.060 A 
ATOM      9  C   LIG    1       -7.073  11.599   0.387  0.00  0.00    +0.000 A 
ATOM     10  C   LIG    1       -6.208  12.408   1.100  0.00  0.00    +0.040 A 
ATOM     11  C   LIG    1       -5.079  11.871   1.692  0.00  0.00    +0.000 A 
ATOM     12  C   LIG    1       -4.809  10.523   1.573  0.00  0.00    +0.070 A 
ENDBRANCH   5   7
BRANCH   4  13
ATOM     13  C   LIG    1       -7.854   7.756   0.806  0.00  0.00    -0.060 A 
ATOM     14  C   LIG    1       -8.187   8.845   1.610  0.00  0.00    +0.050 A 
ATOM     15  C   LIG    1       -9.502   9.256   1.701  0.00  0.00    +0.010 A 
ATOM     16  C   LIG    1      -10.489   8.583   1.004  0.00  0.00    +0.030 A 
ATOM     17  C   LIG    1      -10.165   7.499   0.208  0.00  0.00    +0.000 A 
ATOM     18  C   LIG    1       -8.854   7.082   0.106  0.00  0.00    +0.060 A 
ENDBRANCH   4  13
BRANCH   1  19
ATOM     19  S   LIG    1       -2.263   5.921   0.380  0.00  0.00    +0.130 S 
BRANCH  19  20
ATOM     20  C   LIG    1       -2.569   4.142   0.252  0.00  0.00    +0.100 C 
BRANCH  20  23
ATOM     21  N   LIG    1       -1.238   2.071   0.019  0.00  0.00    -0.660 N 
ATOM     22  H   LIG    1       -2.070   1.579  -0.060  0.00  0.00    +0.420 HD
ATOM     23  C   LIG    1       -1.256   3.414   0.128  0.00  0.00    +0.540 C 
ATOM     24  O   LIG    1       -0.215   4.037   0.127  0.00  0.00    -0.500 OA
BRANCH  21  29
ATOM     25  C   LIG    1        3.714  -0.701   0.011  0.00  0.00    +0.100 C 
ATOM     26  C   LIG    1        2.398   0.034   0.014  0.00  0.00    -0.090 A 
ATOM     27  C   LIG    1        2.302   1.272   0.621  0.00  0.00    +0.040 A 
ATOM     28  C   LIG    1        1.097   1.949   0.626  0.00  0.00    +0.050 A 
ATOM     29  C   LIG    1       -0.017   1.385   0.021  0.00  0.00    +0.150 A 
ATOM     30  C   LIG    1        0.083   0.140  -0.589  0.00  0.00    -0.060 A 
ATOM     31 CL   LIG    1       -1.308  -0.571  -1.348  0.00  0.00    -0.060 Cl
ATOM     32  C   LIG    1        1.290  -0.532  -0.590  0.00  0.00    +0.050 A 
ENDBRANCH  21  29
ENDBRANCH  20  23
ENDBRANCH  19  20
ENDBRANCH   1  19
TORSDOF 6
