REMARK  Name = ZINCpe000000XxpD.0
REMARK                            x       y       z     vdW  Elec       q    Type
REMARK                         _______ _______ _______ _____ _____    ______ ____
ROOT
ATOM      1  C   LIG    1        0.315   5.776   2.872  0.00  0.00    -0.100 A 
ATOM      2  C   LIG    1       -0.349   5.960   1.672  0.00  0.00    +0.070 A 
ATOM      3  C   LIG    1       -0.250   5.016   0.666  0.00  0.00    +0.030 A 
ATOM      4  C   LIG    1        0.514   3.882   0.854  0.00  0.00    +0.090 A 
ATOM      5  C   LIG    1        1.187   3.690   2.062  0.00  0.00    -0.130 A 
ATOM      6  C   LIG    1        1.079   4.645   3.074  0.00  0.00    +0.050 A 
ENDROOT
BRANCH   5   7
ATOM      7  C   LIG    1        2.007   2.478   2.270  0.00  0.00    +0.560 C 
ATOM      8  N   LIG    1        1.937   1.808   3.438  0.00  0.00    -0.610 N 
ATOM      9  C   LIG    1        1.191   2.397   4.535  0.00  0.00    +0.250 C 
ATOM     10  C   LIG    1        2.139   3.266   5.397  0.00  0.00    +0.220 C 
ATOM     11  O   LIG    1        3.049   2.454   6.043  0.00  0.00    -0.350 OA
ATOM     12  C   LIG    1        3.972   1.693   5.277  0.00  0.00    +0.240 C 
ATOM     13  C   LIG    1        3.327   0.372   4.908  0.00  0.00    +0.260 C 
ATOM     14  F   LIG    1        2.393   0.020   5.888  0.00  0.00    -0.180 F 
ATOM     15  F   LIG    1        4.311  -0.620   4.824  0.00  0.00    -0.180 F 
ATOM     16  C   LIG    1        2.619   0.506   3.552  0.00  0.00    +0.300 C 
ATOM     17  O   LIG    1        2.745   2.084   1.388  0.00  0.00    -0.520 OA
ENDBRANCH   5   7
BRANCH   1  19
ATOM     18  C   LIG    1       -0.939   6.458   4.919  0.00  0.00    +0.100 C 
ATOM     19  C   LIG    1        0.201   6.811   3.961  0.00  0.00    +0.160 C 
ATOM     20  N   LIG    1        1.474   6.938   4.691  0.00  0.00    -0.720 N 
ATOM     21  H   LIG    1        1.923   6.244   5.199  0.00  0.00    +0.440 HD
ATOM     22  C   LIG    1        1.893   8.204   4.517  0.00  0.00    +0.710 C 
ATOM     23  N   LIG    1        1.051   8.921   3.764  0.00  0.00    -0.680 N 
ATOM     24  H   LIG    1        1.187   9.854   3.532  0.00  0.00    +0.440 HD
ATOM     25  O   LIG    1        2.920   8.647   4.991  0.00  0.00    -0.530 OA
ATOM     26  C   LIG    1       -0.009   8.190   3.368  0.00  0.00    +0.540 C 
ATOM     27  O   LIG    1       -0.937   8.558   2.681  0.00  0.00    -0.450 OA
ENDBRANCH   1  19
TORSDOF 2
