REMARK  Name = ZINCqH00000054GH.1
REMARK                            x       y       z     vdW  Elec       q    Type
REMARK                         _______ _______ _______ _____ _____    ______ ____
ROOT
ATOM      1  N   LIG    1       -0.923  -2.321  -1.168  0.00  0.00    -0.720 N 
ATOM      2  H   LIG    1       -0.742  -2.716  -0.301  0.00  0.00    +0.410 HD
ATOM      3  C   LIG    1       -1.450  -3.074  -2.154  0.00  0.00    +0.520 C 
ATOM      4  O   LIG    1       -1.677  -2.580  -3.239  0.00  0.00    -0.540 OA
ENDROOT
BRANCH   1   5
ATOM      5  C   LIG    1       -0.625  -0.907  -1.405  0.00  0.00    +0.280 C 
BRANCH   5   6
ATOM      6  C   LIG    1       -0.040  -0.289  -0.134  0.00  0.00    +0.250 C 
BRANCH   6   7
ATOM      7  C   LIG    1        0.153   1.192  -0.339  0.00  0.00    -0.220 A 
ATOM      8  C   LIG    1        1.332   1.806  -0.448  0.00  0.00    +0.020 A 
ATOM      9  C   LIG    1        1.261   3.176  -0.632  0.00  0.00    +0.000 A 
ATOM     10  C   LIG    1        0.025   3.675  -0.671  0.00  0.00    -0.060 A 
ATOM     11  S   LIG    1       -1.143   2.374  -0.476  0.00  0.00    +0.120 S 
ENDBRANCH   6   7
BRANCH   6  13
ATOM     12  C   LIG    1       -0.517   0.212   2.186  0.00  0.00    +0.200 C 
ATOM     13  N   LIG    1       -0.961  -0.512   0.988  0.00  0.00    -0.530 NA
ATOM     14  C   LIG    1       -2.334  -0.137   0.625  0.00  0.00    +0.200 C 
ENDBRANCH   6  13
ENDBRANCH   5   6
ENDBRANCH   1   5
BRANCH   3  15
ATOM     15  C   LIG    1       -1.757  -4.529  -1.910  0.00  0.00    +0.070 C 
BRANCH  15  16
ATOM     16  C   LIG    1       -2.342  -5.147  -3.181  0.00  0.00    +0.210 C 
BRANCH  16  17
ATOM     17  C   LIG    1       -2.649  -6.602  -2.937  0.00  0.00    +0.200 A 
ATOM     18  N   LIG    1       -3.778  -7.072  -2.486  0.00  0.00    -0.470 NA
ATOM     19  C   LIG    1       -3.690  -8.408  -2.399  0.00  0.00    +0.170 A 
ATOM     20  C   LIG    1       -2.445  -8.762  -2.808  0.00  0.00    -0.010 A 
ATOM     21  O   LIG    1       -1.803  -7.621  -3.142  0.00  0.00    -0.190 OA
BRANCH  20  22
ATOM     22  C   LIG    1       -1.897 -10.133  -2.876  0.00  0.00    -0.020 A 
ATOM     23  C   LIG    1       -0.593 -10.346  -3.326  0.00  0.00    +0.030 A 
ATOM     24  C   LIG    1       -0.086 -11.627  -3.382  0.00  0.00    +0.010 A 
ATOM     25  C   LIG    1       -0.870 -12.702  -3.003  0.00  0.00    +0.020 A 
ATOM     26  C   LIG    1       -2.166 -12.499  -2.561  0.00  0.00    +0.020 A 
ATOM     27  C   LIG    1       -2.683 -11.222  -2.495  0.00  0.00    +0.030 A 
ENDBRANCH  20  22
ENDBRANCH  16  17
ENDBRANCH  15  16
ENDBRANCH   3  15
TORSDOF 8
