REMARK  Name = ZINCpe00000VVGDr.0
REMARK                            x       y       z     vdW  Elec       q    Type
REMARK                         _______ _______ _______ _____ _____    ______ ____
ROOT
ATOM      1  N   LIG    1       -2.783   0.750   1.031  0.00  0.00    -0.460 N 
ATOM      2  C   LIG    1       -1.979   0.194   2.123  0.00  0.00    +0.220 C 
ATOM      3  C   LIG    1       -0.579   0.786   2.126  0.00  0.00    +0.010 C 
ATOM      4  C   LIG    1       -0.625   2.326   2.189  0.00  0.00    +0.060 C 
ATOM      5  C   LIG    1       -1.464   2.796   0.996  0.00  0.00    +0.070 C 
ATOM      6  C   LIG    1       -0.869   2.243  -0.280  0.00  0.00    +0.200 A 
ATOM      7  C   LIG    1       -1.084   2.943  -1.425  0.00  0.00    -0.100 A 
ATOM      8  C   LIG    1       -0.674   2.426  -2.659  0.00  0.00    +0.120 A 
ATOM      9  C   LIG    1       -0.068   1.205  -2.694  0.00  0.00    -0.110 A 
ATOM     10  C   LIG    1        0.150   0.516  -1.492  0.00  0.00    +0.510 A 
ATOM     11  O   LIG    1        0.652  -0.596  -1.517  0.00  0.00    -0.550 OA
ATOM     12  N   LIG    1       -0.191   1.072  -0.303  0.00  0.00    -0.470 N 
ATOM     13  C   LIG    1        0.220   0.358   0.906  0.00  0.00    +0.290 C 
ATOM     14  C   LIG    1       -2.880   2.214   1.136  0.00  0.00    +0.240 C 
ENDROOT
BRANCH   1  19
ATOM     15  N   LIG    1       -4.402  -0.916   0.276  0.00  0.00    -0.350 N 
ATOM     16  N   LIG    1       -5.763  -1.114   0.567  0.00  0.00    -0.070 NA
ATOM     17  N   LIG    1       -6.106  -0.186   1.393  0.00  0.00    -0.030 NA
ATOM     18  N   LIG    1       -5.103   0.571   1.656  0.00  0.00    -0.350 NA
ATOM     19  C   LIG    1       -4.039   0.171   0.994  0.00  0.00    +0.410 A 
BRANCH  15  25
ATOM     20  C   LIG    1       -4.016  -3.231   1.337  0.00  0.00    +0.050 C 
ATOM     21  C   LIG    1       -3.339  -3.125  -0.031  0.00  0.00    +0.160 C 
ATOM     22  O   LIG    1       -3.932  -4.063  -0.944  0.00  0.00    -0.360 OA
ATOM     23  C   LIG    1       -3.914  -3.449  -2.250  0.00  0.00    +0.230 C 
ATOM     24  C   LIG    1       -4.279  -1.968  -1.962  0.00  0.00    +0.040 C 
ATOM     25  C   LIG    1       -3.558  -1.716  -0.616  0.00  0.00    +0.250 C 
ENDBRANCH  15  25
ENDBRANCH   1  19
TORSDOF 2
