REMARK  Name = ZINCrg000000tPXI.0
REMARK                            x       y       z     vdW  Elec       q    Type
REMARK                         _______ _______ _______ _____ _____    ______ ____
ROOT
ATOM      1  C   LIG    1        6.194   3.189   0.163  0.00  0.00    +0.560 C 
ATOM      2  N   LIG    1        6.614   3.603  -1.049  0.00  0.00    -0.610 N 
ATOM      3  C   LIG    1        5.649   3.956  -2.102  0.00  0.00    +0.300 C 
ATOM      4  C   LIG    1        6.017   5.345  -2.647  0.00  0.00    +0.180 C 
ATOM      5  N   LIG    1        7.424   5.342  -3.070  0.00  0.00    -0.520 NA
ATOM      6  C   LIG    1        8.322   5.101  -1.932  0.00  0.00    +0.190 C 
ATOM      7  C   LIG    1        8.048   3.708  -1.356  0.00  0.00    +0.300 C 
ATOM      8  O   LIG    1        7.001   2.997   1.053  0.00  0.00    -0.530 OA
ENDROOT
BRANCH   1  17
ATOM      9  O   LIG    1        0.925   2.610   4.747  0.00  0.00    -0.520 OA
ATOM     10  C   LIG    1        1.560   2.326   3.753  0.00  0.00    +0.530 C 
ATOM     11  C   LIG    1        1.488   0.933   3.203  0.00  0.00    +0.060 C 
ATOM     12  C   LIG    1        0.329   0.808   2.201  0.00  0.00    +0.140 C 
ATOM     13  S   LIG    1        0.334   2.311   1.168  0.00  0.00    -0.130 S 
ATOM     14  C   LIG    1        2.054   2.558   0.864  0.00  0.00    -0.110 A 
ATOM     15  C   LIG    1        2.590   2.300  -0.392  0.00  0.00    +0.100 A 
ATOM     16  C   LIG    1        3.934   2.503  -0.619  0.00  0.00    +0.040 A 
ATOM     17  C   LIG    1        4.757   2.969   0.410  0.00  0.00    -0.090 A 
ATOM     18  C   LIG    1        4.217   3.227   1.675  0.00  0.00    +0.070 A 
ATOM     19  C   LIG    1        2.871   3.018   1.899  0.00  0.00    +0.170 A 
ATOM     20  N   LIG    1        2.315   3.262   3.164  0.00  0.00    -0.670 N 
ATOM     21  H   LIG    1        2.477   4.108   3.611  0.00  0.00    +0.420 HD
ENDBRANCH   1  17
BRANCH   5  22
ATOM     22  C   LIG    1        7.770   6.593  -3.757  0.00  0.00    +0.150 C 
ATOM     23  C   LIG    1        6.821   6.821  -4.947  0.00  0.00    +0.080 C 
ATOM     24  C   LIG    1        7.405   7.933  -5.841  0.00  0.00    -0.310 C 
ATOM     25  S   LIG    1        9.215   7.848  -5.584  0.00  0.00    +2.390 S 
ATOM     26  O   LIG    1        9.838   7.386  -6.775  0.00  0.00    -0.930 OA
ATOM     27  O   LIG    1        9.660   9.050  -4.970  0.00  0.00    -0.930 OA
ATOM     28  C   LIG    1        9.202   6.500  -4.343  0.00  0.00    -0.300 C 
ENDBRANCH   5  22
TORSDOF 2
