REMARK  Name = ZINCrH000004pLVp.0
REMARK                            x       y       z     vdW  Elec       q    Type
REMARK                         _______ _______ _______ _____ _____    ______ ____
ROOT
ATOM      1  C   LIG    1       -0.024   1.397   0.000  0.00  0.00    +0.140 A 
ATOM      2  C   LIG    1       -1.236   2.071   0.007  0.00  0.00    +0.070 A 
ATOM      3  C   LIG    1       -1.258   3.453   0.012  0.00  0.00    -0.010 A 
ATOM      4  C   LIG    1       -0.075   4.167  -0.003  0.00  0.00    +0.030 A 
ATOM      5  C   LIG    1        1.138   3.502  -0.015  0.00  0.00    -0.060 A 
ATOM      6  C   LIG    1        1.169   2.118  -0.014  0.00  0.00    +0.100 A 
ENDROOT
BRANCH   1  13
ATOM      7  C   LIG    1        0.651  -5.364   0.596  0.00  0.00    +0.030 C 
ATOM      8  C   LIG    1        0.409  -4.002   1.248  0.00  0.00    -0.010 C 
ATOM      9  C   LIG    1        0.168  -2.925   0.168  0.00  0.00    +0.260 C 
ATOM     10  N   LIG    1       -0.867  -2.038   0.749  0.00  0.00    -0.640 N 
ATOM     11  C   LIG    1       -1.796  -2.962   1.439  0.00  0.00    +0.300 C 
ATOM     12  C   LIG    1       -0.942  -0.695   0.672  0.00  0.00    +0.730 C 
ATOM     13  N   LIG    1        0.002  -0.004   0.002  0.00  0.00    -0.680 N 
ATOM     14  H   LIG    1        0.699  -0.477  -0.479  0.00  0.00    +0.410 HD
ATOM     15  O   LIG    1       -1.861  -0.105   1.208  0.00  0.00    -0.570 OA
ATOM     16  C   LIG    1       -0.888  -4.026   2.083  0.00  0.00    -0.070 C 
ATOM     17  C   LIG    1       -0.592  -3.660   3.538  0.00  0.00    +0.050 C 
BRANCH  16  18
ATOM     18  C   LIG    1       -1.544  -5.407   2.006  0.00  0.00    +0.190 C 
BRANCH  18  19
ATOM     19  O   LIG    1       -2.742  -5.409   2.784  0.00  0.00    -0.570 OA
ATOM     20  H   LIG    1       -3.211  -6.254   2.781  0.00  0.00    +0.380 HD
ENDBRANCH  18  19
ENDBRANCH  16  18
ENDBRANCH   1  13
BRANCH   6  21
ATOM     21  O   LIG    1        2.361   1.463  -0.027  0.00  0.00    -0.320 OA
BRANCH  21  22
ATOM     22  C   LIG    1        3.542   2.266  -0.041  0.00  0.00    +0.190 C 
BRANCH  22  23
ATOM     23  C   LIG    1        4.775   1.360  -0.054  0.00  0.00    +0.080 C 
BRANCH  23  24
ATOM     24  C   LIG    1        6.021   2.207  -0.069  0.00  0.00    -0.090 A 
ATOM     25  C   LIG    1        6.582   2.590  -1.273  0.00  0.00    +0.010 A 
ATOM     26  C   LIG    1        7.723   3.371  -1.287  0.00  0.00    +0.000 A 
ATOM     27  C   LIG    1        8.308   3.761  -0.097  0.00  0.00    +0.000 A 
ATOM     28  C   LIG    1        7.750   3.374   1.107  0.00  0.00    +0.000 A 
ATOM     29  C   LIG    1        6.606   2.597   1.121  0.00  0.00    +0.010 A 
ENDBRANCH  23  24
ENDBRANCH  22  23
ENDBRANCH  21  22
ENDBRANCH   6  21
TORSDOF 7
