REMARK  Name = ZINCvU0000000JQU.0
REMARK                            x       y       z     vdW  Elec       q    Type
REMARK                         _______ _______ _______ _____ _____    ______ ____
ROOT
ATOM      1  C   LIG    1        0.990  -0.265   1.440  0.00  0.00    +0.200 A 
ATOM      2  N   LIG    1        1.584   0.624   2.204  0.00  0.00    -0.470 NA
ATOM      3  C   LIG    1        2.305  -0.002   3.144  0.00  0.00    +0.190 A 
ATOM      4  C   LIG    1        2.161  -1.341   2.968  0.00  0.00    +0.030 A 
ATOM      5  N   LIG    1        1.317  -1.510   1.884  0.00  0.00    -0.430 N 
ENDROOT
BRANCH   4   6
ATOM      6  C   LIG    1        2.779  -2.410   3.780  0.00  0.00    -0.010 A 
ATOM      7  C   LIG    1        2.101  -3.612   3.991  0.00  0.00    +0.000 A 
ATOM      8  C   LIG    1        2.687  -4.608   4.745  0.00  0.00    +0.020 A 
ATOM      9  C   LIG    1        3.938  -4.412   5.302  0.00  0.00    +0.020 A 
ATOM     10  C   LIG    1        4.613  -3.221   5.102  0.00  0.00    +0.020 A 
ATOM     11  C   LIG    1        4.042  -2.220   4.345  0.00  0.00    +0.030 A 
ENDBRANCH   4   6
BRANCH   1  12
ATOM     12  S   LIG    1       -0.061   0.095   0.073  0.00  0.00    -0.010 S 
BRANCH  12  14
ATOM     13  C   LIG    1       -0.671   2.402   1.404  0.00  0.00    +0.100 C 
ATOM     14  C   LIG    1       -0.019   1.904   0.112  0.00  0.00    +0.120 C 
BRANCH  14  15
ATOM     15  C   LIG    1       -0.773   2.450  -1.074  0.00  0.00    +0.470 A 
ATOM     16  N   LIG    1       -0.464   3.640  -1.508  0.00  0.00    -0.580 NA
ATOM     17  C   LIG    1       -1.092   4.195  -2.562  0.00  0.00    +0.540 A 
ATOM     18  C   LIG    1       -2.154   3.417  -3.225  0.00  0.00    -0.210 A 
ATOM     19  C   LIG    1       -2.858   3.910  -4.320  0.00  0.00    +0.120 A 
ATOM     20  C   LIG    1       -3.841   3.136  -4.899  0.00  0.00    -0.010 A 
ATOM     21  C   LIG    1       -4.131   1.876  -4.396  0.00  0.00    +0.090 A 
ATOM     22  C   LIG    1       -3.442   1.375  -3.311  0.00  0.00    -0.020 A 
ATOM     23  C   LIG    1       -2.448   2.139  -2.716  0.00  0.00    +0.180 A 
ATOM     24  O   LIG    1       -0.791   5.309  -2.956  0.00  0.00    -0.470 OA
ATOM     25  N   LIG    1       -1.726   1.682  -1.631  0.00  0.00    -0.620 N 
ATOM     26  H   LIG    1       -1.909   0.802  -1.267  0.00  0.00    +0.420 HD
ENDBRANCH  14  15
ENDBRANCH  12  14
ENDBRANCH   1  12
BRANCH   5  27
ATOM     27  C   LIG    1        0.865  -2.784   1.320  0.00  0.00    +0.420 C 
BRANCH  27  28
ATOM     28  C   LIG    1        1.902  -3.304   0.358  0.00  0.00    -0.060 A 
ATOM     29  C   LIG    1        2.935  -4.106   0.673  0.00  0.00    -0.020 A 
ATOM     30  C   LIG    1        3.648  -4.346  -0.524  0.00  0.00    -0.070 A 
ATOM     31  C   LIG    1        3.012  -3.670  -1.498  0.00  0.00    +0.190 A 
ATOM     32  O   LIG    1        1.956  -3.041  -0.958  0.00  0.00    -0.170 OA
ENDBRANCH  27  28
ENDBRANCH   5  27
TORSDOF 6
