REMARK  Name = ZINCpk000005ZCKf.0
REMARK                            x       y       z     vdW  Elec       q    Type
REMARK                         _______ _______ _______ _____ _____    ______ ____
ROOT
ATOM      1  C   LIG    1       -1.627   2.446   1.444  0.00  0.00    -0.110 A 
ATOM      2  C   LIG    1       -2.498   1.592   2.094  0.00  0.00    +0.030 A 
ATOM      3  C   LIG    1       -2.867   1.845   3.402  0.00  0.00    +0.030 A 
ATOM      4  C   LIG    1       -2.373   2.957   4.057  0.00  0.00    -0.110 A 
ATOM      5  C   LIG    1       -1.506   3.814   3.406  0.00  0.00    +0.040 A 
ATOM      6  C   LIG    1       -1.133   3.559   2.099  0.00  0.00    +0.010 A 
ENDROOT
BRANCH   1   7
ATOM      7  C   LIG    1       -1.222   2.168   0.020  0.00  0.00    +0.370 C 
BRANCH   7  14
ATOM      8  O   LIG    1       -1.008  -0.681   0.008  0.00  0.00    -0.580 OA
ATOM      9  C   LIG    1        0.002  -0.004   0.002  0.00  0.00    +0.700 C 
ATOM     10  N   LIG    1        1.234  -0.530  -0.013  0.00  0.00    -0.740 N 
ATOM     11  H   LIG    1        1.440  -1.478  -0.020  0.00  0.00    +0.430 HD
ATOM     12  C   LIG    1        2.224   0.557  -0.016  0.00  0.00    +0.250 C 
ATOM     13  C   LIG    1        1.366   1.837  -0.001  0.00  0.00    +0.250 C 
ATOM     14  N   LIG    1       -0.016   1.335   0.009  0.00  0.00    -0.630 N 
ENDBRANCH   7  14
ENDBRANCH   1   7
BRANCH   4  15
ATOM     15  C   LIG    1       -2.779   3.235   5.481  0.00  0.00    +0.350 C 
BRANCH  15  16
ATOM     16  N   LIG    1       -3.983   4.069   5.492  0.00  0.00    -0.560 N 
ATOM     17  C   LIG    1       -5.195   3.482   5.495  0.00  0.00    +0.520 C 
ATOM     18  C   LIG    1       -6.441   4.327   5.405  0.00  0.00    +0.100 C 
ATOM     19  C   LIG    1       -6.207   5.648   6.142  0.00  0.00    +0.280 C 
ATOM     20  N   LIG    1       -4.912   6.206   5.747  0.00  0.00    -0.720 N 
ATOM     21  H   LIG    1       -4.811   7.168   5.663  0.00  0.00    +0.420 HD
ATOM     22  O   LIG    1       -5.284   2.276   5.569  0.00  0.00    -0.490 OA
ATOM     23  C   LIG    1       -3.862   5.407   5.504  0.00  0.00    +0.710 C 
ATOM     24  O   LIG    1       -2.776   5.906   5.285  0.00  0.00    -0.550 OA
BRANCH  19  25
ATOM     25  C   LIG    1       -6.215   5.398   7.652  0.00  0.00    -0.080 C 
ATOM     26  C   LIG    1       -7.385   5.966   8.456  0.00  0.00    +0.040 C 
ATOM     27  C   LIG    1       -5.998   6.603   8.569  0.00  0.00    +0.030 C 
ENDBRANCH  19  25
ENDBRANCH  15  16
ENDBRANCH   4  15
TORSDOF 5
