REMARK  Name = ZINCrD000000C79f.0
REMARK                            x       y       z     vdW  Elec       q    Type
REMARK                         _______ _______ _______ _____ _____    ______ ____
ROOT
ATOM      1  O   LIG    1        7.575  -0.569   3.438  0.00  0.00    -0.530 OA
ATOM      2  C   LIG    1        6.922  -1.593   3.385  0.00  0.00    +0.600 C 
ATOM      3  N   LIG    1        5.701  -1.585   2.815  0.00  0.00    -0.670 N 
ATOM      4  H   LIG    1        5.152  -2.385   2.832  0.00  0.00    +0.410 HD
ENDROOT
BRANCH   3   5
ATOM      5  C   LIG    1        5.224  -0.423   2.199  0.00  0.00    +0.180 A 
ATOM      6  C   LIG    1        5.533   0.823   2.731  0.00  0.00    +0.000 A 
ATOM      7  C   LIG    1        5.062   1.971   2.124  0.00  0.00    +0.060 A 
ATOM      8  C   LIG    1        4.289   1.885   0.983  0.00  0.00    -0.040 A 
ATOM      9  C   LIG    1        3.972   0.642   0.448  0.00  0.00    +0.180 A 
ATOM     10  C   LIG    1        4.443  -0.513   1.056  0.00  0.00    -0.020 A 
BRANCH   9  11
ATOM     11  N   LIG    1        3.184   0.555  -0.705  0.00  0.00    -0.560 N 
ATOM     12  C   LIG    1        2.536   1.701  -1.353  0.00  0.00    +0.260 C 
ATOM     13  C   LIG    1        1.458   1.096  -2.279  0.00  0.00    +0.060 C 
ATOM     14  C   LIG    1        2.033  -0.313  -2.553  0.00  0.00    +0.070 C 
ATOM     15  C   LIG    1        2.923  -0.589  -1.361  0.00  0.00    +0.510 C 
ATOM     16  O   LIG    1        3.340  -1.683  -1.043  0.00  0.00    -0.510 OA
ENDBRANCH   9  11
ENDBRANCH   3   5
BRANCH   2  17
ATOM     17  C   LIG    1        7.465  -2.844   3.945  0.00  0.00    -0.300 A 
ATOM     18  C   LIG    1        8.693  -3.003   4.556  0.00  0.00    +0.330 A 
ATOM     19  N   LIG    1        8.797  -4.291   4.921  0.00  0.00    -0.350 N 
ATOM     20  N   LIG    1        7.626  -4.956   4.540  0.00  0.00    -0.280 NA
ATOM     21  C   LIG    1        6.824  -4.103   3.963  0.00  0.00    +0.270 A 
BRANCH  19  22
ATOM     22  C   LIG    1        9.942  -4.898   5.604  0.00  0.00    +0.380 C 
BRANCH  22  23
ATOM     23  C   LIG    1        9.474  -5.573   6.867  0.00  0.00    -0.120 A 
ATOM     24  C   LIG    1        9.440  -4.868   8.056  0.00  0.00    +0.020 A 
ATOM     25  C   LIG    1        9.006  -5.486   9.214  0.00  0.00    +0.010 A 
ATOM     26  C   LIG    1        8.615  -6.811   9.185  0.00  0.00    +0.010 A 
ATOM     27  C   LIG    1        8.654  -7.518   7.997  0.00  0.00    +0.010 A 
ATOM     28  C   LIG    1        9.083  -6.898   6.839  0.00  0.00    +0.050 A 
ENDBRANCH  22  23
ENDBRANCH  19  22
ENDBRANCH   2  17
TORSDOF 5
