REMARK  Name = ZINCrD00000l4YMV.0
REMARK                            x       y       z     vdW  Elec       q    Type
REMARK                         _______ _______ _______ _____ _____    ______ ____
ROOT
ATOM      1  N   LIG    1       -3.374  -1.979  -0.432  0.00  0.00    -0.680 N 
ATOM      2  H   LIG    1       -3.757  -1.430  -1.134  0.00  0.00    +0.410 HD
ATOM      3  C   LIG    1       -2.701  -1.401   0.583  0.00  0.00    +0.700 C 
ATOM      4  N   LIG    1       -2.461  -0.075   0.565  0.00  0.00    -0.620 N 
ATOM      5  C   LIG    1       -2.939   0.700  -0.559  0.00  0.00    +0.260 C 
ATOM      6  C   LIG    1       -1.859   0.725  -1.669  0.00  0.00    +0.010 C 
ATOM      7  C   LIG    1       -0.723   1.563  -1.257  0.00  0.00    +0.010 C 
ATOM      8  C   LIG    1        0.017   1.057  -0.022  0.00  0.00    +0.240 C 
ATOM      9  C   LIG    1       -0.680   1.557   1.219  0.00  0.00    +0.010 C 
ATOM     10  C   LIG    1       -1.722   0.526   1.692  0.00  0.00    +0.300 C 
ATOM     11  O   LIG    1       -2.311  -2.076   1.516  0.00  0.00    -0.560 OA
ENDROOT
BRANCH   1  18
ATOM     12  C   LIG    1       -5.595  -3.099  -1.874  0.00  0.00    +0.100 C 
ATOM     13  C   LIG    1       -4.580  -3.954  -1.159  0.00  0.00    -0.180 A 
ATOM     14  C   LIG    1       -4.685  -5.329  -1.181  0.00  0.00    +0.280 A 
ATOM     15  N   LIG    1       -3.804  -6.085  -0.552  0.00  0.00    -0.500 NA
ATOM     16  C   LIG    1       -2.789  -5.566   0.113  0.00  0.00    +0.270 A 
ATOM     17  C   LIG    1       -2.610  -4.199   0.177  0.00  0.00    -0.020 A 
ATOM     18  C   LIG    1       -3.519  -3.366  -0.472  0.00  0.00    +0.210 A 
ENDBRANCH   1  18
BRANCH   8  19
ATOM     19  N   LIG    1        1.396   1.552  -0.041  0.00  0.00    -0.740 N 
ATOM     20  H   LIG    1        1.613   2.364  -0.525  0.00  0.00    +0.400 HD
BRANCH  19  21
ATOM     21  C   LIG    1        2.400   0.853   0.641  0.00  0.00    +0.110 A 
ATOM     22  C   LIG    1        3.715   1.313   0.624  0.00  0.00    +0.020 A 
ATOM     23  C   LIG    1        4.674   0.594   1.315  0.00  0.00    -0.060 A 
ATOM     24  C   LIG    1        4.298  -0.562   1.990  0.00  0.00    +0.350 A 
ATOM     25  N   LIG    1        3.039  -0.972   1.980  0.00  0.00    -0.500 NA
ATOM     26  C   LIG    1        2.098  -0.308   1.337  0.00  0.00    +0.230 A 
BRANCH  24  27
ATOM     27  N   LIG    1        5.256  -1.297   2.684  0.00  0.00    -0.630 N 
ATOM     28  C   LIG    1        4.893  -2.573   3.305  0.00  0.00    +0.280 C 
ATOM     29  C   LIG    1        6.628  -0.794   2.792  0.00  0.00    +0.280 C 
ENDBRANCH  24  27
ENDBRANCH  19  21
ENDBRANCH   8  19
TORSDOF 4
