REMARK  Name = ZINCvU0000000Dqy.0
REMARK                            x       y       z     vdW  Elec       q    Type
REMARK                         _______ _______ _______ _____ _____    ______ ____
ROOT
ATOM      1  C   LIG    1       -0.017   4.724  -1.443  0.00  0.00    +0.320 C 
ENDROOT
BRANCH   1   2
ATOM      2  C   LIG    1        0.178   3.701  -2.533  0.00  0.00    +0.110 A 
ATOM      3  C   LIG    1       -0.914   3.253  -3.251  0.00  0.00    -0.020 A 
ATOM      4  C   LIG    1       -0.723   2.315  -4.255  0.00  0.00    +0.080 A 
ATOM      5  C   LIG    1        0.563   1.855  -4.492  0.00  0.00    -0.020 A 
ATOM      6  C   LIG    1        1.606   2.350  -3.733  0.00  0.00    +0.260 A 
ATOM      7  N   LIG    1        1.389   3.245  -2.790  0.00  0.00    -0.440 NA
ENDBRANCH   1   2
BRANCH   1   9
ATOM      8  O   LIG    1        0.307   4.141   0.821  0.00  0.00    -0.510 OA
ATOM      9  C   LIG    1       -0.395   4.027  -0.162  0.00  0.00    +0.510 C 
ATOM     10  N   LIG    1       -1.513   3.277  -0.107  0.00  0.00    -0.720 N 
ATOM     11  H   LIG    1       -2.075   3.185  -0.893  0.00  0.00    +0.400 HD
BRANCH  10  12
ATOM     12  C   LIG    1       -1.881   2.599   1.138  0.00  0.00    +0.240 C 
ATOM     13  C   LIG    1       -1.152   1.256   1.223  0.00  0.00    +0.000 C 
ATOM     14  C   LIG    1       -1.536   0.549   2.524  0.00  0.00    +0.000 C 
ATOM     15  C   LIG    1       -3.048   0.311   2.548  0.00  0.00    +0.000 C 
ATOM     16  C   LIG    1       -3.777   1.654   2.463  0.00  0.00    +0.020 C 
ATOM     17  C   LIG    1       -3.392   2.361   1.162  0.00  0.00    +0.010 C 
ENDBRANCH  10  12
ENDBRANCH   1   9
BRANCH   1  18
ATOM     18  N   LIG    1        1.229   5.469  -1.244  0.00  0.00    -0.600 N 
ATOM     19  C   LIG    1        1.251   6.805  -1.423  0.00  0.00    +0.580 C 
ATOM     20  O   LIG    1        0.314   7.483  -1.051  0.00  0.00    -0.510 OA
BRANCH  18  21
ATOM     21  C   LIG    1        2.451   4.762  -0.852  0.00  0.00    +0.280 C 
ATOM     22  C   LIG    1        3.202   5.585   0.196  0.00  0.00    -0.010 C 
ATOM     23  C   LIG    1        4.478   4.847   0.606  0.00  0.00    +0.030 C 
ATOM     24  C   LIG    1        5.369   4.649  -0.622  0.00  0.00    +0.000 C 
ATOM     25  C   LIG    1        4.618   3.825  -1.670  0.00  0.00    +0.010 C 
ATOM     26  C   LIG    1        3.342   4.564  -2.080  0.00  0.00    +0.010 C 
ENDBRANCH  18  21
BRANCH  19  27
ATOM     27  C   LIG    1        2.416   7.445  -2.070  0.00  0.00    -0.160 A 
ATOM     28  C   LIG    1        3.699   6.931  -1.871  0.00  0.00    +0.090 A 
ATOM     29  C   LIG    1        4.781   7.531  -2.481  0.00  0.00    -0.020 A 
ATOM     30  C   LIG    1        4.598   8.645  -3.281  0.00  0.00    +0.030 A 
ATOM     31  C   LIG    1        3.330   9.162  -3.479  0.00  0.00    -0.010 A 
ATOM     32  C   LIG    1        2.239   8.569  -2.878  0.00  0.00    +0.070 A 
ENDBRANCH  19  27
ENDBRANCH   1  18
TORSDOF 6
