REMARK  Name = ZINCpk000000pTIV.0
REMARK                            x       y       z     vdW  Elec       q    Type
REMARK                         _______ _______ _______ _____ _____    ______ ____
ROOT
ATOM      1  C   LIG    1       -3.581  -0.713   1.043  0.00  0.00    -0.160 A 
ATOM      2  C   LIG    1       -4.042  -1.517  -0.002  0.00  0.00    +0.080 A 
ATOM      3  C   LIG    1       -5.331  -1.992   0.011  0.00  0.00    -0.010 A 
ATOM      4  C   LIG    1       -6.193  -1.676   1.067  0.00  0.00    +0.190 A 
ATOM      5  C   LIG    1       -5.730  -0.876   2.105  0.00  0.00    -0.140 A 
ATOM      6  C   LIG    1       -6.851  -0.691   3.105  0.00  0.00    +0.120 C 
ATOM      7  C   LIG    1       -8.026  -1.488   2.514  0.00  0.00    +0.240 C 
ATOM      8  C   LIG    1       -8.442  -2.607   3.471  0.00  0.00    +0.040 C 
ATOM      9  N   LIG    1       -7.517  -2.054   1.263  0.00  0.00    -0.930 N 
ATOM     10  C   LIG    1       -4.438  -0.401   2.102  0.00  0.00    +0.130 A 
ENDROOT
BRANCH   1  13
ATOM     11  N   LIG    1       -1.372  -0.511   0.012  0.00  0.00    -0.720 N 
ATOM     12  H   LIG    1       -1.689  -1.069  -0.715  0.00  0.00    +0.410 HD
ATOM     13  C   LIG    1       -2.197  -0.202   1.033  0.00  0.00    +0.570 C 
ATOM     14  O   LIG    1       -1.800   0.497   1.945  0.00  0.00    -0.530 OA
BRANCH  11  15
ATOM     15  C   LIG    1        0.002  -0.004   0.002  0.00  0.00    +0.200 C 
ATOM     16  C   LIG    1       -0.019   1.526   0.010  0.00  0.00    +0.080 C 
BRANCH  15  18
ATOM     17  C   LIG    1        0.763  -2.041   1.233  0.00  0.00    +0.030 C 
ATOM     18  C   LIG    1        0.742  -0.511   1.242  0.00  0.00    +0.050 C 
ENDBRANCH  15  18
BRANCH  15  19
ATOM     19  C   LIG    1        0.707  -0.490  -1.238  0.00  0.00    +0.460 C 
ATOM     20  O   LIG    1        1.518   0.217  -1.788  0.00  0.00    -0.490 OA
BRANCH  19  21
ATOM     21  O   LIG    1        0.435  -1.708  -1.731  0.00  0.00    -0.360 OA
ATOM     22  C   LIG    1        1.152  -2.110  -2.928  0.00  0.00    +0.280 C 
ENDBRANCH  19  21
ENDBRANCH  15  19
ENDBRANCH  11  15
ENDBRANCH   1  13
BRANCH   9  23
ATOM     23  S   LIG    1       -8.392  -3.005   0.228  0.00  0.00    +2.610 S 
ATOM     24  O   LIG    1       -7.782  -2.800  -1.038  0.00  0.00    -0.940 OA
ATOM     25  O   LIG    1       -9.742  -2.627   0.461  0.00  0.00    -0.940 OA
ATOM     26  C   LIG    1       -8.096  -4.698   0.810  0.00  0.00    -0.270 C 
ENDBRANCH   9  23
TORSDOF 6
