REMARK  Name = ZINCrH000004soj6.0
REMARK                            x       y       z     vdW  Elec       q    Type
REMARK                         _______ _______ _______ _____ _____    ______ ____
ROOT
ATOM      1  C   LIG    1        4.692   6.814  -0.016  0.00  0.00    +0.600 C 
ATOM      2  N   LIG    1        4.248   8.082  -0.113  0.00  0.00    -0.730 N 
ATOM      3  H   LIG    1        3.309   8.256  -0.281  0.00  0.00    +0.400 HD
ATOM      4  O   LIG    1        5.871   6.596   0.195  0.00  0.00    -0.520 OA
ENDROOT
BRANCH   1   7
ATOM      5  C   LIG    1        5.466   3.863   0.166  0.00  0.00    +0.170 C 
ATOM      6  C   LIG    1        4.067   4.364  -0.087  0.00  0.00    +0.160 A 
ATOM      7  C   LIG    1        3.755   5.695  -0.163  0.00  0.00    -0.320 A 
ATOM      8  S   LIG    1        2.025   5.823  -0.475  0.00  0.00    +0.240 S 
ATOM      9  C   LIG    1        1.885   4.120  -0.467  0.00  0.00    +0.090 A 
ATOM     10  N   LIG    1        3.046   3.568  -0.254  0.00  0.00    -0.470 NA
BRANCH   9  11
ATOM     11  C   LIG    1        0.625   3.377  -0.678  0.00  0.00    +0.170 A 
ATOM     12  C   LIG    1        0.631   1.982  -0.656  0.00  0.00    +0.040 A 
ATOM     13  C   LIG    1       -0.558   1.301  -0.855  0.00  0.00    +0.060 A 
ATOM     14  C   LIG    1       -1.713   2.036  -1.075  0.00  0.00    -0.010 A 
ATOM     15  C   LIG    1       -1.649   3.419  -1.079  0.00  0.00    +0.280 A 
ATOM     16  N   LIG    1       -0.506   4.043  -0.887  0.00  0.00    -0.470 NA
ENDBRANCH   9  11
ENDBRANCH   1   7
BRANCH   2  17
ATOM     17  C   LIG    1        5.185   9.199   0.034  0.00  0.00    +0.280 C 
BRANCH  17  18
ATOM     18  C   LIG    1        4.430  10.521  -0.120  0.00  0.00    -0.020 C 
ATOM     19  C   LIG    1        3.962  10.706  -1.582  0.00  0.00    +0.040 C 
ATOM     20  C   LIG    1        4.190  12.218  -1.830  0.00  0.00    +0.180 C 
ATOM     21  N   LIG    1        5.450  12.497  -1.094  0.00  0.00    -0.480 N 
ATOM     22  C   LIG    1        5.371  11.709   0.155  0.00  0.00    +0.200 C 
BRANCH  21  23
ATOM     23  C   LIG    1        5.577  13.861  -0.819  0.00  0.00    +0.080 A 
ATOM     24  C   LIG    1        6.631  14.585  -1.362  0.00  0.00    +0.040 A 
ATOM     25  C   LIG    1        6.751  15.934  -1.091  0.00  0.00    +0.020 A 
ATOM     26  C   LIG    1        5.830  16.561  -0.272  0.00  0.00    +0.000 A 
ATOM     27  C   LIG    1        4.783  15.842   0.275  0.00  0.00    +0.010 A 
ATOM     28  C   LIG    1        4.654  14.494   0.004  0.00  0.00    -0.030 A 
ENDBRANCH  21  23
ENDBRANCH  17  18
ENDBRANCH   2  17
TORSDOF 5
