REMARK  Name = ZINCbw0000000Hkk.1
REMARK                            x       y       z     vdW  Elec       q    Type
REMARK                         _______ _______ _______ _____ _____    ______ ____
ROOT
ATOM      1  C   LIG    1        3.663   2.198  -0.020  0.00  0.00    +0.100 C 
ATOM      2  C   LIG    1        2.377   1.413  -0.012  0.00  0.00    -0.010 A 
ATOM      3  C   LIG    1        1.161   2.086   0.002  0.00  0.00    -0.130 A 
ATOM      4  C   LIG    1       -0.017   1.395   0.010  0.00  0.00    +0.140 A 
ATOM      5  C   LIG    1        0.002  -0.004   0.002  0.00  0.00    -0.190 A 
ATOM      6  C   LIG    1       -1.033  -1.032   0.006  0.00  0.00    +0.290 A 
ATOM      7  N   LIG    1       -0.442  -2.193  -0.005  0.00  0.00    -0.250 NA
ATOM      8  N   LIG    1        0.947  -2.024  -0.018  0.00  0.00    -0.510 N 
ATOM      9  H   LIG    1        1.600  -2.741  -0.028  0.00  0.00    +0.440 HD
ATOM     10  C   LIG    1        1.235  -0.684  -0.013  0.00  0.00    +0.150 A 
ATOM     11 BR   LIG    1        1.137   3.977   0.013  0.00  0.00    -0.040 Br
ATOM     12  C   LIG    1        2.420   0.047  -0.020  0.00  0.00    +0.000 A 
ENDROOT
TORSDOF 0
