REMARK  Name = ZINCbw0000000Hkk.0
REMARK                            x       y       z     vdW  Elec       q    Type
REMARK                         _______ _______ _______ _____ _____    ______ ____
ROOT
ATOM      1  C   LIG    1        0.954   5.561   0.023  0.00  0.00    +0.100 C 
ATOM      2  C   LIG    1        0.644   4.087   0.018  0.00  0.00    -0.020 A 
ATOM      3  C   LIG    1        1.667   3.197   0.003  0.00  0.00    +0.040 A 
ATOM      4  C   LIG    1        1.389   1.813  -0.002  0.00  0.00    +0.110 A 
ATOM      5  N   LIG    1        2.127   0.718  -0.014  0.00  0.00    -0.300 NA
ATOM      6  N   LIG    1        1.283  -0.399  -0.012  0.00  0.00    -0.420 N 
ATOM      7  H   LIG    1        1.581  -1.322  -0.020  0.00  0.00    +0.450 HD
ATOM      8  C   LIG    1        0.002  -0.004   0.002  0.00  0.00    +0.290 A 
ATOM      9  C   LIG    1       -0.017   1.378   0.010  0.00  0.00    -0.220 A 
ATOM     10  C   LIG    1       -1.031   2.359   0.030  0.00  0.00    +0.140 A 
ATOM     11  C   LIG    1       -0.691   3.673   0.028  0.00  0.00    -0.120 A 
ATOM     12 BR   LIG    1       -2.060   4.978   0.048  0.00  0.00    -0.050 Br
ENDROOT
TORSDOF 0
