REMARK  Name = ZINCb80000003Wtc.0
REMARK                            x       y       z     vdW  Elec       q    Type
REMARK                         _______ _______ _______ _____ _____    ______ ____
ROOT
ATOM      1  C   LIG    1        0.617  -0.370   1.375  0.00  0.00    -0.450 C 
ATOM      2  C   LIG    1        0.002  -0.004   0.002  0.00  0.00    +0.070 C 
ATOM      3  C   LIG    1       -0.019   1.558   0.011  0.00  0.00    +0.040 C 
ATOM      4  C   LIG    1        1.463   1.951  -0.001  0.00  0.00    -0.030 C 
ATOM      5  C   LIG    1        2.002   1.630   1.181  0.00  0.00    -0.020 C 
ATOM      6  C   LIG    1       -0.356   1.829   1.523  0.00  0.00    +0.050 C 
ATOM      7  C   LIG    1        0.889   1.018   2.039  0.00  0.00    +0.050 C 
ENDROOT
BRANCH   1   8
ATOM      8  S   LIG    1       -0.559  -1.334   2.364  0.00  0.00    +2.620 S 
ATOM      9  O   LIG    1       -1.826  -0.691   2.400  0.00  0.00    -0.960 OA
ATOM     10  O   LIG    1        0.058  -1.804   3.554  0.00  0.00    -0.960 OA
BRANCH   8  11
ATOM     11  N   LIG    1       -0.823  -2.704   1.472  0.00  0.00    -1.250 NA
ATOM     12  H   LIG    1       -1.428  -3.388   1.800  0.00  0.00    +0.420 HD
ATOM     13  H   LIG    1       -0.372  -2.824   0.621  0.00  0.00    +0.410 HD
ENDBRANCH   8  11
ENDBRANCH   1   8
TORSDOF 2
