REMARK  Name = ZINCpk00000jFo7C.0
REMARK                            x       y       z     vdW  Elec       q    Type
REMARK                         _______ _______ _______ _____ _____    ______ ____
ROOT
ATOM      1  N   LIG    1        2.452  -2.597  -0.048  0.00  0.00    -0.480 N 
ATOM      2  C   LIG    1        2.600  -3.421   1.159  0.00  0.00    +0.190 C 
ATOM      3  C   LIG    1        3.861  -4.282   1.035  0.00  0.00    +0.310 C 
ATOM      4  N   LIG    1        5.001  -3.401   0.740  0.00  0.00    -0.630 N 
ATOM      5  C   LIG    1        4.874  -2.448  -0.374  0.00  0.00    +0.310 C 
ATOM      6  C   LIG    1        3.573  -1.659  -0.194  0.00  0.00    +0.190 C 
ENDROOT
BRANCH   4   7
ATOM      7  C   LIG    1        6.178  -3.467   1.500  0.00  0.00    +0.110 A 
ATOM      8  C   LIG    1        6.329  -4.438   2.439  0.00  0.00    +0.180 A 
ATOM      9  N   LIG    1        7.467  -4.513   3.181  0.00  0.00    -0.590 N 
ATOM     10  H   LIG    1        7.559  -5.212   3.848  0.00  0.00    +0.420 HD
ATOM     11  C   LIG    1        8.465  -3.627   3.002  0.00  0.00    +0.500 A 
ATOM     12  C   LIG    1        8.343  -2.611   2.041  0.00  0.00    -0.050 A 
ATOM     13  O   LIG    1        9.480  -3.709   3.677  0.00  0.00    -0.560 OA
ATOM     14  C   LIG    1        7.208  -2.533   1.289  0.00  0.00    +0.090 A 
ENDBRANCH   4   7
BRANCH   1  19
ATOM     15  C   LIG    1       -0.220  -0.439   0.940  0.00  0.00    +0.320 A 
ATOM     16  N   LIG    1       -1.117  -0.612  -0.019  0.00  0.00    -0.460 NA
ATOM     17  C   LIG    1       -0.883  -1.433  -1.030  0.00  0.00    +0.370 A 
ATOM     18  C   LIG    1        0.314  -2.126  -1.076  0.00  0.00    -0.150 A 
ATOM     19  C   LIG    1        1.240  -1.925  -0.045  0.00  0.00    +0.370 A 
ATOM     20 BR   LIG    1        0.691  -3.314  -2.498  0.00  0.00    +0.020 Br
ATOM     21  N   LIG    1        0.938  -1.082   0.934  0.00  0.00    -0.480 NA
BRANCH  15  22
ATOM     22  C   LIG    1       -0.523   0.496   2.052  0.00  0.00    +0.540 C 
ATOM     23  O   LIG    1        0.286   0.662   2.942  0.00  0.00    -0.460 OA
BRANCH  22  24
ATOM     24  O   LIG    1       -1.692   1.163   2.072  0.00  0.00    -0.330 OA
BRANCH  24  26
ATOM     25  C   LIG    1       -3.291   2.723   3.041  0.00  0.00    +0.070 C 
ATOM     26  C   LIG    1       -1.921   2.060   3.191  0.00  0.00    +0.220 C 
ENDBRANCH  24  26
ENDBRANCH  22  24
ENDBRANCH  15  22
ENDBRANCH   1  19
TORSDOF 5
