REMARK  Name = ZINCqH0000007eGa.1
REMARK                            x       y       z     vdW  Elec       q    Type
REMARK                         _______ _______ _______ _____ _____    ______ ____
ROOT
ATOM      1  C   LIG    1       -0.005  -2.831  -0.014  0.00  0.00    +0.280 A 
ATOM      2  N   LIG    1        1.213  -2.339  -0.024  0.00  0.00    -0.260 NA
ATOM      3  N   LIG    1        2.095  -3.432  -0.038  0.00  0.00    -0.460 N 
ATOM      4  H   LIG    1        3.064  -3.395  -0.047  0.00  0.00    +0.450 HD
ATOM      5  C   LIG    1        1.327  -4.544  -0.036  0.00  0.00    +0.250 A 
ATOM      6  N   LIG    1        0.067  -4.170  -0.017  0.00  0.00    -0.530 NA
ENDROOT
BRANCH   1  13
ATOM      7  C   LIG    1       -1.200  -0.637   0.010  0.00  0.00    +0.170 A 
ATOM      8  C   LIG    1       -2.373   0.099   0.031  0.00  0.00    -0.060 A 
ATOM      9  C   LIG    1       -3.596  -0.546   0.034  0.00  0.00    +0.090 A 
ATOM     10  C   LIG    1       -3.656  -1.929   0.028  0.00  0.00    -0.080 A 
ATOM     11  C   LIG    1       -2.493  -2.675   0.012  0.00  0.00    +0.120 A 
ATOM     12 CL   LIG    1       -5.197  -2.728   0.038  0.00  0.00    -0.060 Cl
ATOM     13  C   LIG    1       -1.257  -2.034   0.003  0.00  0.00    -0.040 A 
BRANCH   7  15
ATOM     14  C   LIG    1       -0.017   1.425   0.010  0.00  0.00    +0.240 C 
ATOM     15  O   LIG    1        0.002  -0.004   0.002  0.00  0.00    -0.290 OA
ENDBRANCH   7  15
ENDBRANCH   1  13
BRANCH   5  16
ATOM     16  S   LIG    1        1.913  -6.206  -0.051  0.00  0.00    +0.090 S 
BRANCH  16  17
ATOM     17  C   LIG    1        0.337  -7.095  -0.040  0.00  0.00    +0.110 C 
BRANCH  17  18
ATOM     18  C   LIG    1        0.597  -8.579  -0.050  0.00  0.00    +0.530 C 
ATOM     19  N   LIG    1       -0.436  -9.445  -0.044  0.00  0.00    -0.600 N 
ATOM     20  C   LIG    1       -1.821  -8.957  -0.022  0.00  0.00    +0.280 C 
ATOM     21  C   LIG    1       -2.584  -9.598  -1.190  0.00  0.00    -0.030 C 
ATOM     22  C   LIG    1       -2.453 -11.121  -1.103  0.00  0.00    +0.030 C 
ATOM     23  C   LIG    1       -0.979 -11.515  -1.217  0.00  0.00    -0.020 C 
ATOM     24  C   LIG    1       -0.414 -11.002  -2.543  0.00  0.00    +0.030 C 
ATOM     25  C   LIG    1       -4.061  -9.208  -1.110  0.00  0.00    +0.030 C 
ATOM     26  C   LIG    1       -0.198 -10.895  -0.054  0.00  0.00    +0.290 C 
ATOM     27  O   LIG    1        1.737  -8.995  -0.063  0.00  0.00    -0.520 OA
ENDBRANCH  17  18
ENDBRANCH  16  17
ENDBRANCH   5  16
TORSDOF 5
