REMARK  Name = ZINCqH0000007eGa.0
REMARK                            x       y       z     vdW  Elec       q    Type
REMARK                         _______ _______ _______ _____ _____    ______ ____
ROOT
ATOM      1  C   LIG    1       -2.522   3.881   0.046  0.00  0.00    +0.350 A 
ATOM      2  N   LIG    1       -3.723   3.337   0.056  0.00  0.00    -0.480 NA
ATOM      3  C   LIG    1       -4.651   4.295   0.070  0.00  0.00    +0.190 A 
ATOM      4  N   LIG    1       -4.057   5.467   0.069  0.00  0.00    -0.320 NA
ATOM      5  N   LIG    1       -2.674   5.224   0.060  0.00  0.00    -0.470 N 
ATOM      6  H   LIG    1       -1.968   5.889   0.061  0.00  0.00    +0.440 HD
ENDROOT
BRANCH   1  13
ATOM      7  C   LIG    1       -1.222   1.751   0.017  0.00  0.00    +0.190 A 
ATOM      8  C   LIG    1       -0.013   1.076   0.008  0.00  0.00    -0.050 A 
ATOM      9  C   LIG    1        1.175   1.782   0.000  0.00  0.00    +0.100 A 
ATOM     10  C   LIG    1        1.166   3.167   0.007  0.00  0.00    -0.080 A 
ATOM     11  C   LIG    1       -0.032   3.854   0.023  0.00  0.00    +0.090 A 
ATOM     12 CL   LIG    1        2.665   4.042  -0.002  0.00  0.00    -0.060 Cl
ATOM     13  C   LIG    1       -1.236   3.151   0.031  0.00  0.00    -0.070 A 
BRANCH   7  15
ATOM     14  C   LIG    1       -2.298  -0.368   0.010  0.00  0.00    +0.250 C 
ATOM     15  O   LIG    1       -2.390   1.058   0.019  0.00  0.00    -0.270 OA
ENDBRANCH   7  15
ENDBRANCH   1  13
BRANCH   3  16
ATOM     16  S   LIG    1       -6.394   4.032   0.086  0.00  0.00    +0.110 S 
BRANCH  16  17
ATOM     17  C   LIG    1       -7.061   5.719   0.100  0.00  0.00    +0.080 C 
BRANCH  17  18
ATOM     18  C   LIG    1       -8.567   5.663   0.115  0.00  0.00    +0.540 C 
ATOM     19  N   LIG    1       -9.283   6.805   0.128  0.00  0.00    -0.600 N 
ATOM     20  C   LIG    1       -8.610   8.111   0.133  0.00  0.00    +0.280 C 
ATOM     21  C   LIG    1       -9.162   8.949  -1.031  0.00  0.00    -0.030 C 
ATOM     22  C   LIG    1      -10.686   9.027  -0.919  0.00  0.00    +0.030 C 
ATOM     23  C   LIG    1      -11.279   7.620  -1.016  0.00  0.00    -0.020 C 
ATOM     24  C   LIG    1      -10.870   6.984  -2.346  0.00  0.00    +0.030 C 
ATOM     25  C   LIG    1       -8.572  10.359  -0.967  0.00  0.00    +0.030 C 
ATOM     26  C   LIG    1      -10.752   6.766   0.142  0.00  0.00    +0.290 C 
ATOM     27  O   LIG    1       -9.134   4.591   0.116  0.00  0.00    -0.520 OA
ENDBRANCH  17  18
ENDBRANCH  16  17
ENDBRANCH   3  16
TORSDOF 5
