REMARK  Name = ZINCb70000004SOh.0
REMARK                            x       y       z     vdW  Elec       q    Type
REMARK                         _______ _______ _______ _____ _____    ______ ____
ROOT
ATOM      1  C   LIG    1       -1.571   2.847   0.764  0.00  0.00    +0.210 C 
ATOM      2  C   LIG    1       -1.243   3.034  -0.731  0.00  0.00    +0.070 C 
ATOM      3  C   LIG    1       -0.812   1.624  -1.205  0.00  0.00    +0.080 C 
ATOM      4  C   LIG    1       -0.013   1.086   0.008  0.00  0.00    +0.080 C 
ATOM      5  C   LIG    1       -0.786   1.609   1.236  0.00  0.00    -0.430 C 
ENDROOT
BRANCH   1   7
ATOM      6  C   LIG    1       -1.961   5.186   1.127  0.00  0.00    +0.340 C 
ATOM      7  N   LIG    1       -1.146   4.030   1.524  0.00  0.00    -0.550 N 
ATOM      8  H   LIG    1       -0.174   4.222   1.333  0.00  0.00    +0.440 HD
ATOM      9  H   LIG    1       -1.266   3.857   2.511  0.00  0.00    +0.430 HD
ENDBRANCH   1   7
BRANCH   5  10
ATOM     10  S   LIG    1        0.376   2.068   2.552  0.00  0.00    +2.370 S 
ATOM     11  O   LIG    1       -0.364   2.343   3.733  0.00  0.00    -0.920 OA
ATOM     12  O   LIG    1        1.266   3.054   2.046  0.00  0.00    -0.930 OA
ATOM     13  C   LIG    1        1.299   0.526   2.793  0.00  0.00    -0.190 C 
ENDBRANCH   5  10
TORSDOF 2
