REMARK  Name = ZINCkj000005kbgO.0
REMARK                            x       y       z     vdW  Elec       q    Type
REMARK                         _______ _______ _______ _____ _____    ______ ____
ROOT
ATOM      1  C   LIG    1       -6.123   2.119   2.569  0.00  0.00    +0.130 C 
ATOM      2  C   LIG    1       -5.923   2.474   1.118  0.00  0.00    +0.190 A 
ATOM      3  C   LIG    1       -4.653   2.450   0.581  0.00  0.00    -0.100 A 
ATOM      4  C   LIG    1       -4.475   2.781  -0.767  0.00  0.00    -0.050 A 
ATOM      5  C   LIG    1       -5.600   3.130  -1.515  0.00  0.00    -0.030 A 
ATOM      6  C   LIG    1       -6.847   3.123  -0.898  0.00  0.00    +0.420 A 
ATOM      7  N   LIG    1       -6.966   2.803   0.381  0.00  0.00    -0.530 NA
ENDROOT
BRANCH   4   8
ATOM      8  C   LIG    1       -3.127   2.767  -1.383  0.00  0.00    +0.580 C 
ATOM      9  N   LIG    1       -2.030   2.758  -0.601  0.00  0.00    -0.620 N 
ATOM     10  C   LIG    1       -2.020   2.884   0.868  0.00  0.00    +0.300 C 
ATOM     11  C   LIG    1       -0.608   3.433   1.212  0.00  0.00    +0.160 C 
ATOM     12  C   LIG    1        0.271   2.692   0.170  0.00  0.00    +0.000 C 
ATOM     13  C   LIG    1        1.538   3.492  -0.136  0.00  0.00    +0.080 C 
ATOM     14  C   LIG    1       -0.644   2.621  -1.071  0.00  0.00    +0.290 C 
ATOM     15  O   LIG    1       -3.012   2.764  -2.592  0.00  0.00    -0.500 OA
BRANCH  11  16
ATOM     16  N   LIG    1       -0.217   3.072   2.582  0.00  0.00    -0.630 N 
ATOM     17  H   LIG    1       -0.329   2.078   2.713  0.00  0.00    +0.440 HD
ATOM     18  H   LIG    1       -0.802   3.566   3.239  0.00  0.00    +0.440 HD
ATOM     19  H   LIG    1        0.748   3.325   2.734  0.00  0.00    +0.440 HD
ENDBRANCH  11  16
ENDBRANCH   4   8
BRANCH   6  20
ATOM     20  N   LIG    1       -7.979   3.463  -1.630  0.00  0.00    -0.690 N 
ATOM     21  H   LIG    1       -8.838   3.542  -1.187  0.00  0.00    +0.410 HD
BRANCH  20  22
ATOM     22  C   LIG    1       -7.873   3.703  -3.072  0.00  0.00    +0.200 C 
ATOM     23  C   LIG    1       -8.637   4.897  -3.647  0.00  0.00    +0.020 C 
ATOM     24  C   LIG    1       -9.126   3.473  -3.919  0.00  0.00    +0.030 C 
ENDBRANCH  20  22
ENDBRANCH   6  20
TORSDOF 4
