REMARK  Name = ZINCtV000002IL8N.0
REMARK                            x       y       z     vdW  Elec       q    Type
REMARK                         _______ _______ _______ _____ _____    ______ ____
ROOT
ATOM      1  C   LIG    1       -2.575   0.956  -0.355  0.00  0.00    +0.550 C 
ATOM      2  N   LIG    1       -3.699   1.667  -0.132  0.00  0.00    -0.520 N 
ATOM      3  O   LIG    1       -2.636  -0.250  -0.493  0.00  0.00    -0.450 OA
ENDROOT
BRANCH   1   9
ATOM      4  C   LIG    1        0.241   4.692  -2.090  0.00  0.00    +0.100 C 
ATOM      5  C   LIG    1        0.090   3.440  -1.264  0.00  0.00    -0.090 A 
ATOM      6  C   LIG    1        1.176   2.936  -0.570  0.00  0.00    +0.030 A 
ATOM      7  C   LIG    1        1.046   1.788   0.192  0.00  0.00    +0.020 A 
ATOM      8  C   LIG    1       -0.169   1.138   0.263  0.00  0.00    +0.060 A 
ATOM      9  C   LIG    1       -1.270   1.644  -0.431  0.00  0.00    -0.120 A 
ATOM     10  C   LIG    1       -1.130   2.800  -1.202  0.00  0.00    +0.020 A 
ENDBRANCH   1   9
BRANCH   2  11
ATOM     11  C   LIG    1       -4.908   1.011   0.059  0.00  0.00    +0.300 A 
ATOM     12  N   LIG    1       -5.074  -0.275   0.044  0.00  0.00    -0.450 NA
ATOM     13  C   LIG    1       -6.304  -0.726   0.245  0.00  0.00    +0.120 A 
ATOM     14  C   LIG    1       -7.240   0.221   0.443  0.00  0.00    -0.080 A 
ATOM     15  S   LIG    1       -6.454   1.796   0.366  0.00  0.00    +0.150 S 
BRANCH  13  16
ATOM     16  C   LIG    1       -6.627  -2.173   0.254  0.00  0.00    -0.000 A 
ATOM     17  C   LIG    1       -7.726  -2.648  -0.459  0.00  0.00    +0.060 A 
ATOM     18  C   LIG    1       -8.019  -3.997  -0.453  0.00  0.00    +0.030 A 
ATOM     19  C   LIG    1       -7.231  -4.876   0.269  0.00  0.00    -0.020 A 
ATOM     20  C   LIG    1       -6.141  -4.410   0.984  0.00  0.00    +0.040 A 
ATOM     21 CL   LIG    1       -7.610  -6.570   0.278  0.00  0.00    -0.060 Cl
ATOM     22  C   LIG    1       -5.835  -3.063   0.979  0.00  0.00    +0.000 A 
ATOM     23 CL   LIG    1       -4.468  -2.479   1.875  0.00  0.00    -0.030 Cl
ENDBRANCH  13  16
ENDBRANCH   2  11
BRANCH   2  24
ATOM     24  C   LIG    1       -3.645   3.130  -0.092  0.00  0.00    +0.320 C 
BRANCH  24  25
ATOM     25  C   LIG    1       -4.059   3.693  -1.453  0.00  0.00    +0.130 C 
ATOM     26  C   LIG    1       -3.843   5.223  -1.490  0.00  0.00    +0.010 C 
ATOM     27  C   LIG    1       -5.039   5.751  -2.312  0.00  0.00    +0.010 C 
ATOM     28  C   LIG    1       -5.837   4.479  -2.674  0.00  0.00    +0.200 C 
ATOM     29  O   LIG    1       -5.478   3.517  -1.659  0.00  0.00    -0.360 OA
ENDBRANCH  24  25
ENDBRANCH   2  24
TORSDOF 5
