REMARK  Name = ZINCvU0000000EHc.0
REMARK                            x       y       z     vdW  Elec       q    Type
REMARK                         _______ _______ _______ _____ _____    ______ ____
ROOT
ATOM      1  C   LIG    1        3.306   5.683  -2.384  0.00  0.00    -0.080 A 
ATOM      2  C   LIG    1        2.970   7.022  -2.636  0.00  0.00    +0.050 A 
ATOM      3  C   LIG    1        3.633   7.678  -3.701  0.00  0.00    -0.100 A 
ATOM      4  C   LIG    1        3.358   9.016  -4.014  0.00  0.00    +0.040 A 
ATOM      5  C   LIG    1        4.011   9.615  -5.050  0.00  0.00    +0.010 A 
ATOM      6  C   LIG    1        4.949   8.913  -5.802  0.00  0.00    +0.040 A 
ATOM      7  C   LIG    1        5.240   7.612  -5.524  0.00  0.00    +0.040 A 
ATOM      8  C   LIG    1        4.587   6.961  -4.464  0.00  0.00    +0.150 A 
ATOM      9  N   LIG    1        4.859   5.682  -4.174  0.00  0.00    -0.470 NA
ATOM     10  C   LIG    1        4.266   5.051  -3.193  0.00  0.00    +0.190 A 
ATOM     11  C   LIG    1        4.622   3.612  -2.925  0.00  0.00    +0.140 C 
ENDROOT
BRANCH   1  16
ATOM     12  C   LIG    1        3.735   4.510   2.745  0.00  0.00    +0.120 C 
ATOM     13  C   LIG    1        2.524   3.904   2.085  0.00  0.00    +0.550 C 
ATOM     14  N   LIG    1        2.290   4.122   0.775  0.00  0.00    -0.470 N 
ATOM     15  N   LIG    1        3.088   4.885  -0.074  0.00  0.00    -0.220 NA
ATOM     16  C   LIG    1        2.657   4.946  -1.288  0.00  0.00    +0.150 C 
ATOM     17  C   LIG    1        1.380   4.145  -1.411  0.00  0.00    +0.090 C 
ATOM     18  C   LIG    1        1.151   3.592   0.010  0.00  0.00    +0.250 C 
ATOM     19  O   LIG    1        1.758   3.221   2.732  0.00  0.00    -0.510 OA
BRANCH  18  20
ATOM     20  C   LIG    1        1.171   2.086   0.002  0.00  0.00    -0.090 A 
ATOM     21  C   LIG    1       -0.017   1.378   0.010  0.00  0.00    +0.020 A 
ATOM     22  C   LIG    1        0.002  -0.004   0.002  0.00  0.00    +0.010 A 
ATOM     23  C   LIG    1        1.208  -0.679  -0.014  0.00  0.00    +0.010 A 
ATOM     24  C   LIG    1        2.396   0.029  -0.021  0.00  0.00    +0.000 A 
ATOM     25  C   LIG    1        2.377   1.411  -0.014  0.00  0.00    +0.010 A 
ENDBRANCH  18  20
ENDBRANCH   1  16
BRANCH   2  26
ATOM     26  C   LIG    1        1.961   7.725  -1.814  0.00  0.00    -0.060 A 
ATOM     27  C   LIG    1        0.628   7.312  -1.837  0.00  0.00    +0.020 A 
ATOM     28  C   LIG    1       -0.307   7.970  -1.065  0.00  0.00    +0.010 A 
ATOM     29  C   LIG    1        0.072   9.042  -0.276  0.00  0.00    +0.020 A 
ATOM     30  C   LIG    1        1.391   9.459  -0.253  0.00  0.00    +0.010 A 
ATOM     31  C   LIG    1        2.337   8.807  -1.017  0.00  0.00    +0.040 A 
ENDBRANCH   2  26
TORSDOF 3
