REMARK  Name = ZINCqH0000000vJh.0
REMARK                            x       y       z     vdW  Elec       q    Type
REMARK                         _______ _______ _______ _____ _____    ______ ____
ROOT
ATOM      1  C   LIG    1       -2.838  -4.441   3.660  0.00  0.00    +0.590 C 
ATOM      2  N   LIG    1       -1.878  -3.532   3.399  0.00  0.00    -0.600 N 
ATOM      3  O   LIG    1       -3.192  -5.219   2.794  0.00  0.00    -0.510 OA
ENDROOT
BRANCH   1   8
ATOM      4  C   LIG    1       -4.517  -5.189   6.830  0.00  0.00    -0.260 A 
ATOM      5  C   LIG    1       -4.162  -3.860   6.997  0.00  0.00    +0.280 A 
ATOM      6  N   LIG    1       -3.528  -3.449   5.889  0.00  0.00    -0.540 N 
ATOM      7  H   LIG    1       -3.173  -2.558   5.742  0.00  0.00    +0.420 HD
ATOM      8  C   LIG    1       -3.458  -4.493   4.991  0.00  0.00    -0.070 A 
ATOM      9  C   LIG    1       -4.067  -5.578   5.545  0.00  0.00    +0.120 A 
BRANCH   4  11
ATOM     10  C   LIG    1       -5.647  -5.460   9.127  0.00  0.00    +0.060 C 
ATOM     11  C   LIG    1       -5.228  -6.031   7.797  0.00  0.00    +0.420 C 
ATOM     12  O   LIG    1       -5.480  -7.186   7.526  0.00  0.00    -0.470 OA
ENDBRANCH   4  11
ENDBRANCH   1   8
BRANCH   2  13
ATOM     13  C   LIG    1       -1.498  -2.554   4.421  0.00  0.00    +0.350 C 
BRANCH  13  14
ATOM     14  C   LIG    1       -2.162  -1.234   4.125  0.00  0.00    +0.100 A 
ATOM     15  C   LIG    1       -3.537  -1.174   4.003  0.00  0.00    -0.040 A 
ATOM     16  C   LIG    1       -4.139   0.047   3.735  0.00  0.00    +0.080 A 
ATOM     17  C   LIG    1       -3.330   1.163   3.588  0.00  0.00    -0.020 A 
ATOM     18  C   LIG    1       -1.961   1.025   3.718  0.00  0.00    +0.270 A 
ATOM     19  N   LIG    1       -1.423  -0.151   3.979  0.00  0.00    -0.460 NA
ENDBRANCH  13  14
ENDBRANCH   2  13
BRANCH   2  20
ATOM     20  C   LIG    1       -1.214  -3.523   2.093  0.00  0.00    +0.350 C 
BRANCH  20  21
ATOM     21  C   LIG    1       -1.971  -2.622   1.152  0.00  0.00    -0.110 A 
ATOM     22  C   LIG    1       -2.990  -3.136   0.372  0.00  0.00    +0.030 A 
ATOM     23  C   LIG    1       -3.684  -2.309  -0.491  0.00  0.00    +0.000 A 
ATOM     24  C   LIG    1       -3.362  -0.967  -0.572  0.00  0.00    +0.010 A 
ATOM     25  C   LIG    1       -2.339  -0.454   0.204  0.00  0.00    -0.090 A 
ATOM     26  C   LIG    1       -1.985   1.008   0.113  0.00  0.00    +0.080 C 
ATOM     27  C   LIG    1       -1.646  -1.280   1.068  0.00  0.00    +0.020 A 
ENDBRANCH  20  21
ENDBRANCH   2  20
TORSDOF 6
