REMARK  Name = ZINC9p0000002ovD.0
REMARK                            x       y       z     vdW  Elec       q    Type
REMARK                         _______ _______ _______ _____ _____    ______ ____
ROOT
ATOM      1  C   LIG    1       -0.013   1.086   0.008  0.00  0.00    +0.170 C 
ENDROOT
BRANCH   1   2
ATOM      2  C   LIG    1       -0.729   1.579   1.267  0.00  0.00    -0.020 C 
ATOM      3  C   LIG    1       -0.035   1.017   2.525  0.00  0.00    +0.040 C 
ATOM      4  C   LIG    1       -1.200   0.724   3.502  0.00  0.00    +0.020 C 
ATOM      5  C   LIG    1       -2.309   0.190   2.562  0.00  0.00    +0.020 C 
ATOM      6  C   LIG    1       -2.175   1.054   1.291  0.00  0.00    -0.000 C 
ENDBRANCH   1   2
BRANCH   1   7
ATOM      7  N   LIG    1       -0.723   1.572  -1.182  0.00  0.00    -0.640 N 
ATOM      8  H   LIG    1       -0.737   2.581  -1.177  0.00  0.00    +0.430 HD
ATOM      9  H   LIG    1       -1.670   1.223  -1.175  0.00  0.00    +0.430 HD
ATOM     10  H   LIG    1       -0.251   1.247  -2.012  0.00  0.00    +0.430 HD
ENDBRANCH   1   7
BRANCH   1  12
ATOM     11  C   LIG    1        2.176   1.022  -1.195  0.00  0.00    +0.020 C 
ATOM     12  C   LIG    1        1.423   1.615  -0.003  0.00  0.00    +0.050 C 
ENDBRANCH   1  12
TORSDOF 3
