REMARK  Name = ZINCqH0000001bnv.0
REMARK                            x       y       z     vdW  Elec       q    Type
REMARK                         _______ _______ _______ _____ _____    ______ ____
ROOT
ATOM      1  C   LIG    1       -1.326   6.398   0.055  0.00  0.00    +0.530 C 
ATOM      2  N   LIG    1       -1.583   5.075   0.047  0.00  0.00    -0.560 N 
ATOM      3  C   LIG    1       -0.564   4.019   0.029  0.00  0.00    +0.310 C 
ATOM      4  C   LIG    1       -1.356   2.711   0.028  0.00  0.00    -0.050 C 
ATOM      5  C   LIG    1       -2.804   3.118   0.044  0.00  0.00    -0.120 A 
ATOM      6  C   LIG    1       -3.966   2.371   0.049  0.00  0.00    +0.050 A 
ATOM      7  C   LIG    1       -5.197   3.000   0.067  0.00  0.00    -0.010 A 
ATOM      8  C   LIG    1       -5.265   4.380   0.079  0.00  0.00    +0.050 A 
ATOM      9  C   LIG    1       -4.108   5.131   0.072  0.00  0.00    -0.040 A 
ATOM     10  C   LIG    1       -0.959   1.695  -1.043  0.00  0.00    +0.040 C 
ATOM     11  C   LIG    1       -0.013   1.086   0.008  0.00  0.00    +0.010 C 
ATOM     12  C   LIG    1       -0.938   1.683   1.083  0.00  0.00    +0.040 C 
ATOM     13  C   LIG    1       -2.861   4.505   0.055  0.00  0.00    +0.150 A 
ATOM     14  O   LIG    1       -0.179   6.793   0.047  0.00  0.00    -0.490 OA
ENDROOT
BRANCH   1  15
ATOM     15  C   LIG    1       -2.463   7.387   0.074  0.00  0.00    +0.170 C 
BRANCH  15  18
ATOM     16  C   LIG    1       -0.644  10.439   0.882  0.00  0.00    +0.240 A 
ATOM     17  N   LIG    1       -1.047   9.211   0.984  0.00  0.00    -0.490 NA
ATOM     18  C   LIG    1       -1.910   8.788   0.079  0.00  0.00    +0.100 A 
ATOM     19  C   LIG    1       -2.250   9.701  -0.833  0.00  0.00    -0.130 A 
ATOM     20  S   LIG    1       -1.386  11.191  -0.463  0.00  0.00    +0.250 S 
BRANCH  16  22
ATOM     21  C   LIG    1        0.609  12.341   1.541  0.00  0.00    +0.520 C 
ATOM     22  N   LIG    1        0.259  11.055   1.740  0.00  0.00    -0.620 N 
ATOM     23  H   LIG    1        0.637  10.559   2.483  0.00  0.00    +0.420 HD
ATOM     24  O   LIG    1        0.137  12.961   0.612  0.00  0.00    -0.500 OA
BRANCH  21  26
ATOM     25  C   LIG    1        1.812  14.454   2.026  0.00  0.00    +0.070 C 
ATOM     26  C   LIG    1        1.589  13.008   2.472  0.00  0.00    +0.010 C 
ATOM     27  C   LIG    1        1.029  12.994   3.896  0.00  0.00    +0.060 C 
ENDBRANCH  21  26
ENDBRANCH  16  22
ENDBRANCH  15  18
ENDBRANCH   1  15
TORSDOF 4
