REMARK  Name = ZINCpk00000xHYOt.0
REMARK                            x       y       z     vdW  Elec       q    Type
REMARK                         _______ _______ _______ _____ _____    ______ ____
ROOT
ATOM      1  N   LIG    1       -0.970   3.001   1.247  0.00  0.00    -0.510 NA
ATOM      2  C   LIG    1       -0.705   1.567   1.280  0.00  0.00    +0.160 C 
ATOM      3  C   LIG    1       -0.013   1.086   0.008  0.00  0.00    +0.230 C 
ATOM      4  O   LIG    1       -0.689   1.553  -1.175  0.00  0.00    -0.360 OA
ATOM      5  C   LIG    1       -0.807   2.960  -1.157  0.00  0.00    +0.150 C 
ATOM      6  C   LIG    1       -1.518   3.644  -2.316  0.00  0.00    +0.240 C 
ATOM      7  N   LIG    1       -2.230   4.808  -1.728  0.00  0.00    -0.460 N 
ATOM      8  C   LIG    1       -2.021   4.787  -0.252  0.00  0.00    +0.250 C 
ATOM      9  C   LIG    1       -1.730   3.314   0.046  0.00  0.00    +0.100 C 
ENDROOT
BRANCH   7  10
ATOM     10  C   LIG    1       -1.775   5.997  -2.276  0.00  0.00    +0.390 A 
ATOM     11  C   LIG    1       -1.871   6.232  -3.649  0.00  0.00    -0.080 A 
ATOM     12  N   LIG    1       -2.349   5.527  -4.733  0.00  0.00    -0.570 N 
ATOM     13  H   LIG    1       -2.745   4.641  -4.714  0.00  0.00    +0.430 HD
ATOM     14  C   LIG    1       -2.163   6.300  -5.826  0.00  0.00    +0.540 A 
ATOM     15  N   LIG    1       -1.604   7.428  -5.487  0.00  0.00    -0.490 NA
ATOM     16  C   LIG    1       -1.397   7.453  -4.157  0.00  0.00    +0.310 A 
ATOM     17  N   LIG    1       -0.872   8.341  -3.307  0.00  0.00    -0.500 NA
ATOM     18  C   LIG    1       -0.803   8.075  -2.021  0.00  0.00    +0.540 A 
ATOM     19  N   LIG    1       -1.242   6.941  -1.505  0.00  0.00    -0.550 NA
ENDBRANCH   7  10
BRANCH   1  20
ATOM     20  C   LIG    1       -1.688   3.434   2.453  0.00  0.00    +0.230 C 
BRANCH  20  24
ATOM     21  C   LIG    1        0.266   1.870   5.914  0.00  0.00    +0.000 A 
ATOM     22  C   LIG    1        0.634   3.103   5.410  0.00  0.00    +0.000 A 
ATOM     23  C   LIG    1        0.002   3.609   4.290  0.00  0.00    +0.020 A 
ATOM     24  C   LIG    1       -0.999   2.882   3.674  0.00  0.00    -0.090 A 
ATOM     25  C   LIG    1       -1.371   1.651   4.181  0.00  0.00    +0.000 A 
ATOM     26  C   LIG    1       -0.736   1.143   5.298  0.00  0.00    +0.000 A 
ENDBRANCH  20  24
ENDBRANCH   1  20
TORSDOF 3
