REMARK  Name = ZINCrH00000No4HT.0
REMARK                            x       y       z     vdW  Elec       q    Type
REMARK                         _______ _______ _______ _____ _____    ______ ____
ROOT
ATOM      1  N   LIG    1       -2.397   1.063   0.042  0.00  0.00    -0.670 N 
ATOM      2  H   LIG    1       -2.316   0.228  -0.444  0.00  0.00    +0.410 HD
ATOM      3  C   LIG    1       -1.314   1.611   0.627  0.00  0.00    +0.550 C 
ATOM      4  O   LIG    1       -1.399   2.698   1.169  0.00  0.00    -0.520 OA
ENDROOT
BRANCH   1  11
ATOM      5  N   LIG    1       -6.402  -0.731   0.784  0.00  0.00    -0.490 NA
ATOM      6  C   LIG    1       -7.102   0.517   0.405  0.00  0.00    +0.230 C 
ATOM      7  C   LIG    1       -6.028   1.578   0.320  0.00  0.00    -0.080 A 
ATOM      8  C   LIG    1       -6.096   2.958   0.322  0.00  0.00    +0.020 A 
ATOM      9  C   LIG    1       -4.939   3.712   0.231  0.00  0.00    +0.030 A 
ATOM     10  C   LIG    1       -3.711   3.087   0.143  0.00  0.00    +0.020 A 
ATOM     11  C   LIG    1       -3.639   1.699   0.136  0.00  0.00    +0.170 A 
ATOM     12  C   LIG    1       -4.801   0.946   0.227  0.00  0.00    -0.130 A 
ATOM     13  C   LIG    1       -5.034  -0.548   0.248  0.00  0.00    +0.230 C 
BRANCH   5  15
ATOM     14  C   LIG    1       -8.531  -1.923   0.569  0.00  0.00    +0.050 C 
ATOM     15  C   LIG    1       -7.051  -1.903   0.180  0.00  0.00    +0.130 C 
BRANCH  15  16
ATOM     16  C   LIG    1       -6.374  -3.178   0.686  0.00  0.00    +0.180 C 
BRANCH  16  17
ATOM     17  O   LIG    1       -6.592  -3.308   2.092  0.00  0.00    -0.560 OA
ATOM     18  H   LIG    1       -6.189  -4.096   2.481  0.00  0.00    +0.380 HD
ENDBRANCH  16  17
ENDBRANCH  15  16
ENDBRANCH   5  15
ENDBRANCH   1  11
BRANCH   3  19
ATOM     19  C   LIG    1       -0.075   0.922   0.612  0.00  0.00    -0.070 C 
ATOM     20  C   LIG    1        1.015   1.475   1.194  0.00  0.00    +0.190 C 
BRANCH  20  21
ATOM     21  C   LIG    1        2.294   0.767   1.173  0.00  0.00    +0.030 A 
ATOM     22  C   LIG    1        3.453   1.224   1.725  0.00  0.00    +0.020 A 
ATOM     23  C   LIG    1        4.458   0.196   1.463  0.00  0.00    -0.140 A 
ATOM     24  C   LIG    1        5.816   0.063   1.762  0.00  0.00    +0.070 A 
ATOM     25  C   LIG    1        6.491  -1.056   1.364  0.00  0.00    -0.010 A 
ATOM     26  C   LIG    1        5.837  -2.061   0.664  0.00  0.00    +0.060 A 
ATOM     27  C   LIG    1        4.497  -1.949   0.359  0.00  0.00    +0.020 A 
ATOM     28  C   LIG    1        3.789  -0.821   0.754  0.00  0.00    +0.060 A 
ATOM     29  O   LIG    1        2.504  -0.441   0.610  0.00  0.00    -0.190 OA
ENDBRANCH  20  21
ENDBRANCH   3  19
TORSDOF 6
