REMARK  Name = ZINCkj000005jTht.0
REMARK                            x       y       z     vdW  Elec       q    Type
REMARK                         _______ _______ _______ _____ _____    ______ ____
ROOT
ATOM      1  C   LIG    1       -1.594  -2.365   5.245  0.00  0.00    +0.090 C 
ATOM      2  C   LIG    1       -0.163  -2.880   5.071  0.00  0.00    +0.170 C 
ATOM      3  C   LIG    1        0.339  -2.528   3.666  0.00  0.00    +0.330 C 
ATOM      4  N   LIG    1        0.432  -1.064   3.557  0.00  0.00    -0.640 N 
ATOM      5  C   LIG    1        1.157  -0.336   4.610  0.00  0.00    +0.320 C 
ATOM      6  C   LIG    1        0.612  -0.790   5.973  0.00  0.00    +0.150 C 
ATOM      7  C   LIG    1        1.437  -0.148   7.090  0.00  0.00    +0.110 C 
ATOM      8  C   LIG    1       -0.125  -0.409   2.520  0.00  0.00    +0.520 C 
ATOM      9  O   LIG    1       -0.715  -1.027   1.659  0.00  0.00    -0.480 OA
ATOM     10  N   LIG    1        0.708  -2.252   6.072  0.00  0.00    -0.500 N 
ATOM     11  H   LIG    1        1.663  -2.537   5.911  0.00  0.00    +0.430 HD
ATOM     12  H   LIG    1        0.423  -2.545   6.995  0.00  0.00    +0.430 HD
ENDROOT
BRANCH   8  13
ATOM     13  C   LIG    1       -0.016   1.091   2.429  0.00  0.00    +0.210 C 
BRANCH  13  14
ATOM     14  N   LIG    1       -0.700   1.560   1.217  0.00  0.00    -0.520 NA
ATOM     15  C   LIG    1       -0.013   1.086   0.008  0.00  0.00    +0.190 C 
BRANCH  14  16
ATOM     16  C   LIG    1       -0.822   3.023   1.213  0.00  0.00    +0.230 C 
BRANCH  16  17
ATOM     17  C   LIG    1       -1.735   3.449   0.092  0.00  0.00    -0.090 A 
ATOM     18  C   LIG    1       -1.211   3.726  -1.157  0.00  0.00    +0.010 A 
ATOM     19  C   LIG    1       -2.049   4.112  -2.187  0.00  0.00    +0.000 A 
ATOM     20  C   LIG    1       -3.408   4.230  -1.966  0.00  0.00    +0.010 A 
ATOM     21  C   LIG    1       -3.931   3.958  -0.715  0.00  0.00    +0.000 A 
ATOM     22  C   LIG    1       -3.094   3.567   0.314  0.00  0.00    +0.020 A 
ENDBRANCH  16  17
ENDBRANCH  14  16
ENDBRANCH  13  14
ENDBRANCH   8  13
TORSDOF 4
