REMARK  Name = ZINCqH0000003jx7.0
REMARK                            x       y       z     vdW  Elec       q    Type
REMARK                         _______ _______ _______ _____ _____    ______ ____
ROOT
ATOM      1  O   LIG    1        2.198   1.749  -0.061  0.00  0.00    -0.290 OA
ENDROOT
BRANCH   1   6
ATOM      2  C   LIG    1        5.789   1.863  -0.660  0.00  0.00    +0.200 A 
ATOM      3  C   LIG    1        6.043   3.210  -0.435  0.00  0.00    -0.050 A 
ATOM      4  C   LIG    1        5.010   4.059  -0.086  0.00  0.00    +0.070 A 
ATOM      5  C   LIG    1        3.723   3.573   0.034  0.00  0.00    -0.090 A 
ATOM      6  C   LIG    1        3.464   2.227  -0.184  0.00  0.00    +0.150 A 
ATOM      7  C   LIG    1        4.497   1.372  -0.534  0.00  0.00    +0.000 A 
BRANCH   2   9
ATOM      8  C   LIG    1        6.603  -0.036  -1.840  0.00  0.00    +0.650 C 
ATOM      9  N   LIG    1        6.835   1.002  -1.012  0.00  0.00    -0.650 N 
ATOM     10  H   LIG    1        7.726   1.153  -0.661  0.00  0.00    +0.420 HD
ATOM     11  O   LIG    1        5.511  -0.170  -2.356  0.00  0.00    -0.550 OA
BRANCH   8  12
ATOM     12  O   LIG    1        7.581  -0.925  -2.094  0.00  0.00    -0.370 OA
BRANCH  12  14
ATOM     13  C   LIG    1        8.487  -2.918  -3.161  0.00  0.00    +0.080 C 
ATOM     14  C   LIG    1        7.261  -2.018  -2.994  0.00  0.00    +0.220 C 
ENDBRANCH  12  14
ENDBRANCH   8  12
ENDBRANCH   2   9
ENDBRANCH   1   6
BRANCH   1  15
ATOM     15  C   LIG    1        1.183   2.687   0.303  0.00  0.00    +0.240 C 
BRANCH  15  16
ATOM     16  C   LIG    1       -0.145   1.981   0.391  0.00  0.00    +0.510 C 
ATOM     17  N   LIG    1       -1.256   2.672   0.716  0.00  0.00    -0.670 N 
ATOM     18  H   LIG    1       -1.190   3.608   0.961  0.00  0.00    +0.410 HD
ATOM     19  O   LIG    1       -0.216   0.791   0.166  0.00  0.00    -0.490 OA
BRANCH  17  20
ATOM     20  C   LIG    1       -2.504   2.039   0.699  0.00  0.00    +0.140 A 
ATOM     21  C   LIG    1       -2.616   0.711   1.087  0.00  0.00    +0.020 A 
ATOM     22  C   LIG    1       -3.850   0.092   1.069  0.00  0.00    +0.040 A 
ATOM     23  C   LIG    1       -4.976   0.790   0.665  0.00  0.00    -0.110 A 
ATOM     24  C   LIG    1       -6.419   0.344   0.559  0.00  0.00    +0.080 C 
ATOM     25  C   LIG    1       -7.101   1.393  -0.344  0.00  0.00    +0.030 C 
ATOM     26  C   LIG    1       -6.229   2.646  -0.115  0.00  0.00    +0.080 C 
ATOM     27  C   LIG    1       -4.867   2.113   0.278  0.00  0.00    -0.080 A 
ATOM     28  C   LIG    1       -3.634   2.739   0.299  0.00  0.00    -0.010 A 
ENDBRANCH  17  20
ENDBRANCH  15  16
ENDBRANCH   1  15
TORSDOF 7
