REMARK  Name = ZINCpk00000K8tCj.0
REMARK                            x       y       z     vdW  Elec       q    Type
REMARK                         _______ _______ _______ _____ _____    ______ ____
ROOT
ATOM      1  C   LIG    1       -0.858  -1.066  -3.131  0.00  0.00    +0.160 A 
ATOM      2  N   LIG    1       -0.317   0.009  -3.622  0.00  0.00    -0.360 NA
ATOM      3  O   LIG    1       -1.146   0.659  -4.223  0.00  0.00    +0.110 OA
ATOM      4  C   LIG    1       -2.330   0.043  -4.170  0.00  0.00    +0.200 A 
ATOM      5  N   LIG    1       -2.156  -1.059  -3.482  0.00  0.00    -0.470 NA
ENDROOT
BRANCH   1   6
ATOM      6  C   LIG    1       -0.158  -2.128  -2.323  0.00  0.00    +0.350 C 
BRANCH   6   7
ATOM      7  O   LIG    1       -0.233  -1.798  -0.935  0.00  0.00    -0.310 OA
BRANCH   7  11
ATOM      8  C   LIG    1        1.548  -4.415   1.714  0.00  0.00    +0.090 A 
ATOM      9  C   LIG    1        0.914  -3.275   2.186  0.00  0.00    +0.030 A 
ATOM     10  C   LIG    1        0.318  -2.399   1.299  0.00  0.00    +0.030 A 
ATOM     11  C   LIG    1        0.354  -2.660  -0.062  0.00  0.00    +0.090 A 
ATOM     12  C   LIG    1        0.984  -3.802  -0.534  0.00  0.00    -0.040 A 
ATOM     13  C   LIG    1        1.584  -4.675   0.352  0.00  0.00    -0.040 A 
BRANCH   8  15
ATOM     14  C   LIG    1        2.770  -6.430   2.031  0.00  0.00    +0.250 C 
ATOM     15  O   LIG    1        2.135  -5.277   2.587  0.00  0.00    -0.320 OA
ENDBRANCH   8  15
ENDBRANCH   7  11
ENDBRANCH   6   7
ENDBRANCH   1   6
BRANCH   4  16
ATOM     16  C   LIG    1       -3.619   0.521  -4.789  0.00  0.00    +0.350 C 
BRANCH  16  17
ATOM     17  N   LIG    1       -4.343   1.361  -3.826  0.00  0.00    -0.510 NA
ATOM     18  C   LIG    1       -4.894   0.552  -2.732  0.00  0.00    +0.180 C 
ATOM     19  C   LIG    1       -5.513   1.472  -1.677  0.00  0.00    +0.020 C 
ATOM     20  C   LIG    1       -6.619   2.310  -2.323  0.00  0.00    +0.010 C 
ATOM     21  C   LIG    1       -6.029   3.106  -3.490  0.00  0.00    +0.050 C 
ATOM     22  C   LIG    1       -5.395   2.139  -4.493  0.00  0.00    +0.140 C 
BRANCH  22  23
ATOM     23  C   LIG    1       -4.795   2.920  -5.634  0.00  0.00    +0.510 C 
ATOM     24  O   LIG    1       -3.637   3.276  -5.583  0.00  0.00    -0.510 OA
ATOM     25  N   LIG    1       -5.547   3.223  -6.711  0.00  0.00    -0.850 N 
ATOM     26  H   LIG    1       -5.161   3.725  -7.446  0.00  0.00    +0.410 HD
ATOM     27  H   LIG    1       -6.473   2.938  -6.752  0.00  0.00    +0.400 HD
ENDBRANCH  22  23
ENDBRANCH  16  17
ENDBRANCH   4  16
TORSDOF 7
