REMARK  Name = ZINCpk000000op2X.0
REMARK                            x       y       z     vdW  Elec       q    Type
REMARK                         _______ _______ _______ _____ _____    ______ ____
ROOT
ATOM      1  C   LIG    1       -2.677  -2.649  -0.084  0.00  0.00    +0.520 C 
ATOM      2  N   LIG    1       -3.247  -3.612   0.665  0.00  0.00    -0.730 N 
ATOM      3  H   LIG    1       -2.968  -3.740   1.586  0.00  0.00    +0.400 HD
ATOM      4  O   LIG    1       -3.026  -2.489  -1.234  0.00  0.00    -0.530 OA
ENDROOT
BRANCH   1   9
ATOM      5  N   LIG    1        0.002  -0.004   0.002  0.00  0.00    -1.000 NA
ATOM      6  C   LIG    1        1.156  -0.740   0.537  0.00  0.00    +0.290 C 
ATOM      7  C   LIG    1        0.651  -1.745   1.584  0.00  0.00    +0.020 C 
ATOM      8  C   LIG    1       -0.423  -2.634   0.953  0.00  0.00    +0.030 C 
ATOM      9  C   LIG    1       -1.605  -1.770   0.507  0.00  0.00    -0.020 C 
ATOM     10  C   LIG    1       -1.129  -0.765  -0.547  0.00  0.00    +0.330 C 
BRANCH   5  11
ATOM     11  S   LIG    1       -0.020   1.652   0.011  0.00  0.00    +2.600 S 
ATOM     12  O   LIG    1       -0.880   1.996  -1.066  0.00  0.00    -0.950 OA
ATOM     13  O   LIG    1        1.352   2.021   0.000  0.00  0.00    -0.950 OA
BRANCH  11  14
ATOM     14  C   LIG    1       -0.783   2.085   1.599  0.00  0.00    -0.370 C 
BRANCH  14  16
ATOM     15  C   LIG    1       -1.505   3.974   3.067  0.00  0.00    +0.030 C 
ATOM     16  C   LIG    1       -0.862   3.608   1.728  0.00  0.00    +0.040 C 
ENDBRANCH  14  16
ENDBRANCH  11  14
ENDBRANCH   5  11
ENDBRANCH   1   9
BRANCH   2  17
ATOM     17  C   LIG    1       -4.289  -4.467   0.091  0.00  0.00    +0.330 C 
BRANCH  17  18
ATOM     18  C   LIG    1       -4.757  -5.455   1.128  0.00  0.00    -0.100 A 
ATOM     19  C   LIG    1       -4.138  -6.686   1.237  0.00  0.00    +0.050 A 
ATOM     20  C   LIG    1       -4.561  -7.594   2.191  0.00  0.00    +0.040 A 
ATOM     21  C   LIG    1       -5.614  -7.275   3.032  0.00  0.00    +0.040 A 
ATOM     22  O   LIG    1       -6.218  -7.980   4.033  0.00  0.00    -0.310 OA
ATOM     23  C   LIG    1       -6.950  -7.006   4.801  0.00  0.00    +0.430 C 
ATOM     24  O   LIG    1       -7.238  -5.966   3.849  0.00  0.00    -0.310 OA
ATOM     25  C   LIG    1       -6.242  -6.037   2.919  0.00  0.00    +0.030 A 
ATOM     26  C   LIG    1       -5.809  -5.130   1.965  0.00  0.00    +0.060 A 
ENDBRANCH  17  18
ENDBRANCH   2  17
TORSDOF 6
