REMARK  Name = ZINCpe000000Yqmp.1
REMARK                            x       y       z     vdW  Elec       q    Type
REMARK                         _______ _______ _______ _____ _____    ______ ____
ROOT
ATOM      1  N   LIG    1        2.565   4.135  -0.240  0.00  0.00    -0.650 NA
ATOM      2  H   LIG    1        3.434   3.792   0.141  0.00  0.00    +0.360 HD
ENDROOT
BRANCH   1   3
ATOM      3  C   LIG    1        1.422   3.385   0.296  0.00  0.00    +0.280 C 
BRANCH   3  13
ATOM      4  C   LIG    1        5.131   0.193  -2.094  0.00  0.00    +0.370 C 
ATOM      5  N   LIG    1        3.934  -0.418  -1.511  0.00  0.00    -0.350 N 
ATOM      6  N   LIG    1        3.631  -1.786  -1.504  0.00  0.00    -0.270 NA
ATOM      7  C   LIG    1        2.489  -1.976  -0.903  0.00  0.00    +0.330 A 
ATOM      8  C   LIG    1        1.993  -0.726  -0.489  0.00  0.00    -0.350 A 
ATOM      9  C   LIG    1        0.793  -0.279   0.217  0.00  0.00    +0.580 A 
ATOM     10  O   LIG    1       -0.054  -1.073   0.588  0.00  0.00    -0.520 OA
ATOM     11  N   LIG    1        0.658   1.049   0.444  0.00  0.00    -0.650 N 
ATOM     12  H   LIG    1       -0.127   1.383   0.906  0.00  0.00    +0.420 HD
ATOM     13  C   LIG    1        1.614   1.915   0.023  0.00  0.00    +0.430 A 
ATOM     14  N   LIG    1        2.687   1.536  -0.607  0.00  0.00    -0.500 NA
ATOM     15  C   LIG    1        2.927   0.245  -0.886  0.00  0.00    +0.340 A 
ENDBRANCH   3  13
ENDBRANCH   1   3
BRANCH   1  16
ATOM     16  CA  LIG    1        2.413   5.575   0.009  0.00  0.00    +0.180 C 
BRANCH  16  17
ATOM     17  C   LIG    1        3.659   6.104   0.721  0.00  0.00    +0.040 C 
ATOM     18  C   LIG    1        3.542   7.627   0.946  0.00  0.00    +0.040 C 
ATOM     19  C   LIG    1        4.254   7.817   2.303  0.00  0.00    +0.080 C 
ATOM     20  C   LIG    1        4.107   6.490   3.016  0.00  0.00    -0.090 A 
ATOM     21  C   LIG    1        4.261   6.169   4.354  0.00  0.00    +0.020 A 
ATOM     22  C   LIG    1        4.075   4.869   4.783  0.00  0.00    +0.000 A 
ATOM     23  C   LIG    1        3.734   3.885   3.875  0.00  0.00    +0.000 A 
ATOM     24  C   LIG    1        3.580   4.204   2.539  0.00  0.00    +0.000 A 
ATOM     25  C   LIG    1        3.766   5.506   2.107  0.00  0.00    -0.100 A 
ENDBRANCH  16  17
BRANCH  16  26
ATOM     26  C   LIG    1        2.237   6.307  -1.323  0.00  0.00    +0.190 C 
BRANCH  26  27
ATOM     27  O   LIG    1        3.432   6.182  -2.097  0.00  0.00    -0.560 OA
ATOM     28  H   LIG    1        3.392   6.623  -2.956  0.00  0.00    +0.380 HD
ENDBRANCH  26  27
ENDBRANCH  16  26
ENDBRANCH   1  16
TORSDOF 6
