REMARK  Name = ZINCtV000002sroK.0
REMARK                            x       y       z     vdW  Elec       q    Type
REMARK                         _______ _______ _______ _____ _____    ______ ____
ROOT
ATOM      1  C   LIG    1       -2.613   5.396  -0.387  0.00  0.00    +0.080 C 
ATOM      2  C   LIG    1       -3.269   5.841   0.922  0.00  0.00    +0.080 C 
ENDROOT
BRANCH   1   3
ATOM      3  C   LIG    1       -2.683   3.895  -0.499  0.00  0.00    -0.090 A 
ATOM      4  C   LIG    1       -3.912   3.260  -0.507  0.00  0.00    +0.070 A 
ATOM      5  C   LIG    1       -3.985   1.881  -0.610  0.00  0.00    +0.000 A 
ATOM      6  C   LIG    1       -2.832   1.132  -0.710  0.00  0.00    +0.070 A 
ATOM      7  C   LIG    1       -1.587   1.766  -0.698  0.00  0.00    -0.160 A 
ATOM      8  C   LIG    1       -1.521   3.158  -0.594  0.00  0.00    +0.090 A 
BRANCH   7   9
ATOM      9  C   LIG    1       -0.347   0.970  -0.799  0.00  0.00    +0.440 C 
ATOM     10  O   LIG    1        0.725   1.528  -0.928  0.00  0.00    -0.450 OA
BRANCH   9  11
ATOM     11  C   LIG    1       -0.411  -0.505  -0.752  0.00  0.00    -0.160 A 
ATOM     12  C   LIG    1       -1.343  -1.141   0.071  0.00  0.00    +0.040 A 
ATOM     13  C   LIG    1       -1.401  -2.519   0.106  0.00  0.00    +0.000 A 
ATOM     14  C   LIG    1       -0.531  -3.271  -0.663  0.00  0.00    +0.040 A 
ATOM     15  C   LIG    1        0.400  -2.648  -1.476  0.00  0.00    +0.000 A 
ATOM     16  C   LIG    1        0.465  -1.271  -1.526  0.00  0.00    +0.060 A 
ENDBRANCH   9  11
ENDBRANCH   7   9
ENDBRANCH   1   3
BRANCH   1  17
ATOM     17  C   LIG    1       -3.340   6.021  -1.550  0.00  0.00    +0.460 C 
ATOM     18  O   LIG    1       -3.860   5.319  -2.385  0.00  0.00    -0.500 OA
BRANCH  17  19
ATOM     19  O   LIG    1       -3.408   7.357  -1.659  0.00  0.00    -0.350 OA
BRANCH  19  26
ATOM     20  C   LIG    1       -3.521   9.239  -3.201  0.00  0.00    +0.000 C 
ATOM     21  C   LIG    1       -4.275   9.800  -4.409  0.00  0.00    +0.020 C 
ATOM     22  C   LIG    1       -5.750   9.986  -4.047  0.00  0.00    +0.010 C 
ATOM     23  C   LIG    1       -6.353   8.637  -3.651  0.00  0.00    -0.010 C 
ATOM     24  C   LIG    1       -5.598   8.076  -2.444  0.00  0.00    +0.010 C 
ATOM     25  C   LIG    1       -6.234   7.661  -4.824  0.00  0.00    +0.030 C 
ATOM     26  C   LIG    1       -4.123   7.889  -2.805  0.00  0.00    +0.180 C 
BRANCH  20  28
ATOM     27  C   LIG    1       -1.931   8.125  -4.774  0.00  0.00    +0.010 C 
ATOM     28  C   LIG    1       -2.046   9.052  -3.562  0.00  0.00    -0.020 C 
ATOM     29  C   LIG    1       -1.428  10.411  -3.900  0.00  0.00    +0.020 C 
ENDBRANCH  20  28
ENDBRANCH  19  26
ENDBRANCH  17  19
ENDBRANCH   1  17
TORSDOF 7
