REMARK  Name = ZINCpk000000of6k.0
REMARK                            x       y       z     vdW  Elec       q    Type
REMARK                         _______ _______ _______ _____ _____    ______ ____
ROOT
ATOM      1  N   LIG    1       -1.147  -2.365   2.115  0.00  0.00    -0.560 N 
ATOM      2  C   LIG    1       -1.825  -1.279   2.503  0.00  0.00    +0.710 C 
ATOM      3  N   LIG    1       -1.210  -0.136   2.149  0.00  0.00    -0.710 N 
ATOM      4  H   LIG    1       -1.519   0.767   2.326  0.00  0.00    +0.440 HD
ATOM      5  C   LIG    1        0.023  -0.522   1.442  0.00  0.00    +0.130 C 
ATOM      6  C   LIG    1        1.255   0.002   2.183  0.00  0.00    +0.100 C 
ATOM      7  O   LIG    1       -2.878  -1.320   3.108  0.00  0.00    -0.540 OA
ATOM      8  C   LIG    1       -0.009  -2.037   1.464  0.00  0.00    +0.540 C 
ATOM      9  O   LIG    1        0.813  -2.794   0.994  0.00  0.00    -0.460 OA
ENDROOT
BRANCH   1  10
ATOM     10  C   LIG    1       -1.583  -3.741   2.366  0.00  0.00    +0.360 C 
BRANCH  10  13
ATOM     11  N   LIG    1       -2.957  -5.458   1.234  0.00  0.00    -0.730 N 
ATOM     12  H   LIG    1       -2.778  -6.049   1.981  0.00  0.00    +0.400 HD
ATOM     13  C   LIG    1       -2.440  -4.213   1.220  0.00  0.00    +0.500 C 
ATOM     14  O   LIG    1       -2.664  -3.474   0.285  0.00  0.00    -0.530 OA
BRANCH  11  15
ATOM     15  C   LIG    1       -3.790  -5.917   0.119  0.00  0.00    +0.260 C 
BRANCH  15  16
ATOM     16  C   LIG    1       -4.245  -7.354   0.382  0.00  0.00    +0.010 C 
BRANCH  16  18
ATOM     17  C   LIG    1       -5.571  -9.270  -0.520  0.00  0.00    +0.010 C 
ATOM     18  C   LIG    1       -5.115  -7.833  -0.782  0.00  0.00    +0.020 C 
ENDBRANCH  16  18
ENDBRANCH  15  16
ENDBRANCH  11  15
ENDBRANCH  10  13
ENDBRANCH   1  10
BRANCH   5  19
ATOM     19  C   LIG    1        0.002  -0.004   0.002  0.00  0.00    +0.120 C 
BRANCH  19  20
ATOM     20  C   LIG    1       -0.018   1.503   0.010  0.00  0.00    -0.120 A 
ATOM     21  C   LIG    1       -1.226   2.177   0.020  0.00  0.00    +0.060 A 
ATOM     22  C   LIG    1       -1.247   3.558   0.033  0.00  0.00    -0.080 A 
ATOM     23  C   LIG    1       -0.056   4.269   0.025  0.00  0.00    +0.130 A 
ATOM     24  C   LIG    1        1.154   3.591   0.010  0.00  0.00    -0.020 A 
ATOM     25  C   LIG    1        1.170   2.209   0.003  0.00  0.00    +0.060 A 
BRANCH  23  26
ATOM     26  O   LIG    1       -0.074   5.628   0.033  0.00  0.00    -0.320 OA
ATOM     27  C   LIG    1       -1.356   6.259   0.049  0.00  0.00    +0.250 C 
ENDBRANCH  23  26
ENDBRANCH  19  20
ENDBRANCH   5  19
TORSDOF 8
