REMARK  Name = ZINCpk00000y6wmx.0
REMARK                            x       y       z     vdW  Elec       q    Type
REMARK                         _______ _______ _______ _____ _____    ______ ____
ROOT
ATOM      1  N   LIG    1       -0.770   5.937   2.461  0.00  0.00    -0.670 N 
ATOM      2  H   LIG    1       -0.755   6.843   2.113  0.00  0.00    +0.420 HD
ATOM      3  C   LIG    1        0.141   5.038   2.040  0.00  0.00    +0.710 C 
ATOM      4  N   LIG    1        1.140   5.423   1.222  0.00  0.00    -0.620 N 
ATOM      5  C   LIG    1        1.290   6.831   0.821  0.00  0.00    +0.260 C 
ATOM      6  C   LIG    1        1.424   6.886  -0.705  0.00  0.00    +0.210 C 
ATOM      7  O   LIG    1        2.461   5.994  -1.120  0.00  0.00    -0.370 OA
ATOM      8  C   LIG    1        2.207   4.620  -0.816  0.00  0.00    +0.240 C 
ATOM      9  C   LIG    1        2.113   4.449   0.704  0.00  0.00    +0.340 C 
ATOM     10  O   LIG    1        0.061   3.879   2.399  0.00  0.00    -0.540 OA
ENDROOT
BRANCH   1  13
ATOM     11  C   LIG    1       -1.182   7.319   5.176  0.00  0.00    +0.130 C 
ATOM     12  C   LIG    1       -1.948   6.152   4.608  0.00  0.00    -0.200 A 
ATOM     13  C   LIG    1       -1.735   5.567   3.398  0.00  0.00    +0.330 A 
ATOM     14  N   LIG    1       -2.626   4.557   3.271  0.00  0.00    -0.340 N 
ATOM     15  N   LIG    1       -3.409   4.525   4.432  0.00  0.00    -0.220 NA
ATOM     16  C   LIG    1       -2.749   3.655   2.123  0.00  0.00    +0.380 C 
ATOM     17  C   LIG    1       -3.005   5.481   5.229  0.00  0.00    -0.010 A 
BRANCH  17  18
ATOM     18  C   LIG    1       -3.577   5.800   6.586  0.00  0.00    +0.560 C 
ATOM     19  F   LIG    1       -4.168   7.067   6.557  0.00  0.00    -0.170 F 
ATOM     20  F   LIG    1       -2.553   5.785   7.539  0.00  0.00    -0.170 F 
ATOM     21  F   LIG    1       -4.541   4.843   6.922  0.00  0.00    -0.170 F 
ENDBRANCH  17  18
ENDBRANCH   1  13
BRANCH   9  22
ATOM     22  C   LIG    1        1.654   3.050   1.030  0.00  0.00    +0.250 A 
ATOM     23  N   LIG    1        2.344   2.159   1.691  0.00  0.00    -0.310 NA
ATOM     24  N   LIG    1        1.548   1.005   1.768  0.00  0.00    -0.480 N 
ATOM     25  H   LIG    1        1.779   0.166   2.197  0.00  0.00    +0.440 HD
ATOM     26  C   LIG    1        0.403   1.291   1.124  0.00  0.00    +0.470 A 
ATOM     27  N   LIG    1        0.478   2.523   0.690  0.00  0.00    -0.510 NA
ENDBRANCH   9  22
TORSDOF 3
