REMARK  Name = ZINCpk00000y6wmx.1
REMARK                            x       y       z     vdW  Elec       q    Type
REMARK                         _______ _______ _______ _____ _____    ______ ____
ROOT
ATOM      1  N   LIG    1        3.748  -0.214   2.028  0.00  0.00    -0.670 N 
ATOM      2  H   LIG    1        4.188   0.633   2.201  0.00  0.00    +0.410 HD
ATOM      3  C   LIG    1        4.310  -1.106   1.188  0.00  0.00    +0.710 C 
ATOM      4  N   LIG    1        5.519  -0.853   0.647  0.00  0.00    -0.620 N 
ATOM      5  C   LIG    1        6.190   0.439   0.863  0.00  0.00    +0.260 C 
ATOM      6  C   LIG    1        6.628   0.989  -0.499  0.00  0.00    +0.230 C 
ATOM      7  O   LIG    1        7.382  -0.011  -1.190  0.00  0.00    -0.370 OA
ATOM      8  C   LIG    1        6.644  -1.200  -1.486  0.00  0.00    +0.250 C 
ATOM      9  C   LIG    1        6.209  -1.864  -0.170  0.00  0.00    +0.320 C 
ATOM     10  O   LIG    1        3.727  -2.138   0.917  0.00  0.00    -0.530 OA
ENDROOT
BRANCH   1  13
ATOM     11  C   LIG    1        1.080   1.171   1.386  0.00  0.00    +0.130 C 
ATOM     12  C   LIG    1        1.335   0.079   2.393  0.00  0.00    -0.180 A 
ATOM     13  C   LIG    1        2.535  -0.511   2.649  0.00  0.00    +0.330 A 
ATOM     14  N   LIG    1        2.337  -1.436   3.616  0.00  0.00    -0.340 N 
ATOM     15  N   LIG    1        0.980  -1.413   3.962  0.00  0.00    -0.220 NA
ATOM     16  C   LIG    1        3.360  -2.307   4.198  0.00  0.00    +0.370 C 
ATOM     17  C   LIG    1        0.382  -0.507   3.231  0.00  0.00    -0.010 A 
BRANCH  17  18
ATOM     18  C   LIG    1       -1.083  -0.160   3.279  0.00  0.00    +0.560 C 
ATOM     19  F   LIG    1       -1.681  -0.493   2.059  0.00  0.00    -0.160 F 
ATOM     20  F   LIG    1       -1.230   1.211   3.511  0.00  0.00    -0.160 F 
ATOM     21  F   LIG    1       -1.699  -0.877   4.311  0.00  0.00    -0.170 F 
ENDBRANCH  17  18
ENDBRANCH   1  13
BRANCH   9  22
ATOM     22  C   LIG    1        5.272  -3.007  -0.462  0.00  0.00    +0.190 A 
ATOM     23  N   LIG    1        4.193  -2.955  -1.194  0.00  0.00    -0.250 NA
ATOM     24  N   LIG    1        3.637  -4.114  -1.229  0.00  0.00    -0.280 NA
ATOM     25  C   LIG    1        4.336  -4.958  -0.521  0.00  0.00    +0.380 A 
ATOM     26  N   LIG    1        5.397  -4.281  -0.018  0.00  0.00    -0.580 N 
ATOM     27  H   LIG    1        6.101  -4.636   0.547  0.00  0.00    +0.420 HD
ENDBRANCH   9  22
TORSDOF 3
