REMARK  Name = ZINCpe00000zbtLP.0
REMARK                            x       y       z     vdW  Elec       q    Type
REMARK                         _______ _______ _______ _____ _____    ______ ____
ROOT
ATOM      1  C   LIG    1       -3.202  -2.434  -2.842  0.00  0.00    +0.510 C 
ATOM      2  N   LIG    1       -4.254  -3.241  -3.082  0.00  0.00    -0.730 N 
ATOM      3  H   LIG    1       -4.746  -3.630  -2.342  0.00  0.00    +0.400 HD
ATOM      4  O   LIG    1       -2.587  -1.948  -3.768  0.00  0.00    -0.520 OA
ENDROOT
BRANCH   2   5
ATOM      5  C   LIG    1       -4.655  -3.532  -4.461  0.00  0.00    +0.260 C 
ATOM      6  C   LIG    1       -6.144  -3.957  -4.514  0.00  0.00    +0.050 C 
ATOM      7  C   LIG    1       -6.218  -4.775  -5.827  0.00  0.00    -0.010 C 
ATOM      8  C   LIG    1       -4.885  -5.550  -5.867  0.00  0.00    +0.000 C 
ATOM      9  C   LIG    1       -3.889  -4.758  -4.999  0.00  0.00    +0.150 C 
BRANCH   9  10
ATOM     10  O   LIG    1       -2.777  -4.331  -5.790  0.00  0.00    -0.550 OA
ATOM     11  H   LIG    1       -2.255  -5.057  -6.157  0.00  0.00    +0.380 HD
ENDBRANCH   9  10
BRANCH   7  12
ATOM     12  C   LIG    1       -7.403  -5.742  -5.789  0.00  0.00    +0.310 C 
BRANCH  12  13
ATOM     13  N   LIG    1       -7.524  -6.417  -7.083  0.00  0.00    -0.460 N 
ATOM     14  C   LIG    1       -8.263  -5.992  -8.155  0.00  0.00    +0.110 A 
ATOM     15  C   LIG    1       -8.090  -6.902  -9.132  0.00  0.00    +0.140 A 
ATOM     16  N   LIG    1       -7.276  -7.862  -8.668  0.00  0.00    -0.490 NA
ATOM     17  C   LIG    1       -6.933  -7.578  -7.441  0.00  0.00    +0.380 A 
ENDBRANCH  12  13
ENDBRANCH   7  12
ENDBRANCH   2   5
BRANCH   1  18
ATOM     18  C   LIG    1       -2.789  -2.135  -1.424  0.00  0.00    +0.060 C 
BRANCH  18  19
ATOM     19  C   LIG    1       -1.577  -1.201  -1.431  0.00  0.00    +0.040 C 
BRANCH  19  20
ATOM     20  C   LIG    1       -1.159  -0.898   0.009  0.00  0.00    +0.330 C 
BRANCH  20  24
ATOM     21  C   LIG    1        3.559   0.806  -0.027  0.00  0.00    +0.190 C 
ATOM     22  C   LIG    1        2.055   0.723  -0.014  0.00  0.00    +0.220 A 
ATOM     23  N   LIG    1        1.355  -0.381  -0.013  0.00  0.00    -0.320 NA
ATOM     24  N   LIG    1        0.002  -0.004   0.002  0.00  0.00    -0.380 N 
ATOM     25  C   LIG    1       -0.016   1.340   0.009  0.00  0.00    +0.280 A 
ATOM     26  C   LIG    1       -1.248   2.208   0.020  0.00  0.00    +0.190 C 
ATOM     27  N   LIG    1        1.222   1.763  -0.000  0.00  0.00    -0.540 NA
ENDBRANCH  20  24
ENDBRANCH  19  20
ENDBRANCH  18  19
ENDBRANCH   1  18
TORSDOF 8
