REMARK  Name = ZINCvU0000000BD7.0
REMARK                            x       y       z     vdW  Elec       q    Type
REMARK                         _______ _______ _______ _____ _____    ______ ____
ROOT
ATOM      1  C   LIG    1       -0.775   9.313   1.482  0.00  0.00    +0.430 C 
ATOM      2  O   LIG    1       -1.272   9.168   2.580  0.00  0.00    -0.450 OA
ENDROOT
BRANCH   1   3
ATOM      3  C   LIG    1       -0.402   8.141   0.688  0.00  0.00    -0.260 A 
ATOM      4  C   LIG    1       -0.553   6.813   1.041  0.00  0.00    +0.130 A 
ATOM      5  N   LIG    1       -0.080   6.055   0.033  0.00  0.00    -0.400 N 
ATOM      6  C   LIG    1        0.373   6.846  -0.986  0.00  0.00    +0.020 A 
ATOM      7  C   LIG    1        0.967   6.351  -2.279  0.00  0.00    +0.150 C 
ATOM      8  C   LIG    1       -1.142   6.302   2.330  0.00  0.00    +0.150 C 
ATOM      9  C   LIG    1        0.206   8.136  -0.650  0.00  0.00    +0.000 A 
BRANCH   5  10
ATOM     10  C   LIG    1       -0.061   4.654   0.026  0.00  0.00    +0.120 A 
ATOM     11  C   LIG    1        1.150   3.975   0.011  0.00  0.00    +0.040 A 
ATOM     12  C   LIG    1        1.166   2.594   0.005  0.00  0.00    +0.070 A 
ATOM     13  C   LIG    1       -0.024   1.887   0.012  0.00  0.00    -0.080 A 
ATOM     14  C   LIG    1       -1.232   2.561   0.022  0.00  0.00    +0.070 A 
ATOM     15 BR   LIG    1        0.002  -0.004   0.002  0.00  0.00    -0.030 Br
ATOM     16  C   LIG    1       -1.253   3.942   0.034  0.00  0.00    +0.040 A 
ENDBRANCH   5  10
ENDBRANCH   1   3
BRANCH   1  17
ATOM     17  C   LIG    1       -0.544  10.699   0.937  0.00  0.00    +0.250 C 
BRANCH  17  18
ATOM     18  O   LIG    1       -0.994  11.682   1.905  0.00  0.00    -0.330 OA
BRANCH  18  19
ATOM     19  C   LIG    1       -0.857  12.979   1.569  0.00  0.00    +0.510 C 
ATOM     20  O   LIG    1       -0.373  13.281   0.497  0.00  0.00    -0.500 OA
BRANCH  19  23
ATOM     21  C   LIG    1       -1.563  16.366   3.041  0.00  0.00    +0.150 A 
ATOM     22  C   LIG    1       -1.152  15.380   2.160  0.00  0.00    -0.030 A 
ATOM     23  C   LIG    1       -1.294  14.035   2.506  0.00  0.00    -0.060 A 
ATOM     24  C   LIG    1       -1.855  13.691   3.737  0.00  0.00    -0.030 A 
ATOM     25  C   LIG    1       -2.259  14.684   4.613  0.00  0.00    +0.150 A 
ATOM     26  C   LIG    1       -2.116  16.020   4.265  0.00  0.00    -0.110 A 
ATOM     27  C   LIG    1       -2.562  17.097   5.220  0.00  0.00    +0.110 C 
BRANCH  21  29
ATOM     28  C   LIG    1       -0.849  17.962   1.429  0.00  0.00    +0.250 C 
ATOM     29  O   LIG    1       -1.426  17.676   2.705  0.00  0.00    -0.310 OA
ENDBRANCH  21  29
BRANCH  25  30
ATOM     30  O   LIG    1       -2.801  14.350   5.814  0.00  0.00    -0.310 OA
ATOM     31  C   LIG    1       -2.919  12.957   6.107  0.00  0.00    +0.240 C 
ENDBRANCH  25  30
ENDBRANCH  19  23
ENDBRANCH  18  19
ENDBRANCH  17  18
ENDBRANCH   1  17
TORSDOF 8
