REMARK  Name = ZINCqH0000004Yrb.0
REMARK                            x       y       z     vdW  Elec       q    Type
REMARK                         _______ _______ _______ _____ _____    ______ ____
ROOT
ATOM      1  C   LIG    1       -0.095   5.870  -1.415  0.00  0.00    +0.280 C 
ENDROOT
BRANCH   1   4
ATOM      2  C   LIG    1        2.128   7.337  -0.439  0.00  0.00    +0.300 C 
ATOM      3  N   LIG    1        0.942   8.058  -0.910  0.00  0.00    -0.550 N 
ATOM      4  C   LIG    1       -0.099   7.377  -1.429  0.00  0.00    +0.510 C 
ATOM      5  O   LIG    1       -1.038   7.977  -1.907  0.00  0.00    -0.500 OA
BRANCH   3   6
ATOM      6  C   LIG    1        0.891   9.453  -0.820  0.00  0.00    +0.150 A 
ATOM      7  C   LIG    1       -0.285  10.127  -1.123  0.00  0.00    +0.010 A 
ATOM      8  C   LIG    1       -0.334  11.504  -1.029  0.00  0.00    +0.030 A 
ATOM      9  C   LIG    1        0.789  12.213  -0.644  0.00  0.00    -0.020 A 
ATOM     10  C   LIG    1        1.963  11.545  -0.347  0.00  0.00    +0.030 A 
ATOM     11  C   LIG    1        2.017  10.168  -0.435  0.00  0.00    -0.030 A 
ENDBRANCH   3   6
ENDBRANCH   1   4
BRANCH   1  12
ATOM     12  N   LIG    1       -1.162   5.371  -2.286  0.00  0.00    -0.700 N 
ATOM     13  H   LIG    1       -1.938   5.924  -2.467  0.00  0.00    +0.410 HD
ATOM     14  C   LIG    1       -1.065   4.144  -2.835  0.00  0.00    +0.660 C 
ATOM     15  O   LIG    1       -0.093   3.452  -2.608  0.00  0.00    -0.550 OA
BRANCH  14  16
ATOM     16  O   LIG    1       -2.046   3.686  -3.636  0.00  0.00    -0.360 OA
BRANCH  16  17
ATOM     17  C   LIG    1       -1.875   2.356  -4.193  0.00  0.00    +0.140 C 
ATOM     18  C   LIG    1       -0.601   2.318  -5.040  0.00  0.00    +0.040 C 
ATOM     19  C   LIG    1       -3.080   2.011  -5.069  0.00  0.00    +0.080 C 
ATOM     20  C   LIG    1       -1.763   1.338  -3.056  0.00  0.00    +0.040 C 
ENDBRANCH  16  17
ENDBRANCH  14  16
ENDBRANCH   1  12
BRANCH   1  21
ATOM     21  C   LIG    1       -0.329   5.373   0.013  0.00  0.00    +0.080 C 
BRANCH  21  22
ATOM     22  C   LIG    1       -0.264   3.867   0.038  0.00  0.00    -0.070 A 
ATOM     23  C   LIG    1        0.942   3.230   0.260  0.00  0.00    +0.020 A 
ATOM     24  C   LIG    1        1.001   1.849   0.283  0.00  0.00    +0.010 A 
ATOM     25  C   LIG    1       -0.147   1.105   0.085  0.00  0.00    +0.000 A 
ATOM     26  C   LIG    1       -1.353   1.742  -0.143  0.00  0.00    +0.010 A 
ATOM     27  C   LIG    1       -1.412   3.123  -0.162  0.00  0.00    +0.000 A 
ENDBRANCH  21  22
ENDBRANCH   1  21
TORSDOF 7
