REMARK  Name = ZINCqH0000000knf.0
REMARK                            x       y       z     vdW  Elec       q    Type
REMARK                         _______ _______ _______ _____ _____    ______ ____
ROOT
ATOM      1  N   LIG    1        0.383  -2.724  -0.018  0.00  0.00    -0.510 N 
ATOM      2  C   LIG    1        1.471  -1.928  -0.023  0.00  0.00    +0.580 A 
ATOM      3  C   LIG    1        1.294  -0.526  -0.013  0.00  0.00    -0.340 A 
ATOM      4  C   LIG    1        0.002  -0.004   0.002  0.00  0.00    +0.190 A 
ATOM      5  N   LIG    1       -1.052  -0.879   0.007  0.00  0.00    -0.480 NA
ATOM      6  C   LIG    1       -0.017   1.392   0.010  0.00  0.00    +0.040 A 
ATOM      7  C   LIG    1        1.184   1.988   0.001  0.00  0.00    -0.100 A 
ATOM      8  S   LIG    1        2.464   0.786  -0.017  0.00  0.00    +0.240 S 
ATOM      9  O   LIG    1        2.591  -2.411  -0.037  0.00  0.00    -0.520 OA
ATOM     10  C   LIG    1       -0.867  -2.172  -0.003  0.00  0.00    +0.350 A 
ENDROOT
BRANCH   7  11
ATOM     11  C   LIG    1        1.401   3.451   0.006  0.00  0.00    -0.030 A 
ATOM     12  C   LIG    1        0.309   4.320   0.015  0.00  0.00    +0.040 A 
ATOM     13  C   LIG    1        0.518   5.684   0.025  0.00  0.00    +0.010 A 
ATOM     14  C   LIG    1        1.805   6.190   0.015  0.00  0.00    +0.020 A 
ATOM     15  C   LIG    1        2.892   5.333   0.001  0.00  0.00    +0.020 A 
ATOM     16  C   LIG    1        2.697   3.968  -0.003  0.00  0.00    +0.020 A 
ENDBRANCH   7  11
BRANCH   1  17
ATOM     17  C   LIG    1        0.540  -4.180  -0.027  0.00  0.00    +0.340 C 
BRANCH  17  19
ATOM     18  C   LIG    1       -0.223  -5.617   1.793  0.00  0.00    +0.060 C 
ATOM     19  C   LIG    1        0.607  -4.687   1.390  0.00  0.00    -0.060 C 
ENDBRANCH  17  19
ENDBRANCH   1  17
BRANCH  10  20
ATOM     20  S   LIG    1       -2.271  -3.237   0.004  0.00  0.00    +0.050 S 
BRANCH  20  21
ATOM     21  C   LIG    1       -3.598  -2.006   0.024  0.00  0.00    -0.010 C 
ATOM     22  C   LIG    1       -4.976  -2.700  -0.055  0.00  0.00    +0.070 C 
ATOM     23  C   LIG    1       -5.776  -1.962   1.042  0.00  0.00    +0.270 C 
ATOM     24  O   LIG    1       -4.762  -1.509   1.989  0.00  0.00    -0.340 OA
ATOM     25  C   LIG    1       -3.610  -1.265   1.343  0.00  0.00    +0.490 C 
ATOM     26  O   LIG    1       -2.717  -0.563   1.753  0.00  0.00    -0.410 OA
ENDBRANCH  20  21
ENDBRANCH  10  20
TORSDOF 5
