REMARK  Name = ZINCpk00000FiStx.0
REMARK                            x       y       z     vdW  Elec       q    Type
REMARK                         _______ _______ _______ _____ _____    ______ ____
ROOT
ATOM      1  C   LIG    1       -0.013   1.086   0.008  0.00  0.00    +0.350 C 
ENDROOT
BRANCH   1   2
ATOM      2  C   LIG    1       -0.718   1.572   1.248  0.00  0.00    -0.100 A 
ATOM      3  C   LIG    1       -1.222   2.858   1.295  0.00  0.00    +0.030 A 
ATOM      4  C   LIG    1       -1.875   3.307   2.429  0.00  0.00    -0.030 A 
ATOM      5  C   LIG    1       -2.015   2.471   3.524  0.00  0.00    +0.110 A 
ATOM      6  C   LIG    1       -1.502   1.177   3.479  0.00  0.00    +0.110 A 
ATOM      7  C   LIG    1       -0.854   0.732   2.338  0.00  0.00    +0.000 A 
BRANCH   6   8
ATOM      8  O   LIG    1       -1.637   0.353   4.552  0.00  0.00    -0.300 OA
ATOM      9  C   LIG    1       -1.087  -0.961   4.434  0.00  0.00    +0.240 C 
ENDBRANCH   6   8
BRANCH   5  10
ATOM     10  O   LIG    1       -2.651   2.913   4.642  0.00  0.00    -0.300 OA
ATOM     11  C   LIG    1       -3.151   4.251   4.617  0.00  0.00    +0.240 C 
ENDBRANCH   5  10
ENDBRANCH   1   2
BRANCH   1  12
ATOM     12  N   LIG    1       -0.721   1.571  -1.179  0.00  0.00    -0.690 N 
ATOM     13  H   LIG    1       -1.263   2.374  -1.126  0.00  0.00    +0.420 HD
ATOM     14  C   LIG    1       -0.620   0.902  -2.344  0.00  0.00    +0.590 C 
ATOM     15  O   LIG    1        0.058  -0.104  -2.411  0.00  0.00    -0.520 OA
BRANCH  14  16
ATOM     16  C   LIG    1       -1.337   1.393  -3.545  0.00  0.00    +0.020 A 
ATOM     17  C   LIG    1       -1.230   0.706  -4.753  0.00  0.00    +0.300 A 
ATOM     18  N   LIG    1       -1.875   1.143  -5.819  0.00  0.00    -0.440 NA
ATOM     19  C   LIG    1       -2.612   2.237  -5.743  0.00  0.00    +0.110 A 
ATOM     20  C   LIG    1       -2.716   2.927  -4.544  0.00  0.00    +0.230 A 
ATOM     21  C   LIG    1       -3.341   2.738  -6.963  0.00  0.00    +0.160 C 
ATOM     22  N   LIG    1       -2.080   2.494  -3.474  0.00  0.00    -0.410 NA
ENDBRANCH  14  16
ENDBRANCH   1  12
BRANCH   1  23
ATOM     23  C   LIG    1        1.401   1.607  -0.003  0.00  0.00    +0.450 C 
ATOM     24  O   LIG    1        1.778   2.312  -0.909  0.00  0.00    -0.490 OA
BRANCH  23  26
ATOM     25  C   LIG    1        3.588   1.827   0.919  0.00  0.00    +0.260 C 
ATOM     26  O   LIG    1        2.241   1.289   0.994  0.00  0.00    -0.350 OA
ENDBRANCH  23  26
ENDBRANCH   1  23
TORSDOF 7
