REMARK  Name = ZINCqH0000000xcg.0
REMARK                            x       y       z     vdW  Elec       q    Type
REMARK                         _______ _______ _______ _____ _____    ______ ____
ROOT
ATOM      1  N   LIG    1       -2.421   1.011   0.530  0.00  0.00    -0.500 N 
ATOM      2  C   LIG    1       -2.570   0.070   1.649  0.00  0.00    +0.210 C 
ATOM      3  C   LIG    1       -3.927  -0.630   1.546  0.00  0.00    +0.220 C 
ATOM      4  N   LIG    1       -4.018  -1.330   0.258  0.00  0.00    -0.500 N 
ATOM      5  C   LIG    1       -3.869  -0.390  -0.861  0.00  0.00    +0.220 C 
ATOM      6  C   LIG    1       -2.512   0.311  -0.759  0.00  0.00    +0.210 C 
ENDROOT
BRANCH   1  10
ATOM      7  C   LIG    1        1.150   3.132   0.822  0.00  0.00    -0.150 A 
ATOM      8  C   LIG    1        1.169   1.743   0.643  0.00  0.00    +0.080 A 
ATOM      9  C   LIG    1       -0.013   1.046   0.551  0.00  0.00    +0.010 A 
ATOM     10  C   LIG    1       -1.229   1.719   0.629  0.00  0.00    +0.090 A 
ATOM     11  C   LIG    1       -1.254   3.102   0.812  0.00  0.00    +0.120 A 
ATOM     12  F   LIG    1       -2.437   3.751   0.892  0.00  0.00    -0.120 F 
ATOM     13  C   LIG    1       -0.076   3.807   0.906  0.00  0.00    +0.050 A 
BRANCH   7  15
ATOM     14  C   LIG    1        2.386   5.373   1.113  0.00  0.00    +0.090 C 
ATOM     15  C   LIG    1        2.409   3.878   0.921  0.00  0.00    +0.400 C 
ATOM     16  O   LIG    1        3.469   3.293   0.848  0.00  0.00    -0.450 OA
ENDBRANCH   7  15
ENDBRANCH   1  10
BRANCH   4  17
ATOM     17  C   LIG    1       -5.210  -2.038   0.159  0.00  0.00    +0.350 A 
ATOM     18  N   LIG    1       -6.363  -1.389   0.192  0.00  0.00    -0.500 NA
ATOM     19  C   LIG    1       -7.517  -2.023   0.101  0.00  0.00    +0.310 A 
ATOM     20  C   LIG    1       -7.562  -3.396  -0.034  0.00  0.00    -0.030 A 
ATOM     21  C   LIG    1       -6.374  -4.115  -0.073  0.00  0.00    +0.130 A 
ATOM     22  C   LIG    1       -5.180  -3.422   0.019  0.00  0.00    -0.210 A 
BRANCH  22  23
ATOM     23  C   LIG    1       -3.866  -4.158  -0.025  0.00  0.00    +0.530 C 
ATOM     24  F   LIG    1       -3.164  -3.931   1.164  0.00  0.00    -0.170 F 
ATOM     25  F   LIG    1       -3.109  -3.696  -1.108  0.00  0.00    -0.170 F 
ATOM     26  F   LIG    1       -4.103  -5.528  -0.173  0.00  0.00    -0.180 F 
ENDBRANCH  22  23
ENDBRANCH   4  17
TORSDOF 4
