REMARK  Name = ZINCqH00000501W4.0
REMARK                            x       y       z     vdW  Elec       q    Type
REMARK                         _______ _______ _______ _____ _____    ______ ____
ROOT
ATOM      1  C   LIG    1       -2.693   1.326  -2.577  0.00  0.00    +0.600 C 
ATOM      2  N   LIG    1       -2.144   1.630  -1.384  0.00  0.00    -0.590 N 
ATOM      3  C   LIG    1       -2.991   2.018  -0.248  0.00  0.00    +0.270 C 
ATOM      4  C   LIG    1       -2.655   1.119   0.947  0.00  0.00    +0.020 C 
ATOM      5  C   LIG    1       -1.152   1.192   1.229  0.00  0.00    +0.020 C 
ATOM      6  C   LIG    1       -0.378   0.685   0.010  0.00  0.00    +0.030 C 
ATOM      7  C   LIG    1       -0.688   1.579  -1.195  0.00  0.00    +0.310 C 
ATOM      8  O   LIG    1       -1.996   0.899  -3.476  0.00  0.00    -0.490 OA
ENDROOT
BRANCH   1  14
ATOM      9  C   LIG    1       -4.396   0.461  -5.192  0.00  0.00    +0.160 C 
ATOM     10  C   LIG    1       -4.895   1.134  -3.939  0.00  0.00    -0.130 A 
ATOM     11  C   LIG    1       -6.171   1.522  -3.641  0.00  0.00    +0.010 A 
ATOM     12  O   LIG    1       -6.122   2.076  -2.416  0.00  0.00    +0.120 OA
ATOM     13  N   LIG    1       -5.003   2.059  -1.962  0.00  0.00    -0.330 NA
ATOM     14  C   LIG    1       -4.149   1.514  -2.793  0.00  0.00    -0.020 A 
BRANCH  11  15
ATOM     15  C   LIG    1       -7.368   1.365  -4.495  0.00  0.00    -0.030 A 
ATOM     16  C   LIG    1       -8.221   2.447  -4.713  0.00  0.00    +0.040 A 
ATOM     17  C   LIG    1       -9.334   2.295  -5.514  0.00  0.00    +0.010 A 
ATOM     18  C   LIG    1       -9.609   1.069  -6.094  0.00  0.00    +0.030 A 
ATOM     19  C   LIG    1       -8.770  -0.010  -5.878  0.00  0.00    +0.010 A 
ATOM     20  C   LIG    1       -7.652   0.131  -5.083  0.00  0.00    +0.040 A 
ENDBRANCH  11  15
ENDBRANCH   1  14
BRANCH   7  21
ATOM     21  C   LIG    1       -0.038   1.006  -2.429  0.00  0.00    -0.220 A 
ATOM     22  C   LIG    1        0.774   1.671  -3.282  0.00  0.00    +0.220 A 
ATOM     23  N   LIG    1        1.145   0.810  -4.253  0.00  0.00    -0.380 N 
ATOM     24  N   LIG    1        0.540  -0.425  -3.987  0.00  0.00    -0.300 NA
ATOM     25  C   LIG    1        2.025   1.114  -5.384  0.00  0.00    +0.350 C 
ATOM     26  C   LIG    1       -0.164  -0.308  -2.891  0.00  0.00    +0.280 A 
ENDBRANCH   7  21
TORSDOF 3
