REMARK  Name = ZINCqH00000012jd.0
REMARK                            x       y       z     vdW  Elec       q    Type
REMARK                         _______ _______ _______ _____ _____    ______ ____
ROOT
ATOM      1  C   LIG    1        0.002  -0.004   0.002  0.00  0.00    +0.470 C 
ATOM      2  O   LIG    1       -0.521  -0.610  -0.902  0.00  0.00    -0.500 OA
ENDROOT
BRANCH   1   3
ATOM      3  C   LIG    1       -0.018   1.503   0.010  0.00  0.00    +0.040 C 
ATOM      4  C   LIG    1       -0.760   2.011  -1.229  0.00  0.00    +0.040 C 
ATOM      5  C   LIG    1       -0.830   3.540  -1.182  0.00  0.00    +0.050 C 
ATOM      6  C   LIG    1       -1.524   3.975   0.111  0.00  0.00    +0.210 C 
ATOM      7  N   LIG    1       -0.775   3.465   1.266  0.00  0.00    -0.460 N 
ATOM      8  C   LIG    1       -0.736   1.997   1.268  0.00  0.00    +0.240 C 
BRANCH   7   9
ATOM      9  C   LIG    1       -1.301   3.949   2.451  0.00  0.00    +0.490 A 
ATOM     10  N   LIG    1       -1.688   3.092   3.385  0.00  0.00    -0.550 NA
ATOM     11  C   LIG    1       -2.190   3.521   4.531  0.00  0.00    +0.340 A 
ATOM     12  C   LIG    1       -2.319   4.885   4.744  0.00  0.00    -0.110 A 
ATOM     13  C   LIG    1       -1.909   5.753   3.744  0.00  0.00    +0.350 A 
ATOM     14  N   LIG    1       -1.411   5.258   2.624  0.00  0.00    -0.530 NA
ENDBRANCH   7   9
ENDBRANCH   1   3
BRANCH   1  15
ATOM     15  O   LIG    1        0.602  -0.673   1.000  0.00  0.00    -0.350 OA
BRANCH  15  16
ATOM     16  C   LIG    1        0.583  -2.123   0.926  0.00  0.00    +0.270 C 
BRANCH  16  20
ATOM     17  C   LIG    1        2.611  -3.748   4.316  0.00  0.00    -0.060 A 
ATOM     18  C   LIG    1        1.252  -3.502   4.376  0.00  0.00    +0.000 A 
ATOM     19  C   LIG    1        0.596  -2.976   3.279  0.00  0.00    +0.030 A 
ATOM     20  C   LIG    1        1.298  -2.696   2.122  0.00  0.00    -0.100 A 
ATOM     21  C   LIG    1        2.656  -2.946   2.061  0.00  0.00    +0.030 A 
ATOM     22  C   LIG    1        3.314  -3.467   3.159  0.00  0.00    +0.010 A 
BRANCH  17  24
ATOM     23  C   LIG    1        2.720  -5.681   5.865  0.00  0.00    +0.040 C 
ATOM     24  C   LIG    1        3.326  -4.321   5.512  0.00  0.00    -0.030 C 
ATOM     25  C   LIG    1        3.175  -3.371   6.702  0.00  0.00    +0.040 C 
ATOM     26  C   LIG    1        4.811  -4.495   5.184  0.00  0.00    +0.030 C 
ENDBRANCH  17  24
ENDBRANCH  16  20
ENDBRANCH  15  16
ENDBRANCH   1  15
TORSDOF 6
