REMARK  Name = ZINCrH000004uwmS.0
REMARK                            x       y       z     vdW  Elec       q    Type
REMARK                         _______ _______ _______ _____ _____    ______ ____
ROOT
ATOM      1  O   LIG    1       -2.418   0.544   0.635  0.00  0.00    -0.570 OA
ATOM      2  C   LIG    1       -2.298   1.754   0.632  0.00  0.00    +0.700 C 
ATOM      3  N   LIG    1       -1.078   2.309   0.493  0.00  0.00    -0.680 N 
ATOM      4  H   LIG    1       -0.973   3.271   0.561  0.00  0.00    +0.410 HD
ATOM      5  N   LIG    1       -3.385   2.539   0.766  0.00  0.00    -0.740 N 
ATOM      6  H   LIG    1       -3.289   3.504   0.764  0.00  0.00    +0.400 HD
ENDROOT
BRANCH   3   7
ATOM      7  C   LIG    1        0.036   1.500   0.252  0.00  0.00    +0.130 A 
ATOM      8  C   LIG    1        0.122   0.231   0.814  0.00  0.00    +0.070 A 
ATOM      9  C   LIG    1        1.243  -0.537   0.541  0.00  0.00    -0.010 A 
ATOM     10  C   LIG    1        2.236  -0.026  -0.275  0.00  0.00    +0.250 A 
ATOM     11  N   LIG    1        2.133   1.180  -0.797  0.00  0.00    -0.460 NA
ATOM     12  C   LIG    1        1.079   1.951  -0.565  0.00  0.00    +0.140 A 
BRANCH  12  13
ATOM     13  C   LIG    1        1.006   3.301  -1.174  0.00  0.00    -0.050 A 
ATOM     14  C   LIG    1       -0.187   3.751  -1.737  0.00  0.00    +0.010 A 
ATOM     15  C   LIG    1       -0.250   5.010  -2.298  0.00  0.00    +0.010 A 
ATOM     16  C   LIG    1        0.871   5.821  -2.313  0.00  0.00    +0.020 A 
ATOM     17  C   LIG    1        2.059   5.377  -1.761  0.00  0.00    +0.010 A 
ATOM     18  C   LIG    1        2.133   4.122  -1.192  0.00  0.00    +0.050 A 
ENDBRANCH  12  13
ENDBRANCH   3   7
BRANCH   5  19
ATOM     19  C   LIG    1       -4.711   1.935   0.917  0.00  0.00    +0.280 C 
BRANCH  19  20
ATOM     20  C   LIG    1       -5.762   3.038   1.050  0.00  0.00    -0.010 C 
ATOM     21  C   LIG    1       -5.871   3.837  -0.265  0.00  0.00    +0.040 C 
ATOM     22  C   LIG    1       -7.327   3.636  -0.737  0.00  0.00    +0.170 C 
ATOM     23  N   LIG    1       -8.080   3.308   0.501  0.00  0.00    -0.500 NA
ATOM     24  C   LIG    1       -7.162   2.423   1.263  0.00  0.00    +0.200 C 
BRANCH  23  25
ATOM     25  C   LIG    1       -9.337   2.617   0.185  0.00  0.00    +0.210 C 
BRANCH  25  26
ATOM     26  C   LIG    1      -10.305   3.597  -0.481  0.00  0.00    +0.460 C 
ATOM     27  F   LIG    1      -10.564   4.661   0.390  0.00  0.00    -0.170 F 
ATOM     28  F   LIG    1      -11.502   2.939  -0.781  0.00  0.00    -0.180 F 
ATOM     29  F   LIG    1       -9.733   4.088  -1.660  0.00  0.00    -0.180 F 
ENDBRANCH  25  26
ENDBRANCH  23  25
ENDBRANCH  19  20
ENDBRANCH   5  19
TORSDOF 6
