REMARK  Name = ZINCqH0000000tMU.0
REMARK                            x       y       z     vdW  Elec       q    Type
REMARK                         _______ _______ _______ _____ _____    ______ ____
ROOT
ATOM      1  C   LIG    1        2.616   0.495  -0.843  0.00  0.00    +0.540 C 
ATOM      2  N   LIG    1        1.387   1.044  -0.925  0.00  0.00    -0.690 N 
ATOM      3  H   LIG    1        1.285   2.008  -0.906  0.00  0.00    +0.410 HD
ATOM      4  C   LIG    1        0.302   0.253  -1.032  0.00  0.00    +0.690 C 
ATOM      5  N   LIG    1       -0.926   0.801  -1.119  0.00  0.00    -0.670 N 
ATOM      6  H   LIG    1       -1.037   1.760  -1.020  0.00  0.00    +0.410 HD
ATOM      7  O   LIG    1        0.430  -0.956  -1.055  0.00  0.00    -0.510 OA
ATOM      8  O   LIG    1        2.744  -0.710  -0.867  0.00  0.00    -0.440 OA
ENDROOT
BRANCH   5   9
ATOM      9  C   LIG    1       -2.041  -0.011  -1.352  0.00  0.00    +0.150 A 
ATOM     10  C   LIG    1       -1.925  -1.138  -2.156  0.00  0.00    +0.020 A 
ATOM     11  C   LIG    1       -3.026  -1.941  -2.379  0.00  0.00    +0.030 A 
ATOM     12  C   LIG    1       -4.245  -1.619  -1.813  0.00  0.00    -0.090 A 
ATOM     13  C   LIG    1       -4.366  -0.494  -1.016  0.00  0.00    +0.030 A 
ATOM     14  C   LIG    1       -5.446  -2.494  -2.064  0.00  0.00    +0.100 C 
ATOM     15  C   LIG    1       -3.267   0.309  -0.784  0.00  0.00    -0.100 A 
ATOM     16  C   LIG    1       -3.399   1.534   0.084  0.00  0.00    +0.080 C 
ENDBRANCH   5   9
BRANCH   1  17
ATOM     17  C   LIG    1        3.830   1.380  -0.723  0.00  0.00    +0.100 C 
BRANCH  17  18
ATOM     18  S   LIG    1        5.321   0.351  -0.635  0.00  0.00    -0.020 S 
BRANCH  18  22
ATOM     19  C   LIG    1        8.649   3.408  -0.290  0.00  0.00    +0.140 A 
ATOM     20  C   LIG    1        8.950   2.052  -0.303  0.00  0.00    +0.010 A 
ATOM     21  C   LIG    1        7.937   1.121  -0.408  0.00  0.00    +0.050 A 
ATOM     22  C   LIG    1        6.615   1.540  -0.500  0.00  0.00    -0.120 A 
ATOM     23  C   LIG    1        6.315   2.896  -0.492  0.00  0.00    +0.010 A 
ATOM     24  C   LIG    1        7.328   3.827  -0.382  0.00  0.00    +0.040 A 
BRANCH  19  27
ATOM     25  C   LIG    1       10.535   6.569   0.506  0.00  0.00    +0.110 C 
ATOM     26  C   LIG    1        9.474   5.498   0.496  0.00  0.00    +0.510 C 
ATOM     27  N   LIG    1        9.678   4.353  -0.185  0.00  0.00    -0.680 N 
ATOM     28  H   LIG    1       10.537   4.184  -0.602  0.00  0.00    +0.410 HD
ATOM     29  O   LIG    1        8.437   5.668   1.101  0.00  0.00    -0.530 OA
ENDBRANCH  19  27
ENDBRANCH  18  22
ENDBRANCH  17  18
ENDBRANCH   1  17
TORSDOF 5
