REMARK  Name = ZINCpk00000KfLts.0
REMARK                            x       y       z     vdW  Elec       q    Type
REMARK                         _______ _______ _______ _____ _____    ______ ____
ROOT
ATOM      1  C   LIG    1       -1.277   1.638  -4.748  0.00  0.00    +0.520 C 
ATOM      2  N   LIG    1       -0.508   1.604  -5.854  0.00  0.00    -0.620 N 
ATOM      3  C   LIG    1       -0.540   2.695  -6.843  0.00  0.00    +0.300 C 
ATOM      4  C   LIG    1        0.836   3.357  -6.864  0.00  0.00    +0.120 C 
ATOM      5  C   LIG    1        1.926   2.322  -6.944  0.00  0.00    +0.030 A 
ATOM      6  N   LIG    1        3.122   2.705  -7.370  0.00  0.00    -0.200 NA
ATOM      7  N   LIG    1        4.114   1.901  -7.463  0.00  0.00    -0.290 NA
ATOM      8  C   LIG    1        4.016   0.620  -7.136  0.00  0.00    +0.340 A 
ATOM      9  C   LIG    1        2.796   0.122  -6.681  0.00  0.00    -0.030 A 
ATOM     10  C   LIG    1        1.726   1.002  -6.589  0.00  0.00    -0.060 A 
ATOM     11  C   LIG    1        0.400   0.481  -6.119  0.00  0.00    +0.360 C 
ATOM     12  O   LIG    1       -2.014   2.580  -4.551  0.00  0.00    -0.500 OA
ENDROOT
BRANCH   8  13
ATOM     13  N   LIG    1        5.119  -0.219  -7.246  0.00  0.00    -0.610 N 
ATOM     14  C   LIG    1        6.349   0.266  -7.878  0.00  0.00    +0.300 C 
ATOM     15  C   LIG    1        5.053  -1.588  -6.729  0.00  0.00    +0.300 C 
ENDBRANCH   8  13
BRANCH   1  17
ATOM     16  C   LIG    1       -1.623  -0.799  -4.447  0.00  0.00    +0.040 C 
ATOM     17  C   LIG    1       -1.219   0.505  -3.756  0.00  0.00    +0.160 C 
BRANCH  17  18
ATOM     18  O   LIG    1       -2.118   0.770  -2.677  0.00  0.00    -0.350 OA
BRANCH  18  19
ATOM     19  C   LIG    1       -1.709   0.209  -1.428  0.00  0.00    +0.200 C 
BRANCH  19  20
ATOM     20  C   LIG    1       -2.740   0.554  -0.352  0.00  0.00    +0.160 C 
ATOM     21  C   LIG    1       -2.368  -0.148   0.956  0.00  0.00    +0.000 C 
ATOM     22  C   LIG    1       -3.370   0.250   2.044  0.00  0.00    +0.020 C 
ATOM     23  C   LIG    1       -3.375   1.775   2.185  0.00  0.00    -0.020 C 
ATOM     24  C   LIG    1       -3.708   2.404   0.829  0.00  0.00    +0.210 C 
ATOM     25  O   LIG    1       -2.756   1.968  -0.144  0.00  0.00    -0.370 OA
ENDBRANCH  19  20
ENDBRANCH  18  19
ENDBRANCH  17  18
ENDBRANCH   1  17
TORSDOF 5
