REMARK  Name = ZINCrg00000Bi7Y9.2
REMARK                            x       y       z     vdW  Elec       q    Type
REMARK                         _______ _______ _______ _____ _____    ______ ____
ROOT
ATOM      1  N   LIG    1        5.612  -0.473  -0.876  0.00  0.00    -0.360 N 
ATOM      2  C   LIG    1        6.124  -0.667   0.486  0.00  0.00    +0.270 C 
ATOM      3  C   LIG    1        5.686   0.501   1.371  0.00  0.00    +0.060 C 
ATOM      4  C   LIG    1        4.156   0.565   1.404  0.00  0.00    +0.050 C 
ATOM      5  C   LIG    1        3.630   0.693  -0.029  0.00  0.00    +0.080 C 
ATOM      6  C   LIG    1        4.144  -0.483  -0.862  0.00  0.00    +0.260 C 
ATOM      7  H   LIG    1        5.946  -1.218  -1.469  0.00  0.00    +0.440 HD
ENDROOT
BRANCH   5   8
ATOM      8  C   LIG    1        2.123   0.678  -0.015  0.00  0.00    +0.080 A 
ATOM      9  C   LIG    1        1.318   1.764  -0.001  0.00  0.00    -0.070 A 
ATOM     10  C   LIG    1       -0.016   1.312   0.009  0.00  0.00    +0.130 A 
ATOM     11  N   LIG    1        0.002  -0.004   0.002  0.00  0.00    -0.260 NA
ATOM     12  N   LIG    1        1.339  -0.421  -0.013  0.00  0.00    -0.470 N 
ATOM     13  H   LIG    1        1.649  -1.341  -0.021  0.00  0.00    +0.440 HD
BRANCH  10  14
ATOM     14  C   LIG    1       -1.228   2.169   0.020  0.00  0.00    -0.030 A 
ATOM     15  C   LIG    1       -1.103   3.556   0.032  0.00  0.00    +0.040 A 
ATOM     16  C   LIG    1       -2.233   4.348   0.037  0.00  0.00    +0.010 A 
ATOM     17  C   LIG    1       -3.488   3.767   0.040  0.00  0.00    +0.030 A 
ATOM     18  C   LIG    1       -3.618   2.390   0.033  0.00  0.00    +0.010 A 
ATOM     19  C   LIG    1       -2.494   1.588   0.024  0.00  0.00    +0.040 A 
ENDBRANCH  10  14
ENDBRANCH   5   8
BRANCH   1  20
ATOM     20  C   LIG    1        6.086   0.816  -1.397  0.00  0.00    +0.270 C 
BRANCH  20  22
ATOM     21  O   LIG    1        8.200  -0.220  -1.231  0.00  0.00    -0.540 OA
ATOM     22  C   LIG    1        7.586   0.780  -1.535  0.00  0.00    +0.500 C 
ATOM     23  N   LIG    1        8.246   1.861  -1.998  0.00  0.00    -0.680 N 
ATOM     24  H   LIG    1        7.755   2.661  -2.242  0.00  0.00    +0.410 HD
BRANCH  23  25
ATOM     25  C   LIG    1        9.704   1.826  -2.133  0.00  0.00    +0.420 C 
BRANCH  25  26
ATOM     26  C   LIG    1       10.191   3.148  -2.667  0.00  0.00    +0.010 A 
ATOM     27  N   LIG    1       10.351   3.475  -3.941  0.00  0.00    -0.370 NA
ATOM     28  N   LIG    1       10.780   4.691  -3.981  0.00  0.00    -0.180 NA
ATOM     29  N   LIG    1       10.902   5.132  -2.777  0.00  0.00    -0.180 NA
ATOM     30  N   LIG    1       10.547   4.206  -1.953  0.00  0.00    -0.370 NA
ENDBRANCH  25  26
ENDBRANCH  23  25
ENDBRANCH  20  22
ENDBRANCH   1  20
TORSDOF 6
