REMARK  Name = ZINCrg00000Bi7Y9.1
REMARK                            x       y       z     vdW  Elec       q    Type
REMARK                         _______ _______ _______ _____ _____    ______ ____
ROOT
ATOM      1  N   LIG    1        1.274  -4.084  -0.861  0.00  0.00    -0.360 N 
ATOM      2  C   LIG    1        1.259  -4.626   0.503  0.00  0.00    +0.260 C 
ATOM      3  C   LIG    1        2.241  -3.844   1.378  0.00  0.00    +0.070 C 
ATOM      4  C   LIG    1        1.826  -2.370   1.409  0.00  0.00    +0.050 C 
ATOM      5  C   LIG    1        1.773  -1.835  -0.025  0.00  0.00    +0.080 C 
ATOM      6  C   LIG    1        0.809  -2.692  -0.848  0.00  0.00    +0.260 C 
ATOM      7  H   LIG    1        2.215  -4.120  -1.224  0.00  0.00    +0.430 HD
ENDROOT
BRANCH   5   8
ATOM      8  C   LIG    1        1.291  -0.407  -0.013  0.00  0.00    +0.080 A 
ATOM      9  C   LIG    1        2.072   0.695  -0.014  0.00  0.00    -0.070 A 
ATOM     10  C   LIG    1        1.228   1.823   0.000  0.00  0.00    +0.130 A 
ATOM     11  N   LIG    1       -0.017   1.397   0.010  0.00  0.00    -0.260 NA
ATOM     12  N   LIG    1        0.002  -0.004   0.002  0.00  0.00    -0.470 N 
ATOM     13  H   LIG    1       -0.775  -0.584   0.006  0.00  0.00    +0.440 HD
BRANCH  10  14
ATOM     14  C   LIG    1        1.666   3.241   0.004  0.00  0.00    -0.030 A 
ATOM     15  C   LIG    1        3.024   3.553  -0.002  0.00  0.00    +0.040 A 
ATOM     16  C   LIG    1        3.425   4.874  -0.002  0.00  0.00    +0.010 A 
ATOM     17  C   LIG    1        2.482   5.886   0.013  0.00  0.00    +0.030 A 
ATOM     18  C   LIG    1        1.133   5.581   0.024  0.00  0.00    +0.010 A 
ATOM     19  C   LIG    1        0.721   4.264   0.019  0.00  0.00    +0.040 A 
ENDBRANCH  10  14
ENDBRANCH   5   8
BRANCH   1  20
ATOM     20  C   LIG    1        0.390  -4.887  -1.715  0.00  0.00    +0.290 C 
BRANCH  20  22
ATOM     21  O   LIG    1        1.960  -6.587  -1.253  0.00  0.00    -0.540 OA
ATOM     22  C   LIG    1        0.935  -6.287  -1.828  0.00  0.00    +0.500 C 
ATOM     23  N   LIG    1        0.284  -7.207  -2.567  0.00  0.00    -0.680 N 
ATOM     24  H   LIG    1       -0.535  -6.968  -3.027  0.00  0.00    +0.410 HD
BRANCH  23  25
ATOM     25  C   LIG    1        0.815  -8.568  -2.677  0.00  0.00    +0.420 C 
BRANCH  25  26
ATOM     26  C   LIG    1       -0.093  -9.392  -3.553  0.00  0.00    +0.010 A 
ATOM     27  N   LIG    1       -1.129 -10.117  -3.157  0.00  0.00    -0.370 NA
ATOM     28  N   LIG    1       -1.643 -10.666  -4.204  0.00  0.00    -0.180 NA
ATOM     29  N   LIG    1       -0.961 -10.316  -5.239  0.00  0.00    -0.180 NA
ATOM     30  N   LIG    1       -0.005  -9.536  -4.867  0.00  0.00    -0.370 NA
ENDBRANCH  25  26
ENDBRANCH  23  25
ENDBRANCH  20  22
ENDBRANCH   1  20
TORSDOF 6
