REMARK  Name = ZINCrD000000Alax.0
REMARK                            x       y       z     vdW  Elec       q    Type
REMARK                         _______ _______ _______ _____ _____    ______ ____
ROOT
ATOM      1  N   LIG    1        5.964   2.024  -0.357  0.00  0.00    -0.520 NA
ATOM      2  C   LIG    1        5.869   2.799  -1.600  0.00  0.00    +0.180 C 
ATOM      3  C   LIG    1        6.940   3.892  -1.606  0.00  0.00    +0.050 C 
ATOM      4  C   LIG    1        8.323   3.244  -1.490  0.00  0.00    -0.020 C 
ATOM      5  C   LIG    1        8.380   2.404  -0.211  0.00  0.00    +0.060 C 
ATOM      6  C   LIG    1        7.266   1.355  -0.247  0.00  0.00    +0.180 C 
ENDROOT
BRANCH   4   7
ATOM      7  C   LIG    1        9.380   4.317  -1.435  0.00  0.00    +0.520 C 
ATOM      8  N   LIG    1        9.517   5.182  -2.460  0.00  0.00    -0.730 N 
ATOM      9  H   LIG    1        8.935   5.113  -3.233  0.00  0.00    +0.400 HD
ATOM     10  O   LIG    1       10.108   4.403  -0.469  0.00  0.00    -0.540 OA
BRANCH   8  11
ATOM     11  C   LIG    1       10.544   6.225  -2.407  0.00  0.00    +0.320 C 
BRANCH  11  12
ATOM     12  C   LIG    1       10.487   7.051  -3.666  0.00  0.00    -0.110 A 
ATOM     13  C   LIG    1       11.246   6.691  -4.764  0.00  0.00    +0.020 A 
ATOM     14  C   LIG    1       11.191   7.445  -5.920  0.00  0.00    +0.000 A 
ATOM     15  C   LIG    1       10.384   8.567  -5.976  0.00  0.00    +0.010 A 
ATOM     16  C   LIG    1        9.629   8.930  -4.876  0.00  0.00    +0.010 A 
ATOM     17  C   LIG    1        9.681   8.172  -3.721  0.00  0.00    +0.020 A 
ENDBRANCH  11  12
ENDBRANCH   8  11
ENDBRANCH   4   7
BRANCH   1  18
ATOM     18  C   LIG    1        4.864   1.056  -0.254  0.00  0.00    +0.220 C 
BRANCH  18  20
ATOM     19  O   LIG    1        3.542   3.006  -0.117  0.00  0.00    -0.500 OA
ATOM     20  C   LIG    1        3.556   1.794  -0.124  0.00  0.00    +0.510 C 
ATOM     21  N   LIG    1        2.403   1.106  -0.015  0.00  0.00    -0.680 N 
ATOM     22  H   LIG    1        2.419   0.138   0.047  0.00  0.00    +0.410 HD
BRANCH  21  23
ATOM     23  C   LIG    1        1.181   1.788   0.008  0.00  0.00    +0.150 A 
ATOM     24  C   LIG    1        0.059   1.225  -0.586  0.00  0.00    +0.010 A 
ATOM     25  C   LIG    1       -1.145   1.903  -0.567  0.00  0.00    +0.050 A 
ATOM     26  C   LIG    1       -1.236   3.136   0.054  0.00  0.00    -0.050 A 
ATOM     27  C   LIG    1       -0.119   3.699   0.647  0.00  0.00    +0.050 A 
ATOM     28 CL   LIG    1       -2.751   3.983   0.081  0.00  0.00    -0.070 Cl
ATOM     29  C   LIG    1        1.088   3.028   0.625  0.00  0.00    +0.040 A 
ENDBRANCH  21  23
ENDBRANCH  18  20
ENDBRANCH   1  18
TORSDOF 6
