REMARK  Name = ZINCpe00000ME579.1
REMARK                            x       y       z     vdW  Elec       q    Type
REMARK                         _______ _______ _______ _____ _____    ______ ____
ROOT
ATOM      1  C   LIG    1        2.655   0.958   4.966  0.00  0.00    +0.270 C 
ATOM      2  C   LIG    1        2.197   1.167   6.414  0.00  0.00    +0.300 C 
ATOM      3  N   LIG    1        3.377   1.490   7.232  0.00  0.00    -0.620 N 
ATOM      4  C   LIG    1        4.272   2.560   6.762  0.00  0.00    +0.260 C 
ATOM      5  C   LIG    1        4.629   2.283   5.298  0.00  0.00    +0.240 C 
ATOM      6  C   LIG    1        3.630   0.827   8.378  0.00  0.00    +0.510 C 
ATOM      7  O   LIG    1        2.880  -0.051   8.748  0.00  0.00    -0.510 OA
ATOM      8  O   LIG    1        3.427   2.086   4.548  0.00  0.00    -0.380 OA
ENDROOT
BRANCH   1  12
ATOM      9  C   LIG    1        0.000   1.080   2.488  0.00  0.00    +0.200 A 
ATOM     10  N   LIG    1       -0.385   0.116   3.278  0.00  0.00    -0.280 NA
ATOM     11  N   LIG    1        0.479  -0.046   4.217  0.00  0.00    -0.270 NA
ATOM     12  C   LIG    1        1.450   0.814   4.073  0.00  0.00    +0.180 A 
ATOM     13  N   LIG    1        1.174   1.553   2.972  0.00  0.00    -0.560 N 
ATOM     14  H   LIG    1        1.708   2.275   2.604  0.00  0.00    +0.430 HD
BRANCH   9  16
ATOM     15  C   LIG    1       -0.013   1.086   0.008  0.00  0.00    +0.040 C 
ATOM     16  C   LIG    1       -0.729   1.579   1.267  0.00  0.00    +0.020 C 
ATOM     17  C   LIG    1       -2.164   1.050   1.278  0.00  0.00    +0.070 C 
ATOM     18  C   LIG    1       -0.750   3.109   1.275  0.00  0.00    +0.040 C 
ENDBRANCH   9  16
ENDBRANCH   1  12
BRANCH   6  19
ATOM     19  C   LIG    1        4.844   1.177   9.198  0.00  0.00    +0.320 C 
BRANCH  19  20
ATOM     20  N   LIG    1        4.894   0.321  10.386  0.00  0.00    -0.480 N 
ATOM     21  C   LIG    1        5.551  -0.866  10.330  0.00  0.00    +0.290 A 
ATOM     22  C   LIG    1        5.611  -1.675  11.414  0.00  0.00    -0.070 A 
ATOM     23  C   LIG    1        4.991  -1.288  12.610  0.00  0.00    +0.130 A 
ATOM     24  C   LIG    1        4.332  -0.096  12.665  0.00  0.00    -0.090 A 
ATOM     25  C   LIG    1        4.293   0.722  11.522  0.00  0.00    +0.520 A 
ATOM     26  O   LIG    1        3.711   1.794  11.558  0.00  0.00    -0.550 OA
ENDBRANCH  19  20
ENDBRANCH   6  19
TORSDOF 4
