REMARK  Name = ZINCpe00000ME579.2
REMARK                            x       y       z     vdW  Elec       q    Type
REMARK                         _______ _______ _______ _____ _____    ______ ____
ROOT
ATOM      1  C   LIG    1        1.430   1.970  -0.001  0.00  0.00    +0.280 C 
ATOM      2  C   LIG    1       -0.018   1.467   0.010  0.00  0.00    +0.280 C 
ATOM      3  N   LIG    1        0.002  -0.004   0.002  0.00  0.00    -0.610 N 
ATOM      4  C   LIG    1        0.847  -0.690   0.993  0.00  0.00    +0.260 C 
ATOM      5  C   LIG    1        2.252  -0.082   0.934  0.00  0.00    +0.230 C 
ATOM      6  C   LIG    1       -0.732  -0.703  -0.886  0.00  0.00    +0.510 C 
ATOM      7  O   LIG    1       -1.422  -0.119  -1.695  0.00  0.00    -0.520 OA
ATOM      8  O   LIG    1        2.156   1.340   1.057  0.00  0.00    -0.360 OA
ENDROOT
BRANCH   1  11
ATOM      9  C   LIG    1        1.617   5.573  -0.239  0.00  0.00    +0.300 A 
ATOM     10  N   LIG    1        1.682   4.370  -0.749  0.00  0.00    -0.520 NA
ATOM     11  C   LIG    1        1.445   3.464   0.199  0.00  0.00    +0.230 A 
ATOM     12  N   LIG    1        1.234   4.081   1.332  0.00  0.00    -0.280 NA
ATOM     13  N   LIG    1        1.341   5.457   1.071  0.00  0.00    -0.480 N 
ATOM     14  H   LIG    1        1.236   6.179   1.709  0.00  0.00    +0.440 HD
BRANCH   9  16
ATOM     15  C   LIG    1        1.793   8.036  -0.006  0.00  0.00    +0.040 C 
ATOM     16  C   LIG    1        1.823   6.864  -0.989  0.00  0.00    +0.010 C 
ATOM     17  C   LIG    1        0.709   7.037  -2.023  0.00  0.00    +0.060 C 
ATOM     18  C   LIG    1        3.178   6.830  -1.700  0.00  0.00    +0.060 C 
ENDBRANCH   9  16
ENDBRANCH   1  11
BRANCH   6  19
ATOM     19  C   LIG    1       -0.695  -2.209  -0.875  0.00  0.00    +0.320 C 
BRANCH  19  20
ATOM     20  N   LIG    1       -1.571  -2.728  -1.929  0.00  0.00    -0.480 N 
ATOM     21  C   LIG    1       -2.874  -2.986  -1.651  0.00  0.00    +0.300 A 
ATOM     22  C   LIG    1       -3.704  -3.460  -2.610  0.00  0.00    -0.080 A 
ATOM     23  C   LIG    1       -3.216  -3.699  -3.902  0.00  0.00    +0.130 A 
ATOM     24  C   LIG    1       -1.905  -3.443  -4.178  0.00  0.00    -0.090 A 
ATOM     25  C   LIG    1       -1.072  -2.947  -3.161  0.00  0.00    +0.520 A 
ATOM     26  O   LIG    1        0.103  -2.714  -3.394  0.00  0.00    -0.550 OA
ENDBRANCH  19  20
ENDBRANCH   6  19
TORSDOF 4
