REMARK  Name = ZINCpe00000ME579.0
REMARK                            x       y       z     vdW  Elec       q    Type
REMARK                         _______ _______ _______ _____ _____    ______ ____
ROOT
ATOM      1  C   LIG    1       -4.772  -1.468  -3.138  0.00  0.00    +0.270 C 
ATOM      2  C   LIG    1       -3.312  -1.909  -3.024  0.00  0.00    +0.280 C 
ATOM      3  N   LIG    1       -2.853  -1.661  -1.648  0.00  0.00    -0.610 N 
ATOM      4  C   LIG    1       -3.684  -2.161  -0.541  0.00  0.00    +0.260 C 
ATOM      5  C   LIG    1       -5.128  -1.703  -0.776  0.00  0.00    +0.240 C 
ATOM      6  C   LIG    1       -1.708  -0.992  -1.409  0.00  0.00    +0.510 C 
ATOM      7  O   LIG    1       -1.036  -0.588  -2.334  0.00  0.00    -0.510 OA
ATOM      8  O   LIG    1       -5.533  -2.080  -2.094  0.00  0.00    -0.380 OA
ENDROOT
BRANCH   1  13
ATOM      9  C   LIG    1       -5.928  -1.834  -6.550  0.00  0.00    +0.240 A 
ATOM     10  N   LIG    1       -6.231  -3.031  -6.122  0.00  0.00    -0.300 NA
ATOM     11  N   LIG    1       -5.847  -3.089  -4.772  0.00  0.00    -0.460 N 
ATOM     12  H   LIG    1       -5.940  -3.847  -4.173  0.00  0.00    +0.440 HD
ATOM     13  C   LIG    1       -5.324  -1.887  -4.476  0.00  0.00    +0.290 A 
ATOM     14  N   LIG    1       -5.383  -1.142  -5.550  0.00  0.00    -0.520 NA
BRANCH   9  16
ATOM     15  C   LIG    1       -6.811  -2.414  -8.793  0.00  0.00    +0.050 C 
ATOM     16  C   LIG    1       -6.161  -1.318  -7.946  0.00  0.00    +0.030 C 
ATOM     17  C   LIG    1       -4.824  -0.915  -8.572  0.00  0.00    +0.060 C 
ATOM     18  C   LIG    1       -7.086  -0.100  -7.891  0.00  0.00    +0.050 C 
ENDBRANCH   9  16
ENDBRANCH   1  13
BRANCH   6  19
ATOM     19  C   LIG    1       -1.261  -0.746   0.010  0.00  0.00    +0.320 C 
BRANCH  19  20
ATOM     20  N   LIG    1        0.002  -0.004   0.002  0.00  0.00    -0.480 N 
ATOM     21  C   LIG    1        1.178  -0.682  -0.013  0.00  0.00    +0.290 A 
ATOM     22  C   LIG    1        2.358  -0.019  -0.021  0.00  0.00    -0.070 A 
ATOM     23  C   LIG    1        2.373   1.383  -0.013  0.00  0.00    +0.130 A 
ATOM     24  C   LIG    1        1.191   2.062   0.002  0.00  0.00    -0.090 A 
ATOM     25  C   LIG    1       -0.016   1.342   0.009  0.00  0.00    +0.520 A 
ATOM     26  O   LIG    1       -1.082   1.938   0.018  0.00  0.00    -0.550 OA
ENDBRANCH  19  20
ENDBRANCH   6  19
TORSDOF 4
