REMARK  Name = ZINCb80000006lbN.1
REMARK                            x       y       z     vdW  Elec       q    Type
REMARK                         _______ _______ _______ _____ _____    ______ ____
ROOT
ATOM      1  C   LIG    1        2.534   1.352  -0.015  0.00  0.00    +0.180 C 
ATOM      2  C   LIG    1        1.094   1.796   0.001  0.00  0.00    +0.050 A 
ATOM      3  C   LIG    1        0.665   3.056   0.012  0.00  0.00    +0.040 A 
ATOM      4  N   LIG    1       -0.717   3.046   0.025  0.00  0.00    -0.320 N 
ATOM      5  N   LIG    1       -1.873   3.839   0.039  0.00  0.00    -0.370 NA
ATOM      6  C   LIG    1       -2.900   3.018   0.029  0.00  0.00    +0.510 A 
ATOM      7  N   LIG    1       -2.452   1.761   0.021  0.00  0.00    -0.590 NA
ATOM      8  C   LIG    1       -1.131   1.760   0.016  0.00  0.00    +0.450 A 
ATOM      9  C   LIG    1        1.538   4.285   0.010  0.00  0.00    +0.170 C 
ATOM     10  N   LIG    1       -0.011   0.966   0.007  0.00  0.00    -0.570 N 
ATOM     11  H   LIG    1        0.002  -0.004   0.002  0.00  0.00    +0.440 HD
ENDROOT
BRANCH   6  12
ATOM     12  N   LIG    1       -4.242   3.400   0.037  0.00  0.00    -0.820 N 
ATOM     13  H   LIG    1       -4.479   4.340   0.043  0.00  0.00    +0.420 HD
ATOM     14  H   LIG    1       -4.938   2.724   0.036  0.00  0.00    +0.420 HD
ENDBRANCH   6  12
TORSDOF 1
