REMARK  Name = ZINCpk00000Shz1i.1
REMARK                            x       y       z     vdW  Elec       q    Type
REMARK                         _______ _______ _______ _____ _____    ______ ____
ROOT
ATOM      1  N   LIG    1       -0.725   1.568  -1.178  0.00  0.00    -0.720 N 
ATOM      2  H   LIG    1       -1.269   2.369  -1.123  0.00  0.00    +0.400 HD
ATOM      3  C   LIG    1       -0.620   0.902  -2.344  0.00  0.00    +0.710 C 
ATOM      4  N   LIG    1       -1.351   1.289  -3.409  0.00  0.00    -0.650 N 
ATOM      5  C   LIG    1       -2.185   2.499  -3.354  0.00  0.00    +0.320 C 
ATOM      6  C   LIG    1       -1.863   3.363  -4.583  0.00  0.00    +0.250 C 
ATOM      7  N   LIG    1       -2.038   2.561  -5.801  0.00  0.00    -0.380 N 
ATOM      8  C   LIG    1       -1.062   1.465  -5.823  0.00  0.00    +0.250 C 
ATOM      9  H   LIG    1       -2.972   2.179  -5.818  0.00  0.00    +0.420 HD
ATOM     10  C   LIG    1       -1.340   0.511  -4.657  0.00  0.00    +0.340 C 
ATOM     11  O   LIG    1        0.132  -0.049  -2.437  0.00  0.00    -0.570 OA
ENDROOT
BRANCH   1  13
ATOM     12  C   LIG    1        1.418   1.618   0.000  0.00  0.00    +0.050 C 
ATOM     13  C   LIG    1       -0.015   1.083   0.009  0.00  0.00    +0.380 C 
BRANCH  13  14
ATOM     14  C   LIG    1       -0.723   1.564   1.249  0.00  0.00    +0.170 A 
ATOM     15  N   LIG    1       -0.691   0.991   2.434  0.00  0.00    -0.630 NA
ATOM     16  C   LIG    1       -1.455   1.756   3.232  0.00  0.00    +0.480 A 
ATOM     17  O   LIG    1       -1.923   2.761   2.476  0.00  0.00    -0.070 OA
ATOM     18  O   LIG    1       -1.684   1.570   4.415  0.00  0.00    -0.580 OA
ATOM     19  N   LIG    1       -1.502   2.647   1.343  0.00  0.00    -0.490 NA
ENDBRANCH  13  14
ENDBRANCH   1  13
BRANCH   7  20
ATOM     20  C   LIG    1       -1.839   3.416  -6.979  0.00  0.00    +0.250 C 
BRANCH  20  21
ATOM     21  C   LIG    1       -2.933   4.485  -7.024  0.00  0.00    +0.100 C 
BRANCH  21  22
ATOM     22  C   LIG    1       -2.729   5.362  -8.232  0.00  0.00    -0.110 A 
ATOM     23  C   LIG    1       -1.950   6.500  -8.136  0.00  0.00    +0.010 A 
ATOM     24  C   LIG    1       -1.759   7.302  -9.246  0.00  0.00    +0.020 A 
ATOM     25  C   LIG    1       -2.354   6.971 -10.449  0.00  0.00    +0.020 A 
ATOM     26  C   LIG    1       -3.137   5.836 -10.543  0.00  0.00    +0.010 A 
ATOM     27  C   LIG    1       -3.324   5.031  -9.435  0.00  0.00    +0.010 A 
ENDBRANCH  21  22
ENDBRANCH  20  21
ENDBRANCH   7  20
TORSDOF 5
