REMARK  Name = ZINCrD000000CTAR.0
REMARK                            x       y       z     vdW  Elec       q    Type
REMARK                         _______ _______ _______ _____ _____    ______ ____
ROOT
ATOM      1  O   LIG    1        5.472  10.589  -1.468  0.00  0.00    -0.530 OA
ATOM      2  C   LIG    1        4.781   9.643  -1.154  0.00  0.00    +0.520 C 
ATOM      3  N   LIG    1        4.980   8.477  -1.771  0.00  0.00    -0.720 N 
ATOM      4  H   LIG    1        5.715   8.421  -2.402  0.00  0.00    +0.410 HD
ATOM      5  C   LIG    1        4.172   7.284  -1.564  0.00  0.00    +0.270 C 
ATOM      6  C   LIG    1        3.448   7.345  -0.217  0.00  0.00    +0.300 C 
ATOM      7  N   LIG    1        2.836   8.678  -0.085  0.00  0.00    -0.600 N 
ATOM      8  C   LIG    1        1.502   8.828   0.032  0.00  0.00    +0.620 C 
ATOM      9  O   LIG    1        0.782   7.848   0.095  0.00  0.00    -0.510 OA
ATOM     10  C   LIG    1        3.739   9.838  -0.092  0.00  0.00    +0.310 C 
ENDROOT
BRANCH  10  11
ATOM     11  C   LIG    1        4.411   9.964   1.251  0.00  0.00    -0.100 A 
ATOM     12  C   LIG    1        5.265   8.970   1.692  0.00  0.00    +0.010 A 
ATOM     13  C   LIG    1        5.884   9.087   2.922  0.00  0.00    +0.010 A 
ATOM     14  C   LIG    1        5.643  10.193   3.715  0.00  0.00    +0.020 A 
ATOM     15  C   LIG    1        4.785  11.184   3.276  0.00  0.00    +0.010 A 
ATOM     16  C   LIG    1        4.168  11.069   2.044  0.00  0.00    +0.030 A 
ENDBRANCH  10  11
BRANCH   8  17
ATOM     17  C   LIG    1        0.918  10.170   0.085  0.00  0.00    -0.090 A 
ATOM     18  C   LIG    1       -0.428  10.468   0.072  0.00  0.00    +0.070 A 
ATOM     19  C   LIG    1       -0.533  11.861   0.143  0.00  0.00    -0.040 A 
ATOM     20  C   LIG    1        0.738  12.358   0.189  0.00  0.00    +0.060 A 
ATOM     21  O   LIG    1        1.603  11.331   0.156  0.00  0.00    -0.160 OA
BRANCH  20  22
ATOM     22  C   LIG    1        1.101  13.787   0.266  0.00  0.00    -0.040 A 
ATOM     23  C   LIG    1        2.444  14.168   0.313  0.00  0.00    +0.070 A 
ATOM     24  C   LIG    1        2.777  15.504   0.385  0.00  0.00    -0.010 A 
ATOM     25  C   LIG    1        1.782  16.468   0.411  0.00  0.00    +0.110 A 
ATOM     26  C   LIG    1        0.447  16.096   0.371  0.00  0.00    +0.000 A 
ATOM     27  F   LIG    1        2.114  17.776   0.482  0.00  0.00    -0.130 F 
ATOM     28  C   LIG    1        0.102  14.764   0.293  0.00  0.00    +0.080 A 
ENDBRANCH  20  22
ENDBRANCH   8  17
TORSDOF 3
