REMARK  Name = ZINCb70000006lvL.0
REMARK                            x       y       z     vdW  Elec       q    Type
REMARK                         _______ _______ _______ _____ _____    ______ ____
ROOT
ATOM      1  C   LIG    1       -0.017   1.401   0.010  0.00  0.00    -0.140 A 
ATOM      2  C   LIG    1        1.155   2.092   0.002  0.00  0.00    +0.160 A 
ATOM      3  C   LIG    1        2.371   1.383  -0.013  0.00  0.00    +0.160 A 
ATOM      4  N   LIG    1        3.641   1.754  -0.024  0.00  0.00    -0.260 NA
ATOM      5  N   LIG    1        4.393   0.710  -0.037  0.00  0.00    -0.240 NA
ATOM      6  C   LIG    1        3.663  -0.375  -0.035  0.00  0.00    +0.390 A 
ATOM      7  N   LIG    1        2.358   0.010  -0.020  0.00  0.00    -0.400 N 
ATOM      8  C   LIG    1        1.176  -0.670  -0.013  0.00  0.00    +0.280 A 
ATOM      9  C   LIG    1        0.002  -0.004   0.002  0.00  0.00    +0.010 A 
ENDROOT
BRANCH   1  10
ATOM     10  C   LIG    1       -1.331   2.140   0.020  0.00  0.00    +0.350 C 
BRANCH  10  11
ATOM     11  N   LIG    1       -1.823   2.282  -1.357  0.00  0.00    -0.640 N 
ATOM     12  H   LIG    1       -1.954   1.368  -1.763  0.00  0.00    +0.440 HD
ATOM     13  H   LIG    1       -1.151   2.800  -1.903  0.00  0.00    +0.440 HD
ATOM     14  H   LIG    1       -2.703   2.777  -1.350  0.00  0.00    +0.440 HD
ENDBRANCH  10  11
ENDBRANCH   1  10
TORSDOF 2
