REMARK  Name = ZINCpe000000Ug2m.0
REMARK                            x       y       z     vdW  Elec       q    Type
REMARK                         _______ _______ _______ _____ _____    ______ ____
ROOT
ATOM      1  N   LIG    1        2.318   3.899   0.001  0.00  0.00    -0.700 N 
ATOM      2  H   LIG    1        3.164   3.424  -0.010  0.00  0.00    +0.420 HD
ENDROOT
BRANCH   1   9
ATOM      3  C   LIG    1       -2.524   3.525   0.044  0.00  0.00    +0.210 A 
ATOM      4  N   LIG    1       -3.258   2.439   0.046  0.00  0.00    -0.260 NA
ATOM      5  N   LIG    1       -2.505   1.395   0.033  0.00  0.00    -0.250 NA
ATOM      6  C   LIG    1       -1.236   1.772   0.018  0.00  0.00    +0.110 A 
ATOM      7  C   LIG    1       -0.013   1.076   0.008  0.00  0.00    +0.190 A 
ATOM      8  C   LIG    1        1.150   1.780   0.001  0.00  0.00    -0.020 A 
ATOM      9  C   LIG    1        1.123   3.188   0.008  0.00  0.00    +0.420 A 
ATOM     10  N   LIG    1       -0.017   3.839   0.022  0.00  0.00    -0.340 NA
ATOM     11  N   LIG    1       -1.229   3.145   0.030  0.00  0.00    -0.270 N 
BRANCH   3  13
ATOM     12  C   LIG    1       -3.222   5.430  -1.382  0.00  0.00    +0.030 C 
ATOM     13  C   LIG    1       -3.035   4.943   0.057  0.00  0.00    +0.160 C 
ENDBRANCH   3  13
ENDBRANCH   1   9
BRANCH   1  14
ATOM     14  C   LIG    1        2.300   5.364   0.009  0.00  0.00    +0.290 C 
BRANCH  14  15
ATOM     15  C   LIG    1        3.737   5.891  -0.002  0.00  0.00    +0.010 C 
BRANCH  15  16
ATOM     16  C   LIG    1        3.718   7.421   0.006  0.00  0.00    +0.370 C 
BRANCH  16  17
ATOM     17  N   LIG    1        5.093   7.926  -0.004  0.00  0.00    -0.450 N 
ATOM     18  N   LIG    1        5.884   8.206   1.120  0.00  0.00    -0.280 NA
ATOM     19  C   LIG    1        7.025   8.641   0.709  0.00  0.00    +0.280 A 
ATOM     20  C   LIG    1        8.210   9.052   1.552  0.00  0.00    +0.170 C 
ATOM     21  C   LIG    1        9.145   9.899   0.677  0.00  0.00    +0.040 C 
ATOM     22  C   LIG    1        9.408   9.155  -0.636  0.00  0.00    +0.040 C 
ATOM     23  C   LIG    1        8.134   9.162  -1.489  0.00  0.00    +0.300 C 
ATOM     24  N   LIG    1        7.019   8.673  -0.670  0.00  0.00    -0.560 N 
ATOM     25  C   LIG    1        5.836   8.203  -1.098  0.00  0.00    +0.650 A 
ATOM     26  O   LIG    1        5.494   8.056  -2.258  0.00  0.00    -0.550 OA
ENDBRANCH  16  17
ENDBRANCH  15  16
ENDBRANCH  14  15
ENDBRANCH   1  14
TORSDOF 6
