REMARK  Name = ZINCvU0000000Ido.0
REMARK                            x       y       z     vdW  Elec       q    Type
REMARK                         _______ _______ _______ _____ _____    ______ ____
ROOT
ATOM      1  C   LIG    1       -0.306   5.522   0.028  0.00  0.00    +0.140 A 
ATOM      2  C   LIG    1        0.858   6.263   0.194  0.00  0.00    +0.030 A 
ATOM      3  C   LIG    1        2.090   5.638   0.175  0.00  0.00    +0.040 A 
ATOM      4  C   LIG    1        2.174   4.273  -0.009  0.00  0.00    +0.020 A 
ATOM      5  C   LIG    1        1.010   3.518  -0.176  0.00  0.00    -0.060 A 
ATOM      6  C   LIG    1       -0.233   4.151  -0.162  0.00  0.00    +0.110 A 
ENDROOT
BRANCH   5   7
ATOM      7  C   LIG    1        1.097   2.056  -0.373  0.00  0.00    +0.490 A 
ATOM      8  N   LIG    1       -0.013   1.370  -0.529  0.00  0.00    -0.560 NA
ATOM      9  C   LIG    1        0.006   0.044  -0.711  0.00  0.00    +0.550 A 
ATOM     10  C   LIG    1        1.306  -0.658  -0.737  0.00  0.00    -0.220 A 
ATOM     11  C   LIG    1        2.448   0.107  -0.569  0.00  0.00    +0.060 A 
ATOM     12  S   LIG    1        3.870  -0.924  -0.634  0.00  0.00    +0.170 S 
ATOM     13  C   LIG    1        2.896  -2.360  -0.885  0.00  0.00    -0.200 A 
ATOM     14  C   LIG    1        3.454  -3.751  -1.047  0.00  0.00    +0.150 C 
ATOM     15  C   LIG    1        1.610  -2.064  -0.915  0.00  0.00    -0.030 A 
ATOM     16  C   LIG    1        0.541  -3.107  -1.116  0.00  0.00    +0.130 C 
ATOM     17  O   LIG    1       -1.036  -0.577  -0.854  0.00  0.00    -0.480 OA
ATOM     18  N   LIG    1        2.320   1.468  -0.389  0.00  0.00    -0.590 N 
ATOM     19  H   LIG    1        3.114   2.012  -0.270  0.00  0.00    +0.420 HD
ENDBRANCH   5   7
BRANCH   1  21
ATOM     20  C   LIG    1       -2.628   5.522   0.548  0.00  0.00    +0.530 C 
ATOM     21  N   LIG    1       -1.551   6.160   0.048  0.00  0.00    -0.670 N 
ATOM     22  H   LIG    1       -1.639   7.062  -0.299  0.00  0.00    +0.420 HD
ATOM     23  O   LIG    1       -2.500   4.434   1.067  0.00  0.00    -0.480 OA
BRANCH  20  24
ATOM     24  C   LIG    1       -3.990   6.161   0.461  0.00  0.00    +0.080 C 
BRANCH  24  25
ATOM     25  S   LIG    1       -5.221   5.064   1.216  0.00  0.00    -0.020 S 
BRANCH  25  29
ATOM     26  C   LIG    1       -9.086   7.376   0.722  0.00  0.00    +0.120 A 
ATOM     27  C   LIG    1       -9.096   6.135   1.340  0.00  0.00    +0.010 A 
ATOM     28  C   LIG    1       -7.918   5.429   1.492  0.00  0.00    +0.080 A 
ATOM     29  C   LIG    1       -6.724   5.963   1.024  0.00  0.00    -0.140 A 
ATOM     30  C   LIG    1       -6.715   7.209   0.409  0.00  0.00    +0.020 A 
ATOM     31  C   LIG    1       -7.894   7.910   0.254  0.00  0.00    -0.060 A 
BRANCH  26  33
ATOM     32  C   LIG    1      -10.163   9.342  -0.073  0.00  0.00    +0.250 C 
ATOM     33  O   LIG    1      -10.246   8.071   0.574  0.00  0.00    -0.320 OA
ENDBRANCH  26  33
ENDBRANCH  25  29
ENDBRANCH  24  25
ENDBRANCH  20  24
ENDBRANCH   1  21
TORSDOF 6
