REMARK  Name = ZINCvU0000000DCW.0
REMARK                            x       y       z     vdW  Elec       q    Type
REMARK                         _______ _______ _______ _____ _____    ______ ____
ROOT
ATOM      1  C   LIG    1        3.084  -1.430  -5.433  0.00  0.00    -0.380 C 
ATOM      2  C   LIG    1        3.065  -0.062  -5.426  0.00  0.00    +0.310 C 
ATOM      3  N   LIG    1        2.505   0.626  -4.445  0.00  0.00    -0.590 NA
ATOM      4  C   LIG    1        1.913   0.089  -3.386  0.00  0.00    +0.610 A 
ATOM      5  N   LIG    1        1.306   0.646  -2.330  0.00  0.00    -0.510 NA
ATOM      6  C   LIG    1        0.859  -0.290  -1.510  0.00  0.00    +0.360 A 
ATOM      7  N   LIG    1        1.166  -1.518  -2.031  0.00  0.00    -0.450 N 
ATOM      8  H   LIG    1        0.958  -2.382  -1.645  0.00  0.00    +0.460 HD
ATOM      9  N   LIG    1        1.841  -1.275  -3.231  0.00  0.00    -0.430 N 
ATOM     10  C   LIG    1        3.702   0.684  -6.570  0.00  0.00    +0.150 C 
ATOM     11  C   LIG    1        2.430  -2.139  -4.260  0.00  0.00    +0.380 C 
ENDROOT
BRANCH  11  12
ATOM     12  C   LIG    1        1.345  -3.036  -4.799  0.00  0.00    -0.120 A 
ATOM     13  C   LIG    1        0.074  -2.534  -5.008  0.00  0.00    +0.030 A 
ATOM     14  C   LIG    1       -0.921  -3.354  -5.506  0.00  0.00    +0.020 A 
ATOM     15  C   LIG    1       -0.647  -4.681  -5.786  0.00  0.00    -0.030 A 
ATOM     16  C   LIG    1        0.624  -5.184  -5.572  0.00  0.00    +0.030 A 
ATOM     17 CL   LIG    1       -1.897  -5.713  -6.406  0.00  0.00    -0.070 Cl
ATOM     18  C   LIG    1        1.619  -4.362  -5.078  0.00  0.00    +0.080 A 
ENDBRANCH  11  12
BRANCH   1  19
ATOM     19  C   LIG    1        3.683  -2.148  -6.480  0.00  0.00    +0.540 C 
ATOM     20  O   LIG    1        4.200  -1.552  -7.408  0.00  0.00    -0.530 OA
BRANCH  19  21
ATOM     21  O   LIG    1        3.686  -3.498  -6.458  0.00  0.00    -0.360 OA
BRANCH  21  23
ATOM     22  C   LIG    1        4.217  -5.678  -7.357  0.00  0.00    +0.050 C 
ATOM     23  C   LIG    1        4.313  -4.164  -7.556  0.00  0.00    +0.180 C 
ENDBRANCH  21  23
ENDBRANCH  19  21
ENDBRANCH   1  19
BRANCH   6  24
ATOM     24  S   LIG    1        0.002  -0.004   0.002  0.00  0.00    +0.070 S 
BRANCH  24  25
ATOM     25  C   LIG    1       -0.022   1.806   0.012  0.00  0.00    +0.170 C 
BRANCH  25  26
ATOM     26  C   LIG    1       -0.728   2.292   1.252  0.00  0.00    -0.090 A 
ATOM     27  C   LIG    1       -2.093   2.509   1.230  0.00  0.00    +0.060 A 
ATOM     28  C   LIG    1       -2.741   2.950   2.368  0.00  0.00    +0.030 A 
ATOM     29  C   LIG    1       -2.022   3.185   3.526  0.00  0.00    -0.020 A 
ATOM     30  C   LIG    1       -0.655   2.972   3.546  0.00  0.00    +0.030 A 
ATOM     31 CL   LIG    1       -2.834   3.746   4.954  0.00  0.00    -0.060 Cl
ATOM     32  C   LIG    1       -0.009   2.526   2.409  0.00  0.00    +0.060 A 
ENDBRANCH  25  26
ENDBRANCH  24  25
ENDBRANCH   6  24
TORSDOF 7
