REMARK  Name = ZINCqH0000004w0i.0
REMARK                            x       y       z     vdW  Elec       q    Type
REMARK                         _______ _______ _______ _____ _____    ______ ____
ROOT
ATOM      1  C   LIG    1       -0.176  -5.288   3.425  0.00  0.00    +0.170 C 
ATOM      2  N   LIG    1       -1.591  -4.890   3.322  0.00  0.00    -0.710 N 
ATOM      3  H   LIG    1       -2.268  -4.972   4.012  0.00  0.00    +0.440 HD
ATOM      4  C   LIG    1       -1.761  -4.390   2.085  0.00  0.00    +0.700 C 
ATOM      5  N   LIG    1       -0.633  -4.412   1.365  0.00  0.00    -0.570 N 
ATOM      6  O   LIG    1       -2.821  -3.966   1.667  0.00  0.00    -0.530 OA
ATOM      7  C   LIG    1        0.393  -4.936   2.064  0.00  0.00    +0.540 C 
ATOM      8  O   LIG    1        1.533  -5.093   1.685  0.00  0.00    -0.440 OA
ENDROOT
BRANCH   1   9
ATOM      9  C   LIG    1        0.516  -4.511   4.514  0.00  0.00    -0.110 A 
ATOM     10  C   LIG    1        1.575  -5.075   5.199  0.00  0.00    +0.080 A 
ATOM     11  C   LIG    1        2.214  -4.361   6.195  0.00  0.00    -0.010 A 
ATOM     12  C   LIG    1        1.785  -3.083   6.514  0.00  0.00    +0.110 A 
ATOM     13  C   LIG    1        0.721  -2.521   5.831  0.00  0.00    -0.010 A 
ATOM     14  F   LIG    1        2.406  -2.386   7.491  0.00  0.00    -0.130 F 
ATOM     15  C   LIG    1        0.087  -3.235   4.831  0.00  0.00    +0.060 A 
ENDBRANCH   1   9
BRANCH   1  17
ATOM     16  C   LIG    1       -0.721  -7.558   2.534  0.00  0.00    +0.020 C 
ATOM     17  C   LIG    1       -0.058  -6.792   3.680  0.00  0.00    +0.060 C 
ENDBRANCH   1  17
BRANCH   5  18
ATOM     18  C   LIG    1       -0.528  -3.930  -0.015  0.00  0.00    +0.460 C 
BRANCH  18  19
ATOM     19  C   LIG    1       -0.161  -2.468  -0.010  0.00  0.00    +0.050 A 
ATOM     20  N   LIG    1        1.040  -2.027  -0.019  0.00  0.00    -0.440 NA
ATOM     21  C   LIG    1        1.220  -0.693  -0.013  0.00  0.00    +0.080 A 
ATOM     22  C   LIG    1        2.415   0.054  -0.021  0.00  0.00    +0.080 A 
ATOM     23  C   LIG    1        2.378   1.415  -0.014  0.00  0.00    +0.030 A 
ATOM     24  C   LIG    1        1.167   2.092   0.002  0.00  0.00    +0.050 A 
ATOM     25  C   LIG    1       -0.017   1.389   0.010  0.00  0.00    +0.060 A 
ATOM     26  C   LIG    1        0.002  -0.004   0.002  0.00  0.00    -0.180 A 
ATOM     27  S   LIG    1       -1.296  -1.194   0.008  0.00  0.00    +0.140 S 
ENDBRANCH  18  19
ENDBRANCH   5  18
TORSDOF 4
