REMARK  Name = ZINCqH0000038mZc.0
REMARK                            x       y       z     vdW  Elec       q    Type
REMARK                         _______ _______ _______ _____ _____    ______ ____
ROOT
ATOM      1  C   LIG    1        2.357   0.110   0.158  0.00  0.00    +0.290 A 
ATOM      2  N   LIG    1        2.267   1.425   0.249  0.00  0.00    -0.500 NA
ATOM      3  C   LIG    1        1.100   2.040   0.292  0.00  0.00    +0.270 A 
ATOM      4  C   LIG    1       -0.081   1.326   0.244  0.00  0.00    -0.040 A 
ATOM      5  C   LIG    1       -0.036  -0.058   0.148  0.00  0.00    +0.110 A 
ATOM      6  C   LIG    1        1.207  -0.677   0.104  0.00  0.00    +0.110 A 
ENDROOT
BRANCH   6   7
ATOM      7  N   LIG    1        1.303  -2.072   0.008  0.00  0.00    -0.670 N 
ATOM      8  H   LIG    1        2.096  -2.527   0.333  0.00  0.00    +0.410 HD
ATOM      9  C   LIG    1        0.294  -2.782  -0.535  0.00  0.00    +0.720 C 
ATOM     10  N   LIG    1        0.417  -4.114  -0.695  0.00  0.00    -0.620 N 
ATOM     11  C   LIG    1        1.596  -4.919  -0.327  0.00  0.00    +0.220 C 
ATOM     12  C   LIG    1        1.044  -6.353  -0.113  0.00  0.00    +0.180 C 
ATOM     13  C   LIG    1       -0.032  -6.439  -1.228  0.00  0.00    -0.070 C 
ATOM     14  C   LIG    1        0.607  -6.809  -2.569  0.00  0.00    +0.050 C 
ATOM     15  C   LIG    1       -1.122  -7.444  -0.851  0.00  0.00    +0.060 C 
ATOM     16  C   LIG    1       -0.601  -5.005  -1.271  0.00  0.00    +0.280 C 
ATOM     17  O   LIG    1       -0.727  -2.219  -0.881  0.00  0.00    -0.570 OA
BRANCH  12  18
ATOM     18  O   LIG    1        0.453  -6.491   1.181  0.00  0.00    -0.550 OA
ATOM     19  H   LIG    1        1.087  -6.443   1.909  0.00  0.00    +0.380 HD
ENDBRANCH  12  18
ENDBRANCH   6   7
BRANCH   1  20
ATOM     20  O   LIG    1        3.579  -0.480   0.116  0.00  0.00    -0.250 OA
BRANCH  20  26
ATOM     21  C   LIG    1        6.702   2.771  -1.756  0.00  0.00    +0.090 C 
ATOM     22  C   LIG    1        6.226   1.906  -0.617  0.00  0.00    -0.080 A 
ATOM     23  C   LIG    1        6.905   1.915   0.588  0.00  0.00    +0.020 A 
ATOM     24  C   LIG    1        6.470   1.123   1.635  0.00  0.00    +0.020 A 
ATOM     25  C   LIG    1        5.357   0.320   1.479  0.00  0.00    +0.010 A 
ATOM     26  C   LIG    1        4.674   0.309   0.271  0.00  0.00    +0.100 A 
ATOM     27  C   LIG    1        5.115   1.101  -0.779  0.00  0.00    -0.070 A 
ATOM     28  C   LIG    1        4.380   1.087  -2.095  0.00  0.00    +0.090 C 
ENDBRANCH  20  26
ENDBRANCH   1  20
TORSDOF 4
