REMARK  Name = ZINCnE000001SUVE.0
REMARK                            x       y       z     vdW  Elec       q    Type
REMARK                         _______ _______ _______ _____ _____    ______ ____
ROOT
ATOM      1  O   LIG    1       -0.400   4.121   0.637  0.00  0.00    -0.550 OA
ATOM      2  C   LIG    1       -0.843   3.320   1.438  0.00  0.00    +0.560 C 
ATOM      3  N   LIG    1       -0.704   1.998   1.216  0.00  0.00    -0.710 N 
ATOM      4  H   LIG    1       -1.058   1.359   1.854  0.00  0.00    +0.400 HD
ENDROOT
BRANCH   2   5
ATOM      5  C   LIG    1       -1.534   3.796   2.652  0.00  0.00    -0.130 A 
ATOM      6  C   LIG    1       -2.051   2.872   3.571  0.00  0.00    +0.070 A 
ATOM      7  C   LIG    1       -2.684   3.305   4.695  0.00  0.00    +0.040 A 
ATOM      8  C   LIG    1       -2.839   4.675   4.944  0.00  0.00    -0.120 A 
ATOM      9  S   LIG    1       -3.608   5.509   6.290  0.00  0.00    +0.080 S 
ATOM     10  C   LIG    1       -3.242   7.083   5.612  0.00  0.00    -0.030 A 
ATOM     11  C   LIG    1       -2.595   6.978   4.470  0.00  0.00    +0.040 A 
ATOM     12  C   LIG    1       -2.336   5.614   4.036  0.00  0.00    -0.090 A 
ATOM     13  C   LIG    1       -1.677   5.157   2.879  0.00  0.00    +0.120 A 
ENDBRANCH   2   5
BRANCH   3  14
ATOM     14  C   LIG    1       -0.019   1.526   0.010  0.00  0.00    +0.290 C 
BRANCH  14  15
ATOM     15  C   LIG    1        0.002  -0.004   0.002  0.00  0.00    -0.060 C 
BRANCH  15  16
ATOM     16  C   LIG    1        0.597  -0.491  -1.294  0.00  0.00    -0.040 A 
ATOM     17  C   LIG    1        1.886  -0.133  -1.640  0.00  0.00    +0.050 A 
ATOM     18  C   LIG    1        2.434  -0.584  -2.827  0.00  0.00    -0.010 A 
ATOM     19  C   LIG    1        1.688  -1.385  -3.672  0.00  0.00    -0.030 A 
ATOM     20  C   LIG    1        0.397  -1.738  -3.328  0.00  0.00    -0.020 A 
ATOM     21  C   LIG    1       -0.149  -1.292  -2.139  0.00  0.00    +0.000 A 
ENDBRANCH  15  16
BRANCH  15  22
ATOM     22  C   LIG    1        0.835  -0.501   1.155  0.00  0.00    +0.510 C 
ATOM     23  O   LIG    1        2.011  -0.191   1.236  0.00  0.00    -0.680 OA
ATOM     24  O   LIG    1        0.332  -1.214   2.007  0.00  0.00    -0.690 OA
ENDBRANCH  15  22
ENDBRANCH  14  15
ENDBRANCH   3  14
TORSDOF 5
