REMARK  Name = ZINCvU000000083K.0
REMARK                            x       y       z     vdW  Elec       q    Type
REMARK                         _______ _______ _______ _____ _____    ______ ____
ROOT
ATOM      1  C   LIG    1        3.513   3.193   0.023  0.00  0.00    +0.220 A 
ATOM      2  C   LIG    1        2.288   3.835  -0.078  0.00  0.00    -0.070 A 
ATOM      3  C   LIG    1        1.120   3.098  -0.089  0.00  0.00    +0.130 A 
ATOM      4  C   LIG    1        1.173   1.714   0.013  0.00  0.00    +0.090 A 
ATOM      5  C   LIG    1        2.400   1.071   0.113  0.00  0.00    +0.140 A 
ATOM      6  C   LIG    1        3.567   1.810   0.118  0.00  0.00    -0.690 A 
ENDROOT
BRANCH   4   7
ATOM      7  N   LIG    1       -0.011   0.966   0.007  0.00  0.00    -0.660 N 
ATOM      8  H   LIG    1       -0.034   0.097  -0.423  0.00  0.00    +0.420 HD
ATOM      9  C   LIG    1       -1.121   1.456   0.595  0.00  0.00    +0.610 C 
ATOM     10  O   LIG    1       -1.116   2.580   1.061  0.00  0.00    -0.490 OA
BRANCH   9  11
ATOM     11  C   LIG    1       -2.335   0.632   0.674  0.00  0.00    -0.040 A 
ATOM     12  C   LIG    1       -3.507   1.020   1.241  0.00  0.00    -0.060 A 
ATOM     13  C   LIG    1       -4.424  -0.109   1.089  0.00  0.00    -0.130 A 
ATOM     14  C   LIG    1       -5.752  -0.340   1.453  0.00  0.00    +0.090 A 
ATOM     15  C   LIG    1       -6.337  -1.539   1.157  0.00  0.00    +0.020 A 
ATOM     16  C   LIG    1       -5.621  -2.528   0.498  0.00  0.00    +0.080 A 
ATOM     17  C   LIG    1       -4.308  -2.320   0.130  0.00  0.00    -0.030 A 
ATOM     18 CL   LIG    1       -3.427  -3.568  -0.695  0.00  0.00    -0.050 Cl
ATOM     19  C   LIG    1       -3.691  -1.107   0.420  0.00  0.00    +0.080 A 
ATOM     20  C   LIG    1       -3.802   2.345   1.895  0.00  0.00    +0.140 C 
ATOM     21  O   LIG    1       -2.456  -0.621   0.189  0.00  0.00    -0.170 OA
ENDBRANCH   9  11
ENDBRANCH   4   7
BRANCH   6  22
ATOM     22  S   LIG    1        5.124   0.995   0.246  0.00  0.00    +2.700 S 
ATOM     23  O   LIG    1        4.845  -0.397   0.293  0.00  0.00    -0.960 OA
ATOM     24  O   LIG    1        5.851   1.677   1.260  0.00  0.00    -0.940 OA
BRANCH  22  25
ATOM     25  N   LIG    1        5.935   1.263  -1.172  0.00  0.00    -0.990 NA
BRANCH  25  26
ATOM     26  C   LIG    1        5.784   0.329  -2.290  0.00  0.00    +0.290 C 
ATOM     27  C   LIG    1        4.699   0.841  -3.239  0.00  0.00    +0.000 C 
ENDBRANCH  25  26
BRANCH  25  28
ATOM     28  C   LIG    1        6.805   2.435  -1.308  0.00  0.00    +0.290 C 
ATOM     29  C   LIG    1        8.247   2.040  -0.983  0.00  0.00    +0.020 C 
ENDBRANCH  25  28
ENDBRANCH  22  25
ENDBRANCH   6  22
BRANCH   1  30
ATOM     30  O   LIG    1        4.662   3.919   0.027  0.00  0.00    -0.310 OA
BRANCH  30  32
ATOM     31  C   LIG    1        5.922   5.980  -0.053  0.00  0.00    +0.060 C 
ATOM     32  C   LIG    1        4.533   5.339  -0.074  0.00  0.00    +0.190 C 
ENDBRANCH  30  32
ENDBRANCH   1  30
TORSDOF 8
