REMARK  Name = ZINCpe00000MDM1i.1
REMARK                            x       y       z     vdW  Elec       q    Type
REMARK                         _______ _______ _______ _____ _____    ______ ____
ROOT
ATOM      1  C   LIG    1       -0.534   3.857   2.165  0.00  0.00    +0.530 C 
ATOM      2  N   LIG    1       -0.389   3.163   1.019  0.00  0.00    -0.620 N 
ATOM      3  C   LIG    1        0.341   1.885   0.995  0.00  0.00    +0.250 C 
ATOM      4  C   LIG    1        1.377   1.941  -0.133  0.00  0.00    +0.230 C 
ATOM      5  O   LIG    1        0.731   2.327  -1.348  0.00  0.00    -0.360 OA
ATOM      6  C   LIG    1        0.145   3.631  -1.312  0.00  0.00    +0.260 C 
ATOM      7  C   LIG    1       -0.955   3.661  -0.245  0.00  0.00    +0.300 C 
ATOM      8  O   LIG    1       -1.063   4.948   2.151  0.00  0.00    -0.530 OA
ENDROOT
BRANCH   1  13
ATOM      9  C   LIG    1        0.348   2.217   7.576  0.00  0.00    +0.280 C 
ATOM     10  N   LIG    1        0.128   2.652   6.195  0.00  0.00    -0.610 N 
ATOM     11  C   LIG    1        0.867   3.815   5.719  0.00  0.00    +0.260 C 
ATOM     12  C   LIG    1        0.197   4.404   4.477  0.00  0.00    +0.060 C 
ATOM     13  C   LIG    1       -0.040   3.276   3.465  0.00  0.00    -0.010 C 
ATOM     14  C   LIG    1       -1.092   2.325   4.038  0.00  0.00    +0.100 C 
ATOM     15  C   LIG    1       -0.736   1.960   5.451  0.00  0.00    +0.520 C 
ATOM     16  O   LIG    1       -1.263   0.984   5.942  0.00  0.00    -0.550 OA
ENDBRANCH   1  13
BRANCH   6  17
ATOM     17  C   LIG    1       -0.450   3.953  -2.658  0.00  0.00    +0.170 A 
ATOM     18  N   LIG    1       -1.454   3.343  -3.226  0.00  0.00    -0.260 NA
ATOM     19  N   LIG    1       -1.697   3.879  -4.369  0.00  0.00    -0.280 NA
ATOM     20  C   LIG    1       -0.858   4.856  -4.583  0.00  0.00    +0.200 A 
ATOM     21  N   LIG    1       -0.046   4.934  -3.501  0.00  0.00    -0.570 N 
ATOM     22  H   LIG    1        0.679   5.563  -3.359  0.00  0.00    +0.430 HD
BRANCH  20  23
ATOM     23  C   LIG    1       -0.805   5.737  -5.804  0.00  0.00    +0.020 C 
ATOM     24  C   LIG    1       -0.646   7.197  -5.374  0.00  0.00    +0.040 C 
ATOM     25  C   LIG    1       -2.101   5.580  -6.603  0.00  0.00    +0.070 C 
ATOM     26  C   LIG    1        0.384   5.330  -6.676  0.00  0.00    +0.050 C 
ENDBRANCH  20  23
ENDBRANCH   6  17
TORSDOF 3
