REMARK  Name = ZINCpe00000MDM1i.2
REMARK                            x       y       z     vdW  Elec       q    Type
REMARK                         _______ _______ _______ _____ _____    ______ ____
ROOT
ATOM      1  C   LIG    1        0.123  -2.804   2.181  0.00  0.00    +0.530 C 
ATOM      2  N   LIG    1       -0.511  -1.990   1.314  0.00  0.00    -0.610 N 
ATOM      3  C   LIG    1       -1.373  -2.537   0.254  0.00  0.00    +0.260 C 
ATOM      4  C   LIG    1       -0.955  -1.910  -1.081  0.00  0.00    +0.230 C 
ATOM      5  O   LIG    1       -0.938  -0.487  -0.948  0.00  0.00    -0.360 OA
ATOM      6  C   LIG    1        0.009   0.000   0.007  0.00  0.00    +0.270 C 
ATOM      7  C   LIG    1       -0.360  -0.529   1.398  0.00  0.00    +0.280 C 
ATOM      8  O   LIG    1        0.905  -2.342   2.985  0.00  0.00    -0.520 OA
ENDROOT
BRANCH   1  13
ATOM      9  C   LIG    1        0.268  -8.513   2.545  0.00  0.00    +0.280 C 
ATOM     10  N   LIG    1        0.241  -7.052   2.438  0.00  0.00    -0.610 N 
ATOM     11  C   LIG    1        0.548  -6.456   1.143  0.00  0.00    +0.280 C 
ATOM     12  C   LIG    1        0.934  -4.986   1.309  0.00  0.00    +0.050 C 
ATOM     13  C   LIG    1       -0.140  -4.288   2.152  0.00  0.00    -0.010 C 
ATOM     14  C   LIG    1       -0.080  -4.850   3.574  0.00  0.00    +0.110 C 
ATOM     15  C   LIG    1       -0.063  -6.351   3.530  0.00  0.00    +0.520 C 
ATOM     16  O   LIG    1       -0.340  -6.958   4.543  0.00  0.00    -0.550 OA
ENDBRANCH   1  13
BRANCH   6  17
ATOM     17  C   LIG    1       -0.018   1.507   0.018  0.00  0.00    +0.230 A 
ATOM     18  N   LIG    1       -1.095   2.248   0.020  0.00  0.00    -0.280 NA
ATOM     19  N   LIG    1       -0.667   3.585   0.035  0.00  0.00    -0.480 N 
ATOM     20  H   LIG    1       -1.229   4.376   0.042  0.00  0.00    +0.440 HD
ATOM     21  C   LIG    1        0.677   3.553   0.032  0.00  0.00    +0.300 A 
ATOM     22  N   LIG    1        1.053   2.300   0.022  0.00  0.00    -0.520 NA
BRANCH  21  23
ATOM     23  C   LIG    1        1.591   4.751   0.039  0.00  0.00    +0.010 C 
ATOM     24  C   LIG    1        2.383   4.796  -1.270  0.00  0.00    +0.060 C 
ATOM     25  C   LIG    1        2.561   4.646   1.218  0.00  0.00    +0.060 C 
ATOM     26  C   LIG    1        0.759   6.027   0.176  0.00  0.00    +0.040 C 
ENDBRANCH  21  23
ENDBRANCH   6  17
TORSDOF 3
