REMARK  Name = ZINCpe000000ZHih.0
REMARK                            x       y       z     vdW  Elec       q    Type
REMARK                         _______ _______ _______ _____ _____    ______ ____
ROOT
ATOM      1  C   LIG    1       -1.170  -2.181   0.001  0.00  0.00    +0.290 C 
ENDROOT
BRANCH   1   2
ATOM      2  N   LIG    1       -1.192  -0.716   0.009  0.00  0.00    -0.710 N 
ATOM      3  H   LIG    1       -2.038  -0.244   0.019  0.00  0.00    +0.410 HD
BRANCH   2   4
ATOM      4  C   LIG    1        0.002  -0.004   0.002  0.00  0.00    +0.390 A 
ATOM      5  C   LIG    1        1.218  -0.682  -0.013  0.00  0.00    +0.150 A 
ATOM      6  N   LIG    1        2.352  -0.005  -0.020  0.00  0.00    -0.380 NA
ATOM      7  C   LIG    1        2.336   1.316  -0.013  0.00  0.00    +0.180 A 
ATOM      8  C   LIG    1        1.126   1.998   0.002  0.00  0.00    +0.380 A 
ATOM      9  N   LIG    1       -0.016   1.323   0.009  0.00  0.00    -0.530 NA
BRANCH   8  10
ATOM     10  N   LIG    1        1.111   3.397   0.009  0.00  0.00    -0.330 N 
ATOM     11  C   LIG    1        0.005   4.185   0.024  0.00  0.00    +0.260 A 
ATOM     12  C   LIG    1        0.420   5.473   0.026  0.00  0.00    -0.100 A 
ATOM     13  C   LIG    1        1.820   5.475   0.013  0.00  0.00    +0.270 A 
ATOM     14  N   LIG    1        2.234   4.234   0.009  0.00  0.00    -0.280 NA
ENDBRANCH   8  10
ENDBRANCH   2   4
ENDBRANCH   1   2
BRANCH   1  15
ATOM     15  C   LIG    1       -2.605  -2.712   0.011  0.00  0.00    +0.010 C 
BRANCH  15  16
ATOM     16  C   LIG    1       -2.583  -4.242   0.003  0.00  0.00    +0.370 C 
BRANCH  16  19
ATOM     17  O   LIG    1       -4.400  -4.856  -2.235  0.00  0.00    -0.550 OA
ATOM     18  C   LIG    1       -4.719  -5.017  -1.070  0.00  0.00    +0.650 A 
ATOM     19  N   LIG    1       -3.957  -4.750   0.013  0.00  0.00    -0.460 N 
ATOM     20  N   LIG    1       -4.726  -5.044   1.149  0.00  0.00    -0.280 NA
ATOM     21  C   LIG    1       -5.874  -5.477   0.754  0.00  0.00    +0.280 A 
ATOM     22  C   LIG    1       -7.042  -5.900   1.615  0.00  0.00    +0.170 C 
ATOM     23  C   LIG    1       -7.991  -6.739   0.748  0.00  0.00    +0.040 C 
ATOM     24  C   LIG    1       -8.281  -5.982  -0.552  0.00  0.00    +0.040 C 
ATOM     25  C   LIG    1       -7.023  -5.977  -1.428  0.00  0.00    +0.300 C 
ATOM     26  N   LIG    1       -5.894  -5.494  -0.625  0.00  0.00    -0.560 N 
ENDBRANCH  16  19
ENDBRANCH  15  16
ENDBRANCH   1  15
TORSDOF 6
