REMARK  Name = ZINCkj000005m4RE.0
REMARK                            x       y       z     vdW  Elec       q    Type
REMARK                         _______ _______ _______ _____ _____    ______ ____
ROOT
ATOM      1  O   LIG    1        5.333   1.429  -2.729  0.00  0.00    -0.510 OA
ATOM      2  C   LIG    1        5.300   0.401  -2.086  0.00  0.00    +0.520 C 
ATOM      3  N   LIG    1        4.163   0.032  -1.463  0.00  0.00    -0.610 N 
ATOM      4  C   LIG    1        4.068  -1.260  -0.764  0.00  0.00    +0.240 C 
ATOM      5  C   LIG    1        3.524  -1.007   0.646  0.00  0.00    +0.230 C 
ATOM      6  O   LIG    1        2.319  -0.243   0.556  0.00  0.00    -0.360 OA
ATOM      7  C   LIG    1        2.490   1.055  -0.017  0.00  0.00    +0.210 C 
ATOM      8  C   LIG    1        2.981   0.908  -1.462  0.00  0.00    +0.290 C 
ENDROOT
BRANCH   7   9
ATOM      9  C   LIG    1        1.174   1.789  -0.005  0.00  0.00    -0.130 A 
ATOM     10  C   LIG    1       -0.012   1.080   0.007  0.00  0.00    +0.080 A 
ATOM     11  C   LIG    1       -1.220   1.752   0.013  0.00  0.00    +0.010 A 
ATOM     12  C   LIG    1       -1.243   3.135   0.017  0.00  0.00    +0.060 A 
ATOM     13  C   LIG    1       -0.058   3.846   0.004  0.00  0.00    -0.010 A 
ATOM     14  C   LIG    1        1.152   3.173  -0.007  0.00  0.00    +0.110 A 
ATOM     15  F   LIG    1        2.311   3.867  -0.020  0.00  0.00    -0.140 F 
ENDBRANCH   7   9
BRANCH   2  16
ATOM     16  C   LIG    1        6.530  -0.464  -1.984  0.00  0.00    -0.010 C 
ATOM     17  C   LIG    1        7.455  -0.226  -3.196  0.00  0.00    +0.100 C 
ATOM     18  C   LIG    1        8.775   0.304  -2.596  0.00  0.00    +0.280 C 
ATOM     19  N   LIG    1        8.780  -0.202  -1.199  0.00  0.00    -0.520 N 
ATOM     20  H   LIG    1        9.392   0.357  -0.624  0.00  0.00    +0.440 HD
ATOM     21  H   LIG    1        9.061  -1.171  -1.175  0.00  0.00    +0.430 HD
ATOM     22  C   LIG    1        7.370  -0.058  -0.754  0.00  0.00    +0.300 C 
ENDBRANCH   2  16
TORSDOF 2
