REMARK  Name = ZINCpe000000USPr.0
REMARK                            x       y       z     vdW  Elec       q    Type
REMARK                         _______ _______ _______ _____ _____    ______ ____
ROOT
ATOM      1  N   LIG    1       -3.143  -5.278   0.005  0.00  0.00    -0.710 N 
ATOM      2  H   LIG    1       -4.067  -4.982   0.016  0.00  0.00    +0.400 HD
ATOM      3  C   LIG    1       -2.146  -4.372  -0.000  0.00  0.00    +0.520 C 
ATOM      4  O   LIG    1       -0.991  -4.742  -0.013  0.00  0.00    -0.530 OA
ENDROOT
BRANCH   1   5
ATOM      5  C   LIG    1       -2.833  -6.710  -0.006  0.00  0.00    +0.320 C 
BRANCH   5   6
ATOM      6  C   LIG    1       -2.620  -7.167  -1.426  0.00  0.00    -0.100 A 
ATOM      7  C   LIG    1       -3.436  -6.691  -2.435  0.00  0.00    +0.010 A 
ATOM      8  C   LIG    1       -3.237  -7.107  -3.739  0.00  0.00    +0.000 A 
ATOM      9  C   LIG    1       -2.229  -8.006  -4.031  0.00  0.00    +0.000 A 
ATOM     10  C   LIG    1       -1.416  -8.486  -3.021  0.00  0.00    +0.000 A 
ATOM     11  C   LIG    1       -1.612  -8.067  -1.718  0.00  0.00    +0.020 A 
ENDBRANCH   5   6
BRANCH   5  12
ATOM     12  C   LIG    1       -3.997  -7.489   0.611  0.00  0.00    +0.060 C 
BRANCH  12  16
ATOM     13  C   LIG    1       -5.228  -7.330   4.233  0.00  0.00    +0.290 C 
ATOM     14  N   LIG    1       -5.097  -7.687   2.818  0.00  0.00    -0.740 N 
ATOM     15  H   LIG    1       -5.704  -8.332   2.422  0.00  0.00    +0.400 HD
ATOM     16  C   LIG    1       -4.132  -7.121   2.066  0.00  0.00    +0.510 C 
ATOM     17  O   LIG    1       -3.372  -6.315   2.561  0.00  0.00    -0.530 OA
ENDBRANCH  12  16
ENDBRANCH   5  12
ENDBRANCH   1   5
BRANCH   3  18
ATOM     18  C   LIG    1       -2.465  -2.900   0.011  0.00  0.00    +0.300 C 
BRANCH  18  19
ATOM     19  N   LIG    1       -1.218  -2.130   0.003  0.00  0.00    -0.710 N 
ATOM     20  H   LIG    1       -0.364  -2.590  -0.008  0.00  0.00    +0.410 HD
ATOM     21  C   LIG    1       -1.258  -0.783   0.010  0.00  0.00    +0.560 C 
ATOM     22  O   LIG    1       -2.328  -0.207   0.024  0.00  0.00    -0.530 OA
BRANCH  21  23
ATOM     23  C   LIG    1        0.002  -0.004   0.002  0.00  0.00    -0.090 A 
ATOM     24  C   LIG    1       -0.017   1.394   0.010  0.00  0.00    +0.040 A 
ATOM     25  C   LIG    1        1.182   2.080   0.002  0.00  0.00    +0.270 A 
ATOM     26  N   LIG    1        2.331   1.435  -0.013  0.00  0.00    -0.470 NA
ATOM     27  C   LIG    1        2.394   0.118  -0.020  0.00  0.00    +0.260 A 
ATOM     28  C   LIG    1        1.244  -0.647  -0.013  0.00  0.00    +0.000 A 
ENDBRANCH  21  23
ENDBRANCH  18  19
ENDBRANCH   3  18
TORSDOF 7
