REMARK  Name = ZINCbu0000001gUo.0
REMARK                            x       y       z     vdW  Elec       q    Type
REMARK                         _______ _______ _______ _____ _____    ______ ____
ROOT
ATOM      1  C   LIG    1        1.162   2.449   0.004  0.00  0.00    +0.070 A 
ATOM      2  N   LIG    1        1.152   3.767   0.010  0.00  0.00    -0.450 NA
ATOM      3  C   LIG    1        0.025   4.452   0.024  0.00  0.00    +0.320 A 
ATOM      4  C   LIG    1       -1.197   3.805   0.033  0.00  0.00    -0.050 A 
ATOM      5  C   LIG    1       -1.227   2.418   0.021  0.00  0.00    +0.120 A 
ATOM      6 CL   LIG    1       -2.674   4.717   0.050  0.00  0.00    -0.000 Cl
ATOM      7  C   LIG    1       -0.021   1.732   0.012  0.00  0.00    -0.050 A 
ATOM      8 CL   LIG    1        0.002  -0.004   0.002  0.00  0.00    -0.010 Cl
ENDROOT
BRANCH   1  10
ATOM      9  C   LIG    1        3.092   1.798  -1.411  0.00  0.00    +0.120 C 
ATOM     10  C   LIG    1        2.478   1.714  -0.012  0.00  0.00    +0.250 C 
BRANCH  10  11
ATOM     11  N   LIG    1        3.392   2.325   0.962  0.00  0.00    -0.630 N 
ATOM     12  H   LIG    1        4.273   1.833   0.951  0.00  0.00    +0.440 HD
ATOM     13  H   LIG    1        2.987   2.270   1.885  0.00  0.00    +0.440 HD
ATOM     14  H   LIG    1        3.544   3.293   0.719  0.00  0.00    +0.440 HD
ENDBRANCH  10  11
ENDBRANCH   1  10
TORSDOF 2
