REMARK  Name = ZINCvU00000008dO.0
REMARK                            x       y       z     vdW  Elec       q    Type
REMARK                         _______ _______ _______ _____ _____    ______ ____
ROOT
ATOM      1  S   LIG    1        1.495   9.635  -3.015  0.00  0.00    +0.090 S 
ENDROOT
BRANCH   1   2
ATOM      2  C   LIG    1        1.534   9.943  -4.750  0.00  0.00    +0.190 A 
ATOM      3  C   LIG    1        1.766  11.252  -5.243  0.00  0.00    -0.160 A 
ATOM      4  C   LIG    1        1.998  12.502  -4.529  0.00  0.00    -0.030 A 
ATOM      5  C   LIG    1        2.181  13.559  -5.317  0.00  0.00    -0.010 A 
ATOM      6  S   LIG    1        2.098  13.114  -7.011  0.00  0.00    +0.200 S 
ATOM      7  C   LIG    1        1.789  11.427  -6.627  0.00  0.00    +0.100 A 
ATOM      8  N   LIG    1        1.584  10.367  -7.420  0.00  0.00    -0.500 NA
ATOM      9  C   LIG    1        1.369   9.174  -6.915  0.00  0.00    +0.540 A 
ATOM     10  N   LIG    1        1.342   8.956  -5.614  0.00  0.00    -0.530 NA
BRANCH   4  11
ATOM     11  C   LIG    1        2.027  12.588  -3.050  0.00  0.00    -0.040 A 
ATOM     12  C   LIG    1        0.991  12.036  -2.296  0.00  0.00    +0.060 A 
ATOM     13  C   LIG    1        1.026  12.115  -0.919  0.00  0.00    +0.050 A 
ATOM     14  C   LIG    1        2.080  12.750  -0.286  0.00  0.00    -0.020 A 
ATOM     15  C   LIG    1        3.108  13.304  -1.029  0.00  0.00    +0.030 A 
ATOM     16 CL   LIG    1        2.114  12.851   1.447  0.00  0.00    -0.060 Cl
ATOM     17  C   LIG    1        3.086  13.226  -2.407  0.00  0.00    +0.050 A 
ENDBRANCH   4  11
ENDBRANCH   1   2
BRANCH   1  18
ATOM     18  C   LIG    1        1.164   7.855  -3.020  0.00  0.00    +0.060 C 
BRANCH  18  20
ATOM     19  O   LIG    1        1.239   8.126  -0.677  0.00  0.00    -0.520 OA
ATOM     20  C   LIG    1        1.086   7.355  -1.601  0.00  0.00    +0.530 C 
ATOM     21  N   LIG    1        0.847   6.051  -1.358  0.00  0.00    -0.720 N 
ATOM     22  H   LIG    1        0.725   5.435  -2.097  0.00  0.00    +0.410 HD
BRANCH  21  23
ATOM     23  C   LIG    1        0.771   5.565   0.022  0.00  0.00    +0.340 C 
BRANCH  23  24
ATOM     24  C   LIG    1        0.496   4.083   0.018  0.00  0.00    -0.100 A 
ATOM     25  C   LIG    1       -0.808   3.624   0.028  0.00  0.00    +0.050 A 
ATOM     26  C   LIG    1       -1.065   2.265   0.019  0.00  0.00    +0.040 A 
ATOM     27  C   LIG    1       -0.016   1.361   0.009  0.00  0.00    +0.040 A 
ATOM     28  O   LIG    1        0.002  -0.004   0.002  0.00  0.00    -0.310 OA
ATOM     29  C   LIG    1        1.336  -0.373   0.399  0.00  0.00    +0.430 C 
ATOM     30  O   LIG    1        2.139   0.749  -0.014  0.00  0.00    -0.310 OA
ATOM     31  C   LIG    1        1.297   1.824  -0.001  0.00  0.00    +0.030 A 
ATOM     32  C   LIG    1        1.548   3.186   0.004  0.00  0.00    +0.060 A 
ENDBRANCH  23  24
ENDBRANCH  21  23
ENDBRANCH  18  20
ENDBRANCH   1  18
TORSDOF 6
