REMARK  Name = ZINCAx0000000coT.0
REMARK                            x       y       z     vdW  Elec       q    Type
REMARK                         _______ _______ _______ _____ _____    ______ ____
ROOT
ATOM      1  C   LIG    1        0.001  -0.963  -0.794  0.00  0.00    +0.190 C 
ATOM      2  C   LIG    1        0.097  -2.012  -1.903  0.00  0.00    +0.070 C 
ENDROOT
BRANCH   1   3
ATOM      3  C   LIG    1       -1.228  -1.223   0.038  0.00  0.00    +0.510 C 
ATOM      4  N   LIG    1       -1.323  -2.353   0.766  0.00  0.00    -0.640 N 
ATOM      5  H   LIG    1       -0.631  -3.030   0.702  0.00  0.00    +0.410 HD
ATOM      6  O   LIG    1       -2.133  -0.415   0.052  0.00  0.00    -0.480 OA
BRANCH   4   7
ATOM      7  C   LIG    1       -2.425  -2.550   1.621  0.00  0.00    -0.080 A 
ATOM      8  C   LIG    1       -2.376  -2.800   2.949  0.00  0.00    +0.180 A 
ATOM      9  N   LIG    1       -3.657  -2.927   3.418  0.00  0.00    -0.390 N 
ATOM     10  N   LIG    1       -4.553  -2.762   2.355  0.00  0.00    -0.370 N 
ATOM     11  C   LIG    1       -4.029  -3.199   4.808  0.00  0.00    +0.350 C 
ATOM     12  C   LIG    1       -1.122  -2.915   3.776  0.00  0.00    +0.170 C 
ATOM     13  C   LIG    1       -3.837  -2.529   1.236  0.00  0.00    +0.540 A 
ATOM     14  O   LIG    1       -4.281  -2.337   0.118  0.00  0.00    -0.500 OA
BRANCH  10  15
ATOM     15  C   LIG    1       -5.947  -2.827   2.440  0.00  0.00    +0.150 A 
ATOM     16  C   LIG    1       -6.555  -3.868   3.129  0.00  0.00    +0.000 A 
ATOM     17  C   LIG    1       -7.933  -3.926   3.215  0.00  0.00    +0.030 A 
ATOM     18  C   LIG    1       -8.706  -2.955   2.606  0.00  0.00    +0.010 A 
ATOM     19  C   LIG    1       -8.104  -1.921   1.914  0.00  0.00    +0.030 A 
ATOM     20  C   LIG    1       -6.728  -1.853   1.829  0.00  0.00    +0.030 A 
ENDBRANCH  10  15
ENDBRANCH   4   7
ENDBRANCH   1   3
BRANCH   1  21
ATOM     21  O   LIG    1       -0.085   0.360  -1.385  0.00  0.00    -0.300 OA
BRANCH  21  22
ATOM     22  C   LIG    1        1.077   1.006  -1.613  0.00  0.00    +0.540 C 
ATOM     23  O   LIG    1        2.132   0.476  -1.326  0.00  0.00    -0.530 OA
BRANCH  22  26
ATOM     24  N   LIG    1        2.276   4.246  -2.991  0.00  0.00    -0.470 N 
ATOM     25  C   LIG    1        2.247   3.021  -2.448  0.00  0.00    +0.460 A 
ATOM     26  C   LIG    1        1.066   2.349  -2.209  0.00  0.00    -0.330 A 
ATOM     27  C   LIG    1       -0.205   3.001  -2.568  0.00  0.00    +0.430 A 
ATOM     28  C   LIG    1       -0.125   4.349  -3.157  0.00  0.00    -0.230 A 
ATOM     29  C   LIG    1       -1.274   5.050  -3.527  0.00  0.00    +0.180 A 
ATOM     30  C   LIG    1       -1.117   6.309  -4.080  0.00  0.00    -0.050 A 
ATOM     31  C   LIG    1        0.159   6.823  -4.244  0.00  0.00    +0.190 A 
ATOM     32  N   LIG    1        1.228   6.143  -3.887  0.00  0.00    -0.520 NA
ATOM     33  C   LIG    1        0.327   8.194  -4.846  0.00  0.00    +0.140 C 
ATOM     34  O   LIG    1       -1.276   2.450  -2.383  0.00  0.00    -0.440 OA
ATOM     35  C   LIG    1        1.140   4.931  -3.352  0.00  0.00    +0.380 A 
BRANCH  24  37
ATOM     36  C   LIG    1        4.096   4.521  -4.602  0.00  0.00    +0.040 C 
ATOM     37  C   LIG    1        3.577   4.884  -3.209  0.00  0.00    +0.300 C 
ENDBRANCH  24  37
ENDBRANCH  22  26
ENDBRANCH  21  22
ENDBRANCH   1  21
TORSDOF 7
