REMARK  Name = ZINCvU0000000GyT.0
REMARK                            x       y       z     vdW  Elec       q    Type
REMARK                         _______ _______ _______ _____ _____    ______ ____
ROOT
ATOM      1  C   LIG    1        5.136   3.503   1.223  0.00  0.00    +0.280 C 
ENDROOT
BRANCH   1   4
ATOM      2  O   LIG    1        6.658   4.582   3.169  0.00  0.00    -0.530 OA
ATOM      3  C   LIG    1        6.291   5.354   2.306  0.00  0.00    +0.560 C 
ATOM      4  N   LIG    1        5.525   4.913   1.288  0.00  0.00    -0.720 N 
ATOM      5  H   LIG    1        5.232   5.530   0.600  0.00  0.00    +0.400 HD
BRANCH   3   6
ATOM      6  C   LIG    1        6.685   6.781   2.373  0.00  0.00    -0.050 A 
ATOM      7  C   LIG    1        6.272   7.687   1.388  0.00  0.00    -0.080 A 
ATOM      8  C   LIG    1        6.659   9.008   1.485  0.00  0.00    +0.310 A 
ATOM      9  N   LIG    1        7.409   9.425   2.488  0.00  0.00    -0.530 NA
ATOM     10  C   LIG    1        7.822   8.605   3.441  0.00  0.00    +0.400 A 
ATOM     11  C   LIG    1        7.472   7.259   3.421  0.00  0.00    -0.040 A 
BRANCH  10  12
ATOM     12  N   LIG    1        8.610   9.095   4.476  0.00  0.00    -0.710 N 
ATOM     13  H   LIG    1        8.854  10.034   4.496  0.00  0.00    +0.410 HD
BRANCH  12  14
ATOM     14  C   LIG    1        9.072   8.194   5.535  0.00  0.00    +0.240 C 
ATOM     15  C   LIG    1        8.361   8.411   6.881  0.00  0.00    +0.000 C 
ATOM     16  C   LIG    1        9.730   8.196   7.549  0.00  0.00    +0.030 C 
ATOM     17  C   LIG    1       10.360   8.669   6.228  0.00  0.00    +0.020 C 
ENDBRANCH  12  14
ENDBRANCH  10  12
ENDBRANCH   3   6
ENDBRANCH   1   4
BRANCH   1  18
ATOM     18  C   LIG    1        4.275   3.269  -0.021  0.00  0.00    +0.110 C 
BRANCH  18  19
ATOM     19  C   LIG    1        3.773   1.848  -0.024  0.00  0.00    -0.160 A 
ATOM     20  C   LIG    1        4.524   0.735  -0.036  0.00  0.00    +0.230 A 
ATOM     21  N   LIG    1        3.720  -0.371  -0.034  0.00  0.00    -0.590 N 
ATOM     22  H   LIG    1        4.034  -1.289  -0.042  0.00  0.00    +0.420 HD
ATOM     23  C   LIG    1        2.397   0.012  -0.020  0.00  0.00    +0.100 A 
ATOM     24  C   LIG    1        1.197  -0.691  -0.013  0.00  0.00    -0.010 A 
ATOM     25  C   LIG    1        0.002  -0.004   0.002  0.00  0.00    +0.030 A 
ATOM     26  C   LIG    1       -0.017   1.384   0.010  0.00  0.00    -0.020 A 
ATOM     27  C   LIG    1        1.151   2.094   0.002  0.00  0.00    +0.050 A 
ATOM     28  C   LIG    1        2.373   1.419  -0.013  0.00  0.00    -0.100 A 
ENDBRANCH  18  19
BRANCH  18  29
ATOM     29  C   LIG    1        5.102   3.512  -1.257  0.00  0.00    -0.070 A 
ATOM     30  C   LIG    1        6.240   2.761  -1.486  0.00  0.00    +0.010 A 
ATOM     31  C   LIG    1        6.996   2.981  -2.622  0.00  0.00    +0.000 A 
ATOM     32  C   LIG    1        6.619   3.958  -3.524  0.00  0.00    +0.000 A 
ATOM     33  C   LIG    1        5.484   4.713  -3.292  0.00  0.00    +0.010 A 
ATOM     34  C   LIG    1        4.726   4.490  -2.159  0.00  0.00    +0.000 A 
ENDBRANCH  18  29
ENDBRANCH   1  18
TORSDOF 7
