REMARK  Name = ZINCpe000000Y8Xw.0
REMARK                            x       y       z     vdW  Elec       q    Type
REMARK                         _______ _______ _______ _____ _____    ______ ____
ROOT
ATOM      1  N   LIG    1        0.002  -0.004   0.002  0.00  0.00    -0.450 N 
ATOM      2  C   LIG    1       -0.018   1.465   0.010  0.00  0.00    +0.250 C 
ATOM      3  C   LIG    1        1.419   1.992  -0.001  0.00  0.00    +0.200 C 
ATOM      4  N   LIG    1        2.138   1.472   1.171  0.00  0.00    -0.520 NA
ATOM      5  C   LIG    1        2.158   0.003   1.162  0.00  0.00    +0.200 C 
ATOM      6  C   LIG    1        0.721  -0.525   1.173  0.00  0.00    +0.200 C 
ENDROOT
BRANCH   1  11
ATOM      7  C   LIG    1       -3.865  -3.091  -0.198  0.00  0.00    +0.210 C 
ATOM      8  C   LIG    1       -2.995  -1.862  -0.149  0.00  0.00    +0.170 A 
ATOM      9  N   LIG    1       -3.404  -0.625  -0.160  0.00  0.00    -0.280 NA
ATOM     10  N   LIG    1       -2.398   0.173  -0.108  0.00  0.00    -0.320 NA
ATOM     11  C   LIG    1       -1.284  -0.518  -0.060  0.00  0.00    +0.360 A 
ATOM     12  N   LIG    1       -1.629  -1.838  -0.090  0.00  0.00    -0.490 N 
ATOM     13  C   LIG    1       -0.724  -2.990  -0.062  0.00  0.00    +0.330 C 
ENDBRANCH   1  11
BRANCH   4  14
ATOM     14  C   LIG    1        3.501   2.017   1.237  0.00  0.00    +0.220 C 
BRANCH  14  15
ATOM     15  C   LIG    1        3.437   3.501   1.490  0.00  0.00    +0.500 C 
ATOM     16  N   LIG    1        4.574   4.217   1.589  0.00  0.00    -0.640 N 
ATOM     17  H   LIG    1        5.434   3.777   1.498  0.00  0.00    +0.420 HD
ATOM     18  O   LIG    1        2.362   4.051   1.604  0.00  0.00    -0.450 OA
BRANCH  16  19
ATOM     19  C   LIG    1        4.515   5.586   1.823  0.00  0.00    +0.280 A 
ATOM     20  N   LIG    1        3.428   6.266   1.954  0.00  0.00    -0.470 NA
ATOM     21  C   LIG    1        3.541   7.579   2.180  0.00  0.00    +0.080 A 
ATOM     22  C   LIG    1        4.809   7.999   2.227  0.00  0.00    -0.270 A 
ATOM     23  C   LIG    1        4.876   9.494   2.481  0.00  0.00    +0.130 C 
ATOM     24  C   LIG    1        3.479   9.864   3.020  0.00  0.00    +0.050 C 
ATOM     25  C   LIG    1        2.600   8.761   2.398  0.00  0.00    +0.130 C 
ATOM     26  S   LIG    1        5.872   6.612   1.971  0.00  0.00    +0.140 S 
ENDBRANCH  16  19
ENDBRANCH  14  15
ENDBRANCH   4  14
TORSDOF 4
