REMARK  Name = ZINCpk00000ebxNP.1
REMARK                            x       y       z     vdW  Elec       q    Type
REMARK                         _______ _______ _______ _____ _____    ______ ____
ROOT
ATOM      1  S   LIG    1       -1.265   3.737   0.153  0.00  0.00    +2.680 S 
ATOM      2  O   LIG    1       -0.210   3.831   1.100  0.00  0.00    -0.930 OA
ATOM      3  O   LIG    1       -2.541   4.331   0.350  0.00  0.00    -0.930 OA
ENDROOT
BRANCH   1   7
ATOM      4  C   LIG    1        0.347   5.423  -3.731  0.00  0.00    -0.070 A 
ATOM      5  C   LIG    1       -1.029   5.280  -3.547  0.00  0.00    +0.070 A 
ATOM      6  C   LIG    1       -1.513   4.766  -2.362  0.00  0.00    +0.130 A 
ATOM      7  C   LIG    1       -0.638   4.393  -1.357  0.00  0.00    -0.660 A 
ATOM      8  C   LIG    1        0.727   4.537  -1.531  0.00  0.00    +0.120 A 
ATOM      9  C   LIG    1        1.224   5.045  -2.714  0.00  0.00    +0.040 A 
BRANCH   4  11
ATOM     10  O   LIG    1        0.107   6.303  -5.883  0.00  0.00    -0.520 OA
ATOM     11  C   LIG    1        0.873   5.974  -4.998  0.00  0.00    +0.560 C 
ATOM     12  N   LIG    1        2.202   6.111  -5.173  0.00  0.00    -0.690 N 
ATOM     13  H   LIG    1        2.814   5.849  -4.468  0.00  0.00    +0.400 HD
BRANCH  12  14
ATOM     14  C   LIG    1        2.724   6.657  -6.429  0.00  0.00    +0.210 C 
ATOM     15  C   LIG    1        3.933   5.958  -7.055  0.00  0.00    +0.020 C 
ATOM     16  C   LIG    1        4.098   7.328  -6.391  0.00  0.00    +0.020 C 
ENDBRANCH  12  14
ENDBRANCH   4  11
ENDBRANCH   1   7
BRANCH   1  17
ATOM     17  N   LIG    1       -1.534   2.121  -0.088  0.00  0.00    -1.040 N 
ATOM     18  H   LIG    1       -2.435   1.766  -0.041  0.00  0.00    +0.440 HD
BRANCH  17  19
ATOM     19  C   LIG    1       -0.458   1.265  -0.360  0.00  0.00    +0.150 A 
ATOM     20  C   LIG    1        0.811   1.748  -0.354  0.00  0.00    +0.210 A 
ATOM     21  N   LIG    1        1.863   0.927  -0.623  0.00  0.00    -0.260 N 
ATOM     22  N   LIG    1        3.248   1.134  -0.688  0.00  0.00    -0.330 NA
ATOM     23  C   LIG    1        3.797  -0.020  -0.991  0.00  0.00    +0.470 A 
ATOM     24  N   LIG    1        2.854  -0.941  -1.121  0.00  0.00    -0.540 NA
ATOM     25  C   LIG    1        1.661  -0.394  -0.902  0.00  0.00    +0.260 A 
ATOM     26  C   LIG    1        0.355  -0.916  -0.914  0.00  0.00    +0.110 A 
ATOM     27  C   LIG    1       -0.695  -0.093  -0.645  0.00  0.00    +0.080 A 
ENDBRANCH  17  19
ENDBRANCH   1  17
TORSDOF 5
