REMARK  Name = ZINCrH000004srQj.0
REMARK                            x       y       z     vdW  Elec       q    Type
REMARK                         _______ _______ _______ _____ _____    ______ ____
ROOT
ATOM      1  C   LIG    1       -1.214   3.626   0.028  0.00  0.00    +0.230 C 
ATOM      2  C   LIG    1       -1.210   4.170  -1.419  0.00  0.00    +0.040 C 
ATOM      3  C   LIG    1       -2.711   4.443  -1.691  0.00  0.00    +0.180 C 
ATOM      4  N   LIG    1       -3.206   4.952  -0.386  0.00  0.00    -0.470 N 
ATOM      5  C   LIG    1       -2.528   4.139   0.647  0.00  0.00    +0.190 C 
ENDROOT
BRANCH   4   6
ATOM      6  C   LIG    1       -4.596   4.824  -0.292  0.00  0.00    +0.060 A 
ATOM      7  C   LIG    1       -5.192   3.580  -0.441  0.00  0.00    +0.010 A 
ATOM      8  C   LIG    1       -6.565   3.455  -0.342  0.00  0.00    +0.000 A 
ATOM      9  C   LIG    1       -7.348   4.569  -0.106  0.00  0.00    +0.050 A 
ATOM     10  C   LIG    1       -6.762   5.814   0.038  0.00  0.00    -0.050 A 
ATOM     11  C   LIG    1       -5.387   5.946  -0.054  0.00  0.00    +0.130 A 
BRANCH  11  12
ATOM     12  O   LIG    1       -4.809   7.170   0.088  0.00  0.00    -0.300 OA
BRANCH  12  13
ATOM     13  C   LIG    1       -5.681   8.275   0.330  0.00  0.00    +0.590 C 
ATOM     14  F   LIG    1       -6.393   8.057   1.514  0.00  0.00    -0.200 F 
ATOM     15  F   LIG    1       -6.578   8.404  -0.736  0.00  0.00    -0.200 F 
ENDBRANCH  12  13
ENDBRANCH  11  12
ENDBRANCH   4   6
BRANCH   1  17
ATOM     16  C   LIG    1       -0.018   1.503   0.010  0.00  0.00    +0.510 C 
ATOM     17  N   LIG    1       -1.195   2.161   0.019  0.00  0.00    -0.730 N 
ATOM     18  H   LIG    1       -2.028   1.664   0.021  0.00  0.00    +0.400 HD
ATOM     19  O   LIG    1        1.024   2.123   0.004  0.00  0.00    -0.530 OA
BRANCH  16  20
ATOM     20  C   LIG    1        0.002  -0.004   0.002  0.00  0.00    +0.050 C 
BRANCH  20  21
ATOM     21  C   LIG    1        1.451  -0.494  -0.015  0.00  0.00    +0.050 C 
BRANCH  21  22
ATOM     22  C   LIG    1        1.472  -2.024  -0.023  0.00  0.00    +0.120 C 
BRANCH  22  26
ATOM     23  C   LIG    1        6.093  -2.296  -1.811  0.00  0.00    +0.180 C 
ATOM     24  C   LIG    1        4.964  -2.609  -0.864  0.00  0.00    +0.050 A 
ATOM     25  N   LIG    1        3.768  -2.133  -0.957  0.00  0.00    -0.470 NA
ATOM     26  C   LIG    1        2.900  -2.507  -0.039  0.00  0.00    +0.070 A 
ATOM     27  C   LIG    1        3.386  -3.354   0.873  0.00  0.00    -0.080 A 
ATOM     28  S   LIG    1        5.079  -3.653   0.485  0.00  0.00    +0.120 S 
ENDBRANCH  22  26
ENDBRANCH  21  22
ENDBRANCH  20  21
ENDBRANCH  16  20
ENDBRANCH   1  17
TORSDOF 8
