REMARK  Name = ZINCpe00000MJI4a.0
REMARK                            x       y       z     vdW  Elec       q    Type
REMARK                         _______ _______ _______ _____ _____    ______ ____
ROOT
ATOM      1  C   LIG    1       -0.156   0.007  -0.106  0.00  0.00    +0.190 C 
ATOM      2  C   LIG    1        0.202  -0.623   1.241  0.00  0.00    +0.070 C 
ATOM      3  C   LIG    1        1.526  -0.087   1.724  0.00  0.00    -0.070 A 
ATOM      4  C   LIG    1        2.192  -0.776   2.725  0.00  0.00    +0.010 A 
ATOM      5  C   LIG    1        3.405  -0.317   3.199  0.00  0.00    +0.010 A 
ATOM      6  C   LIG    1        3.958   0.835   2.673  0.00  0.00    +0.010 A 
ATOM      7  C   LIG    1        3.295   1.521   1.675  0.00  0.00    +0.020 A 
ATOM      8  C   LIG    1        2.078   1.060   1.196  0.00  0.00    -0.110 A 
ATOM      9  C   LIG    1        1.398   1.838   0.099  0.00  0.00    +0.260 C 
ATOM     10  N   LIG    1       -0.018   1.467   0.010  0.00  0.00    -0.510 NA
ENDROOT
BRANCH   1  14
ATOM     11  N   LIG    1       -1.935  -1.629  -0.629  0.00  0.00    -0.850 N 
ATOM     12  H   LIG    1       -2.850  -1.853  -0.863  0.00  0.00    +0.410 HD
ATOM     13  H   LIG    1       -1.280  -2.334  -0.510  0.00  0.00    +0.400 HD
ATOM     14  C   LIG    1       -1.577  -0.340  -0.469  0.00  0.00    +0.520 C 
ATOM     15  O   LIG    1       -2.397   0.541  -0.619  0.00  0.00    -0.520 OA
ENDBRANCH   1  14
BRANCH  10  16
ATOM     16  C   LIG    1       -0.769   1.977   1.165  0.00  0.00    +0.450 C 
BRANCH  16  17
ATOM     17  N   LIG    1       -0.222   3.274   1.570  0.00  0.00    -0.590 N 
ATOM     18  C   LIG    1        0.776   3.410   2.482  0.00  0.00    +0.530 C 
ATOM     19  C   LIG    1        1.246   4.830   2.379  0.00  0.00    -0.010 C 
ATOM     20  C   LIG    1        1.690   5.529   3.647  0.00  0.00    +0.100 C 
ATOM     21  C   LIG    1        1.763   7.008   3.333  0.00  0.00    -0.050 C 
ATOM     22  C   LIG    1        1.180   7.571   2.317  0.00  0.00    -0.040 C 
ATOM     23  C   LIG    1        0.320   6.837   1.310  0.00  0.00    +0.110 C 
ATOM     24  C   LIG    1       -0.083   5.525   1.950  0.00  0.00    +0.000 C 
ATOM     25  O   LIG    1        1.201   2.554   3.227  0.00  0.00    -0.440 OA
ATOM     26  C   LIG    1       -0.666   4.458   1.073  0.00  0.00    +0.540 C 
ATOM     27  O   LIG    1       -1.389   4.620   0.114  0.00  0.00    -0.450 OA
ENDBRANCH  16  17
ENDBRANCH  10  16
TORSDOF 3
