REMARK  Name = ZINCpe000000Zj83.0
REMARK                            x       y       z     vdW  Elec       q    Type
REMARK                         _______ _______ _______ _____ _____    ______ ____
ROOT
ATOM      1  C   LIG    1        1.278   2.115   0.001  0.00  0.00    -0.020 C 
ATOM      2  C   LIG    1        0.979   3.615   0.012  0.00  0.00    +0.050 C 
ATOM      3  C   LIG    1        2.293   4.400  -0.029  0.00  0.00    +0.010 C 
ATOM      4  C   LIG    1        3.123   4.063   1.213  0.00  0.00    +0.270 C 
ATOM      5  N   LIG    1        3.293   2.606   1.288  0.00  0.00    -0.610 N 
ATOM      6  C   LIG    1        4.521   2.062   1.396  0.00  0.00    +0.520 C 
ATOM      7  O   LIG    1        4.648   0.857   1.457  0.00  0.00    -0.530 OA
ATOM      8  C   LIG    1        2.097   1.752   1.244  0.00  0.00    +0.290 C 
ENDROOT
BRANCH   1  10
ATOM      9  O   LIG    1       -1.075   1.936   0.018  0.00  0.00    -0.520 OA
ATOM     10  C   LIG    1       -0.016   1.344   0.009  0.00  0.00    +0.530 C 
ATOM     11  N   LIG    1        0.002  -0.004   0.002  0.00  0.00    -0.720 N 
ATOM     12  H   LIG    1        0.849  -0.478  -0.009  0.00  0.00    +0.400 HD
BRANCH  11  13
ATOM     13  C   LIG    1       -1.256  -0.754   0.010  0.00  0.00    +0.260 C 
ATOM     14  C   LIG    1       -1.020  -2.138   0.620  0.00  0.00    +0.040 C 
ATOM     15  C   LIG    1       -2.265  -2.997   0.370  0.00  0.00    +0.040 C 
ATOM     16  C   LIG    1       -2.380  -3.268  -1.131  0.00  0.00    +0.260 C 
ATOM     17  N   LIG    1       -2.281  -2.024  -1.883  0.00  0.00    -0.720 N 
ATOM     18  H   LIG    1       -2.613  -2.016  -2.794  0.00  0.00    +0.400 HD
ATOM     19  C   LIG    1       -1.762  -0.895  -1.397  0.00  0.00    +0.500 C 
ATOM     20  O   LIG    1       -1.694   0.068  -2.131  0.00  0.00    -0.530 OA
ENDBRANCH  11  13
ENDBRANCH   1  10
BRANCH   6  21
ATOM     21  C   LIG    1        5.737   2.951   1.441  0.00  0.00    +0.100 C 
BRANCH  21  22
ATOM     22  C   LIG    1        6.976   2.101   1.563  0.00  0.00    -0.070 A 
ATOM     23  C   LIG    1        7.466   1.768   2.812  0.00  0.00    +0.010 A 
ATOM     24  C   LIG    1        8.599   0.985   2.924  0.00  0.00    +0.000 A 
ATOM     25  C   LIG    1        9.249   0.543   1.786  0.00  0.00    +0.000 A 
ATOM     26  C   LIG    1        8.762   0.881   0.537  0.00  0.00    +0.000 A 
ATOM     27  C   LIG    1        7.626   1.659   0.425  0.00  0.00    +0.010 A 
ENDBRANCH  21  22
ENDBRANCH   6  21
TORSDOF 4
