REMARK  Name = ZINCvU00000005Tz.0
REMARK                            x       y       z     vdW  Elec       q    Type
REMARK                         _______ _______ _______ _____ _____    ______ ____
ROOT
ATOM      1  C   LIG    1       -2.451   4.116   0.037  0.00  0.00    +0.410 A 
ATOM      2  C   LIG    1       -3.680   3.408   0.038  0.00  0.00    -0.170 A 
ATOM      3  C   LIG    1       -3.627   2.012   0.030  0.00  0.00    +0.100 A 
ATOM      4  S   LIG    1       -5.255   1.352   0.033  0.00  0.00    +0.180 S 
ATOM      5  C   LIG    1       -5.981   2.948   0.045  0.00  0.00    -0.160 A 
ATOM      6  C   LIG    1       -7.465   3.207   0.053  0.00  0.00    +0.150 C 
ATOM      7  N   LIG    1       -2.434   1.406   0.021  0.00  0.00    -0.500 NA
ATOM      8  C   LIG    1       -1.315   2.107   0.020  0.00  0.00    +0.400 A 
ATOM      9  C   LIG    1       -5.051   3.902   0.046  0.00  0.00    -0.030 A 
ATOM     10  N   LIG    1       -1.317   3.435   0.032  0.00  0.00    -0.520 NA
ENDROOT
BRANCH   8  11
ATOM     11  C   LIG    1       -0.017   1.389   0.010  0.00  0.00    +0.170 A 
ATOM     12  C   LIG    1        0.002  -0.004   0.002  0.00  0.00    +0.030 A 
ATOM     13  C   LIG    1        1.222  -0.660  -0.013  0.00  0.00    +0.060 A 
ATOM     14  C   LIG    1        2.382   0.099  -0.020  0.00  0.00    -0.010 A 
ATOM     15  C   LIG    1        2.289   1.480  -0.012  0.00  0.00    +0.260 A 
ATOM     16  N   LIG    1        1.117   2.079   0.003  0.00  0.00    -0.440 NA
ENDBRANCH   8  11
BRANCH   9  17
ATOM     17  C   LIG    1       -5.383   5.347   0.056  0.00  0.00    -0.030 A 
ATOM     18  C   LIG    1       -5.042   6.150  -1.032  0.00  0.00    +0.050 A 
ATOM     19  C   LIG    1       -5.359   7.493  -1.020  0.00  0.00    +0.010 A 
ATOM     20  C   LIG    1       -6.004   8.045   0.073  0.00  0.00    +0.000 A 
ATOM     21  C   LIG    1       -6.339   7.254   1.157  0.00  0.00    +0.000 A 
ATOM     22  C   LIG    1       -6.032   5.909   1.154  0.00  0.00    +0.010 A 
ENDBRANCH   9  17
BRANCH   1  27
ATOM     23  C   LIG    1       -1.054   6.017   0.024  0.00  0.00    +0.150 C 
ATOM     24  C   LIG    1       -1.106   7.319   0.862  0.00  0.00    +0.030 C 
ATOM     25  C   LIG    1       -2.111   6.933   1.979  0.00  0.00    +0.010 C 
ATOM     26  C   LIG    1       -3.120   6.028   1.240  0.00  0.00    +0.220 C 
ATOM     27  N   LIG    1       -2.438   5.500   0.044  0.00  0.00    -0.440 N 
BRANCH  23  28
ATOM     28  C   LIG    1       -0.621   6.324  -1.411  0.00  0.00    +0.230 C 
BRANCH  28  30
ATOM     29  C   LIG    1        1.319   6.925  -2.866  0.00  0.00    +0.010 C 
ATOM     30  C   LIG    1        0.852   6.739  -1.421  0.00  0.00    -0.010 C 
ENDBRANCH  28  30
BRANCH  28  31
ATOM     31  O   LIG    1       -1.419   7.389  -1.932  0.00  0.00    -0.550 OA
ATOM     32  H   LIG    1       -1.351   8.213  -1.431  0.00  0.00    +0.370 HD
ENDBRANCH  28  31
ENDBRANCH  23  28
ENDBRANCH   1  27
TORSDOF 6
