REMARK  Name = ZINCqH0000050HgM.0
REMARK                            x       y       z     vdW  Elec       q    Type
REMARK                         _______ _______ _______ _____ _____    ______ ____
ROOT
ATOM      1  C   LIG    1        6.622  -2.557  -4.693  0.00  0.00    +0.140 C 
ATOM      2  C   LIG    1        6.266  -1.077  -4.552  0.00  0.00    +0.260 C 
ATOM      3  N   LIG    1        5.834  -0.827  -3.168  0.00  0.00    -0.620 N 
ATOM      4  C   LIG    1        6.695  -1.310  -2.077  0.00  0.00    +0.250 C 
ATOM      5  C   LIG    1        7.027  -2.783  -2.338  0.00  0.00    +0.210 C 
ATOM      6  C   LIG    1        4.680  -0.181  -2.907  0.00  0.00    +0.520 C 
ATOM      7  O   LIG    1        3.984   0.209  -3.820  0.00  0.00    -0.530 OA
ATOM      8  O   LIG    1        7.544  -2.921  -3.664  0.00  0.00    -0.350 OA
ENDROOT
BRANCH   1   9
ATOM      9  C   LIG    1        7.259  -2.803  -6.062  0.00  0.00    +0.350 C 
BRANCH   9  13
ATOM     10  C   LIG    1        7.209  -7.441  -7.962  0.00  0.00    +0.110 C 
ATOM     11  C   LIG    1        7.474  -6.260  -7.064  0.00  0.00    -0.240 A 
ATOM     12  C   LIG    1        7.048  -4.992  -7.268  0.00  0.00    +0.220 A 
ATOM     13  N   LIG    1        7.492  -4.238  -6.241  0.00  0.00    -0.370 N 
ATOM     14  N   LIG    1        8.221  -5.069  -5.380  0.00  0.00    -0.260 NA
ATOM     15  C   LIG    1        8.204  -6.282  -5.871  0.00  0.00    +0.220 A 
ENDBRANCH   9  13
ENDBRANCH   1   9
BRANCH   6  16
ATOM     16  C   LIG    1        4.256   0.057  -1.481  0.00  0.00    +0.060 C 
BRANCH  16  17
ATOM     17  C   LIG    1        2.921   0.805  -1.464  0.00  0.00    +0.040 C 
BRANCH  17  18
ATOM     18  C   LIG    1        2.490   1.046  -0.016  0.00  0.00    +0.080 C 
BRANCH  18  19
ATOM     19  C   LIG    1        1.175   1.783   0.000  0.00  0.00    -0.060 A 
ATOM     20  C   LIG    1       -0.013   1.076   0.008  0.00  0.00    +0.040 A 
ATOM     21  C   LIG    1       -1.219   1.750   0.017  0.00  0.00    +0.040 A 
ATOM     22  C   LIG    1       -1.238   3.133   0.030  0.00  0.00    -0.040 A 
ATOM     23  C   LIG    1       -0.049   3.841   0.022  0.00  0.00    -0.030 A 
ATOM     24 CL   LIG    1       -0.071   5.577   0.032  0.00  0.00    -0.050 Cl
ATOM     25 CL   LIG    1       -2.753   3.981   0.048  0.00  0.00    -0.050 Cl
ATOM     26  C   LIG    1        1.158   3.165   0.007  0.00  0.00    +0.040 A 
ENDBRANCH  18  19
ENDBRANCH  17  18
ENDBRANCH  16  17
ENDBRANCH   6  16
TORSDOF 6
