REMARK  Name = ZINCrD0000075yqO.0
REMARK                            x       y       z     vdW  Elec       q    Type
REMARK                         _______ _______ _______ _____ _____    ______ ____
ROOT
ATOM      1  O   LIG    1       -1.314   4.109  -3.038  0.00  0.00    -0.590 OA
ATOM      2  C   LIG    1       -0.775   4.547  -2.040  0.00  0.00    +0.700 C 
ATOM      3  N   LIG    1       -0.587   5.874  -1.903  0.00  0.00    -0.740 N 
ATOM      4  H   LIG    1       -0.158   6.223  -1.107  0.00  0.00    +0.400 HD
ATOM      5  N   LIG    1       -0.366   3.704  -1.071  0.00  0.00    -0.750 N 
ATOM      6  H   LIG    1        0.064   4.054  -0.275  0.00  0.00    +0.400 HD
ENDROOT
BRANCH   3   7
ATOM      7  C   LIG    1       -1.032   6.790  -2.957  0.00  0.00    +0.260 C 
ATOM      8  C   LIG    1       -1.293   8.172  -2.353  0.00  0.00    +0.030 C 
ATOM      9  C   LIG    1       -2.034   9.050  -3.370  0.00  0.00    +0.150 C 
ATOM     10  C   LIG    1       -1.281   8.992  -4.678  0.00  0.00    +0.080 A 
ATOM     11  N   LIG    1       -1.373   9.796  -5.697  0.00  0.00    -0.290 NA
ATOM     12  N   LIG    1       -0.478   9.354  -6.683  0.00  0.00    -0.480 N 
ATOM     13  H   LIG    1       -0.336   9.766  -7.550  0.00  0.00    +0.440 HD
ATOM     14  C   LIG    1        0.152   8.255  -6.213  0.00  0.00    +0.250 A 
ATOM     15  C   LIG    1       -0.325   8.008  -4.979  0.00  0.00    -0.230 A 
ATOM     16  C   LIG    1        0.053   6.893  -4.035  0.00  0.00    +0.100 C 
ENDBRANCH   3   7
BRANCH   5  17
ATOM     17  C   LIG    1       -0.570   2.261  -1.220  0.00  0.00    +0.300 C 
BRANCH  17  18
ATOM     18  C   LIG    1       -0.019   1.538   0.011  0.00  0.00    -0.030 C 
ATOM     19  C   LIG    1        1.499   1.766   0.120  0.00  0.00    +0.020 C 
ATOM     20  C   LIG    1        2.160   0.374   0.038  0.00  0.00    +0.020 C 
ATOM     21  C   LIG    1        1.117  -0.499  -0.703  0.00  0.00    +0.020 C 
ATOM     22  C   LIG    1       -0.227   0.017  -0.133  0.00  0.00    +0.040 C 
BRANCH  18  23
ATOM     23  C   LIG    1       -0.707   2.038   1.255  0.00  0.00    -0.080 A 
ATOM     24  C   LIG    1       -1.777   2.906   1.151  0.00  0.00    +0.050 A 
ATOM     25  C   LIG    1       -2.410   3.365   2.292  0.00  0.00    +0.040 A 
ATOM     26  C   LIG    1       -1.972   2.958   3.538  0.00  0.00    +0.020 A 
ATOM     27  C   LIG    1       -0.900   2.089   3.645  0.00  0.00    +0.070 A 
ATOM     28  F   LIG    1       -0.472   1.690   4.863  0.00  0.00    -0.130 F 
ATOM     29  C   LIG    1       -0.270   1.624   2.501  0.00  0.00    +0.070 A 
ATOM     30  F   LIG    1        0.773   0.772   2.603  0.00  0.00    -0.120 F 
ENDBRANCH  18  23
ENDBRANCH  17  18
ENDBRANCH   5  17
TORSDOF 4
