REMARK  Name = ZINCtV000002vMfA.0
REMARK                            x       y       z     vdW  Elec       q    Type
REMARK                         _______ _______ _______ _____ _____    ______ ____
ROOT
ATOM      1  C   LIG    1        0.783   2.606  -2.531  0.00  0.00    +0.210 C 
ENDROOT
BRANCH   1   2
ATOM      2  C   LIG    1        1.017   3.880  -3.301  0.00  0.00    -0.120 A 
ATOM      3  C   LIG    1        0.615   5.092  -2.770  0.00  0.00    +0.030 A 
ATOM      4  C   LIG    1        0.833   6.261  -3.472  0.00  0.00    +0.010 A 
ATOM      5  C   LIG    1        1.446   6.218  -4.716  0.00  0.00    +0.090 A 
ATOM      6  C   LIG    1        1.844   5.000  -5.249  0.00  0.00    +0.010 A 
ATOM      7  C   LIG    1        1.629   3.834  -4.540  0.00  0.00    +0.030 A 
BRANCH   5   8
ATOM      8  O   LIG    1        1.657   7.367  -5.411  0.00  0.00    -0.260 OA
BRANCH   8   9
ATOM      9  C   LIG    1        2.705   8.151  -5.045  0.00  0.00    +0.120 A 
ATOM     10  C   LIG    1        3.586   7.720  -4.063  0.00  0.00    -0.060 A 
ATOM     11  C   LIG    1        4.652   8.517  -3.695  0.00  0.00    +0.050 A 
ATOM     12  C   LIG    1        4.836   9.748  -4.297  0.00  0.00    -0.020 A 
ATOM     13  C   LIG    1        3.957  10.182  -5.272  0.00  0.00    +0.050 A 
ATOM     14  C   LIG    1        2.892   9.387  -5.647  0.00  0.00    -0.020 A 
ENDBRANCH   8   9
ENDBRANCH   5   8
ENDBRANCH   1   2
BRANCH   1  15
ATOM     15  N   LIG    1       -0.536   2.660  -1.885  0.00  0.00    -0.660 NA
ATOM     16  H   LIG    1       -0.713   3.576  -1.502  0.00  0.00    +0.350 HD
BRANCH  15  17
ATOM     17  C   LIG    1       -1.597   2.266  -2.821  0.00  0.00    +0.190 C 
ATOM     18  C   LIG    1       -1.752   0.728  -2.866  0.00  0.00    +0.270 C 
ATOM     19  O   LIG    1       -2.773   0.478  -1.885  0.00  0.00    -0.280 OA
ATOM     20  C   LIG    1       -3.580   1.577  -1.794  0.00  0.00    +0.190 A 
ATOM     21  C   LIG    1       -4.862   1.699  -1.266  0.00  0.00    -0.040 A 
ATOM     22  C   LIG    1       -5.498   2.926  -1.256  0.00  0.00    +0.180 A 
ATOM     23  C   LIG    1       -4.865   4.045  -1.772  0.00  0.00    -0.060 A 
ATOM     24  C   LIG    1       -3.590   3.930  -2.302  0.00  0.00    +0.190 A 
ATOM     25  F   LIG    1       -2.967   5.017  -2.806  0.00  0.00    -0.120 F 
ATOM     26  F   LIG    1       -6.742   3.035  -0.742  0.00  0.00    -0.120 F 
ATOM     27  C   LIG    1       -2.958   2.704  -2.315  0.00  0.00    -0.240 A 
ENDBRANCH  15  17
ENDBRANCH   1  15
BRANCH   1  28
ATOM     28  C   LIG    1        1.867   2.449  -1.463  0.00  0.00    +0.040 C 
BRANCH  28  30
ATOM     29  C   LIG    1        2.703   0.999   0.391  0.00  0.00    +0.000 C 
ATOM     30  C   LIG    1        1.689   1.108  -0.749  0.00  0.00    +0.020 C 
ENDBRANCH  28  30
ENDBRANCH   1  28
TORSDOF 7
