REMARK  Name = ZINCrH000004sM6W.0
REMARK                            x       y       z     vdW  Elec       q    Type
REMARK                         _______ _______ _______ _____ _____    ______ ____
ROOT
ATOM      1  C   LIG    1        5.425  -0.997   3.909  0.00  0.00    +0.170 A 
ATOM      2  C   LIG    1        6.275  -0.085   3.302  0.00  0.00    +0.120 A 
ATOM      3  C   LIG    1        7.416   0.338   3.956  0.00  0.00    -0.170 A 
ATOM      4  C   LIG    1        7.715  -0.147   5.216  0.00  0.00    +0.090 A 
ATOM      5  C   LIG    1        6.874  -1.056   5.829  0.00  0.00    +0.030 A 
ATOM      6  C   LIG    1        5.723  -1.482   5.182  0.00  0.00    +0.160 A 
ENDROOT
BRANCH   1   9
ATOM      7  N   LIG    1        3.191  -2.080   1.282  0.00  0.00    -0.620 N 
ATOM      8  C   LIG    1        4.275  -1.581   1.909  0.00  0.00    +0.710 C 
ATOM      9  N   LIG    1        4.268  -1.426   3.247  0.00  0.00    -0.670 N 
ATOM     10  H   LIG    1        3.461  -1.612   3.753  0.00  0.00    +0.420 HD
ATOM     11  O   LIG    1        5.260  -1.272   1.266  0.00  0.00    -0.550 OA
ATOM     12  C   LIG    1        2.004  -2.453   2.057  0.00  0.00    +0.300 C 
BRANCH   7  13
ATOM     13  C   LIG    1        3.198  -2.249  -0.173  0.00  0.00    +0.450 C 
BRANCH  13  18
ATOM     14  C   LIG    1        0.584   1.879  -2.455  0.00  0.00    +0.200 C 
ATOM     15  C   LIG    1        1.513   0.861  -1.848  0.00  0.00    -0.010 A 
ATOM     16  N   LIG    1        2.796   0.986  -1.727  0.00  0.00    -0.260 NA
ATOM     17  N   LIG    1        3.409   0.018  -1.193  0.00  0.00    -0.230 NA
ATOM     18  C   LIG    1        2.686  -0.991  -0.827  0.00  0.00    -0.040 A 
ATOM     19  S   LIG    1        1.050  -0.659  -1.210  0.00  0.00    +0.160 S 
ENDBRANCH  13  18
ENDBRANCH   7  13
ENDBRANCH   1   9
BRANCH   6  20
ATOM     20  N   LIG    1        4.865  -2.401   5.803  0.00  0.00    -0.320 N 
ATOM     21  C   LIG    1        4.982  -2.869   7.066  0.00  0.00    +0.240 A 
ATOM     22  C   LIG    1        3.961  -3.732   7.281  0.00  0.00    -0.100 A 
ATOM     23  C   LIG    1        3.196  -3.793   6.112  0.00  0.00    +0.260 A 
ATOM     24  N   LIG    1        3.733  -2.991   5.228  0.00  0.00    -0.310 NA
ENDBRANCH   6  20
BRANCH   3  25
ATOM     25  C   LIG    1        8.338   1.330   3.295  0.00  0.00    +0.510 C 
ATOM     26  F   LIG    1        8.277   1.170   1.907  0.00  0.00    -0.170 F 
ATOM     27  F   LIG    1        9.649   1.111   3.732  0.00  0.00    -0.180 F 
ATOM     28  F   LIG    1        7.945   2.629   3.633  0.00  0.00    -0.170 F 
ENDBRANCH   3  25
TORSDOF 5
