REMARK  Name = ZINCvU00000009qF.0
REMARK                            x       y       z     vdW  Elec       q    Type
REMARK                         _______ _______ _______ _____ _____    ______ ____
ROOT
ATOM      1  C   LIG    1        0.541   0.508   0.228  0.00  0.00    -0.240 A 
ATOM      2  C   LIG    1        1.863   0.157   0.011  0.00  0.00    +0.140 A 
ATOM      3  C   LIG    1        2.204  -1.274  -0.036  0.00  0.00    -0.130 A 
ATOM      4  C   LIG    1        3.518  -1.694  -0.252  0.00  0.00    +0.100 A 
ATOM      5  C   LIG    1        3.805  -3.041  -0.290  0.00  0.00    -0.020 A 
ATOM      6  C   LIG    1        2.797  -3.978  -0.117  0.00  0.00    +0.090 A 
ATOM      7  C   LIG    1        1.495  -3.579   0.097  0.00  0.00    -0.030 A 
ATOM      8  C   LIG    1        1.183  -2.225   0.139  0.00  0.00    +0.210 A 
ATOM      9  N   LIG    1       -0.117  -1.807   0.352  0.00  0.00    -0.630 N 
ATOM     10  H   LIG    1       -0.814  -2.471   0.471  0.00  0.00    +0.420 HD
ATOM     11  C   LIG    1       -0.435  -0.503   0.402  0.00  0.00    +0.560 A 
ATOM     12  O   LIG    1       -1.594  -0.182   0.598  0.00  0.00    -0.510 OA
ENDROOT
BRANCH   2  13
ATOM     13  C   LIG    1        2.904   1.191  -0.168  0.00  0.00    -0.070 A 
ATOM     14  C   LIG    1        3.542   1.338  -1.401  0.00  0.00    +0.040 A 
ATOM     15  C   LIG    1        4.508   2.309  -1.563  0.00  0.00    +0.010 A 
ATOM     16  C   LIG    1        4.854   3.129  -0.503  0.00  0.00    +0.030 A 
ATOM     17  C   LIG    1        4.230   2.985   0.723  0.00  0.00    +0.010 A 
ATOM     18  C   LIG    1        3.258   2.022   0.897  0.00  0.00    +0.040 A 
ENDBRANCH   2  13
BRANCH   1  19
ATOM     19  S   LIG    1        0.077   2.206   0.294  0.00  0.00    +0.170 S 
BRANCH  19  21
ATOM     20  N   LIG    1       -1.518   3.430  -1.652  0.00  0.00    -0.460 N 
ATOM     21  C   LIG    1       -0.930   2.304  -1.149  0.00  0.00    +0.150 A 
ATOM     22  N   LIG    1       -1.260   1.306  -1.939  0.00  0.00    -0.270 NA
ATOM     23  N   LIG    1       -2.005   1.730  -2.897  0.00  0.00    -0.270 NA
ATOM     24  C   LIG    1       -2.196   3.024  -2.777  0.00  0.00    +0.220 A 
BRANCH  24  25
ATOM     25  C   LIG    1       -2.994   3.881  -3.680  0.00  0.00    -0.010 A 
ATOM     26  C   LIG    1       -3.927   3.309  -4.546  0.00  0.00    +0.060 A 
ATOM     27  C   LIG    1       -4.672   4.115  -5.382  0.00  0.00    +0.010 A 
ATOM     28  C   LIG    1       -4.488   5.486  -5.370  0.00  0.00    +0.020 A 
ATOM     29  C   LIG    1       -3.562   6.059  -4.518  0.00  0.00    +0.010 A 
ATOM     30  C   LIG    1       -2.814   5.265  -3.673  0.00  0.00    +0.010 A 
ENDBRANCH  24  25
BRANCH  20  32
ATOM     31  C   LIG    1       -0.186   5.481  -1.643  0.00  0.00    +0.050 C 
ATOM     32  C   LIG    1       -1.440   4.788  -1.107  0.00  0.00    +0.300 C 
ENDBRANCH  20  32
ENDBRANCH  19  21
ENDBRANCH   1  19
TORSDOF 5
