REMARK  Name = ZINCrD000000CY0i.0
REMARK                            x       y       z     vdW  Elec       q    Type
REMARK                         _______ _______ _______ _____ _____    ______ ____
ROOT
ATOM      1  N   LIG    1        1.391   1.797   0.636  0.00  0.00    -0.720 N 
ATOM      2  H   LIG    1        1.671   2.695   0.873  0.00  0.00    +0.410 HD
ENDROOT
BRANCH   1   5
ATOM      3  O   LIG    1       -1.222   0.924  -0.807  0.00  0.00    -0.500 OA
ATOM      4  C   LIG    1       -1.005   1.536   0.217  0.00  0.00    +0.510 C 
ATOM      5  C   LIG    1        0.138   1.256   1.168  0.00  0.00    +0.250 C 
ATOM      6  C   LIG    1       -0.260   1.991   2.469  0.00  0.00    +0.060 C 
ATOM      7  C   LIG    1       -1.205   3.090   1.935  0.00  0.00    +0.280 C 
ATOM      8  N   LIG    1       -1.745   2.563   0.676  0.00  0.00    -0.580 N 
BRANCH   8   9
ATOM      9  C   LIG    1       -2.882   3.066   0.033  0.00  0.00    +0.150 A 
ATOM     10  C   LIG    1       -2.760   4.088  -0.899  0.00  0.00    +0.030 A 
ATOM     11  C   LIG    1       -3.884   4.579  -1.536  0.00  0.00    +0.030 A 
ATOM     12  C   LIG    1       -5.131   4.061  -1.238  0.00  0.00    +0.040 A 
ATOM     13  C   LIG    1       -5.257   3.046  -0.306  0.00  0.00    +0.030 A 
ATOM     14  C   LIG    1       -4.137   2.547   0.330  0.00  0.00    -0.030 A 
ATOM     15 CL   LIG    1       -4.296   1.274   1.499  0.00  0.00    -0.060 Cl
ENDBRANCH   8   9
ENDBRANCH   1   5
BRANCH   1  16
ATOM     16  C   LIG    1        2.183   1.018  -0.211  0.00  0.00    +0.230 A 
ATOM     17  C   LIG    1        1.732  -0.223  -0.640  0.00  0.00    -0.060 A 
ATOM     18  C   LIG    1        2.516  -0.988  -1.482  0.00  0.00    +0.050 A 
ATOM     19  C   LIG    1        3.754  -0.524  -1.888  0.00  0.00    -0.050 A 
ATOM     20  C   LIG    1        4.208   0.710  -1.458  0.00  0.00    +0.050 A 
ATOM     21  C   LIG    1        3.428   1.482  -0.621  0.00  0.00    -0.150 A 
BRANCH  21  22
ATOM     22  C   LIG    1        3.924   2.825  -0.152  0.00  0.00    +0.230 C 
BRANCH  22  23
ATOM     23  N   LIG    1        3.223   3.889  -0.885  0.00  0.00    -0.530 NA
ATOM     24  C   LIG    1        3.682   3.958  -2.280  0.00  0.00    +0.150 C 
ATOM     25  C   LIG    1        2.885   5.035  -3.021  0.00  0.00    +0.220 C 
ATOM     26  O   LIG    1        3.035   6.284  -2.339  0.00  0.00    -0.380 OA
ATOM     27  C   LIG    1        2.598   6.253  -0.978  0.00  0.00    +0.230 C 
ATOM     28  C   LIG    1        3.391   5.187  -0.217  0.00  0.00    +0.140 C 
ENDBRANCH  22  23
ENDBRANCH  21  22
ENDBRANCH   1  16
TORSDOF 5
