REMARK  Name = ZINCpk00000SDIZ2.0
REMARK                            x       y       z     vdW  Elec       q    Type
REMARK                         _______ _______ _______ _____ _____    ______ ____
ROOT
ATOM      1  N   LIG    1        0.285   3.177   4.160  0.00  0.00    -0.290 N 
ATOM      2  C   LIG    1       -0.750   2.776   3.386  0.00  0.00    +0.140 A 
ATOM      3  C   LIG    1       -0.201   2.266   2.258  0.00  0.00    -0.030 A 
ATOM      4  N   LIG    1        1.124   2.387   2.393  0.00  0.00    -0.250 NA
ATOM      5  N   LIG    1        1.380   2.930   3.530  0.00  0.00    -0.060 NA
ENDROOT
BRANCH   3   6
ATOM      6  C   LIG    1       -0.939   1.683   1.080  0.00  0.00    +0.190 C 
ATOM      7  C   LIG    1       -0.013   1.086   0.008  0.00  0.00    +0.120 C 
ATOM      8  C   LIG    1       -0.959   1.695  -1.040  0.00  0.00    +0.010 C 
ATOM      9  C   LIG    1       -1.349   2.730   0.028  0.00  0.00    +0.060 C 
BRANCH   8  10
ATOM     10  C   LIG    1       -2.089   0.780  -1.437  0.00  0.00    +0.480 C 
ATOM     11  O   LIG    1       -2.182  -0.317  -0.939  0.00  0.00    -0.480 OA
BRANCH  10  12
ATOM     12  O   LIG    1       -2.992   1.184  -2.345  0.00  0.00    -0.350 OA
BRANCH  12  13
ATOM     13  C   LIG    1       -4.053   0.250  -2.679  0.00  0.00    +0.120 C 
ATOM     14  C   LIG    1       -3.443  -1.032  -3.248  0.00  0.00    +0.030 C 
ATOM     15  C   LIG    1       -4.978   0.882  -3.722  0.00  0.00    +0.080 C 
ATOM     16  C   LIG    1       -4.856  -0.082  -1.420  0.00  0.00    +0.040 C 
ENDBRANCH  12  13
ENDBRANCH  10  12
ENDBRANCH   8  10
BRANCH   6  17
ATOM     17  O   LIG    1       -2.004   0.813   1.467  0.00  0.00    -0.510 OA
ATOM     18  H   LIG    1       -2.590   1.183   2.141  0.00  0.00    +0.370 HD
ENDBRANCH   6  17
ENDBRANCH   3   6
BRANCH   1  19
ATOM     19  C   LIG    1        0.177   3.791   5.486  0.00  0.00    +0.440 C 
BRANCH  19  24
ATOM     20  N   LIG    1        0.546   2.011   7.302  0.00  0.00    -0.450 N 
ATOM     21  C   LIG    1        1.606   1.574   8.015  0.00  0.00    +0.420 A 
ATOM     22  N   LIG    1        2.660   2.256   7.661  0.00  0.00    -0.490 NA
ATOM     23  C   LIG    1        2.315   3.142   6.714  0.00  0.00    +0.200 A 
ATOM     24  C   LIG    1        0.998   3.003   6.473  0.00  0.00    -0.070 A 
BRANCH  20  26
ATOM     25  C   LIG    1       -1.062   0.449   6.326  0.00  0.00    +0.040 C 
ATOM     26  C   LIG    1       -0.829   1.516   7.396  0.00  0.00    +0.290 C 
ENDBRANCH  20  26
ENDBRANCH  19  24
ENDBRANCH   1  19
TORSDOF 8
