REMARK  Name = ZINCrH000004so5b.0
REMARK                            x       y       z     vdW  Elec       q    Type
REMARK                         _______ _______ _______ _____ _____    ______ ____
ROOT
ATOM      1  C   LIG    1        3.626   0.490  -0.315  0.00  0.00    +0.470 C 
ENDROOT
BRANCH   1   7
ATOM      2  C   LIG    1        1.381   1.218   0.571  0.00  0.00    +0.340 A 
ATOM      3  N   LIG    1        0.251   0.613   0.878  0.00  0.00    -0.530 NA
ATOM      4  C   LIG    1        0.364  -0.693   0.651  0.00  0.00    +0.230 A 
ATOM      5  N   LIG    1        1.563  -0.949   0.197  0.00  0.00    -0.320 NA
ATOM      6  C   LIG    1       -0.719  -1.715   0.881  0.00  0.00    +0.190 C 
ATOM      7  N   LIG    1        2.248   0.276   0.134  0.00  0.00    -0.370 N 
BRANCH   2  14
ATOM      8  C   LIG    1       -0.459   3.115  -0.605  0.00  0.00    +0.100 C 
ATOM      9  C   LIG    1        0.772   3.592   0.121  0.00  0.00    -0.030 A 
ATOM     10  C   LIG    1        1.031   4.942   0.230  0.00  0.00    +0.010 A 
ATOM     11  C   LIG    1        2.162   5.381   0.896  0.00  0.00    +0.030 A 
ATOM     12  C   LIG    1        3.039   4.470   1.457  0.00  0.00    +0.000 A 
ATOM     13  C   LIG    1        2.788   3.117   1.359  0.00  0.00    +0.030 A 
ATOM     14  C   LIG    1        1.653   2.668   0.684  0.00  0.00    -0.020 A 
ENDBRANCH   2  14
ENDBRANCH   1   7
BRANCH   1  15
ATOM     15  N   LIG    1        3.634   0.775  -1.756  0.00  0.00    -0.540 NA
ATOM     16  C   LIG    1        3.193  -0.395  -2.526  0.00  0.00    +0.200 C 
BRANCH  15  17
ATOM     17  C   LIG    1        4.960   1.227  -2.196  0.00  0.00    +0.220 C 
BRANCH  17  18
ATOM     18  C   LIG    1        5.173   2.680  -1.766  0.00  0.00    +0.210 C 
ATOM     19  O   LIG    1        4.179   3.503  -2.375  0.00  0.00    -0.350 OA
ATOM     20  C   LIG    1        4.405   4.903  -2.173  0.00  0.00    +0.210 C 
ATOM     21  C   LIG    1        5.616   5.319  -3.009  0.00  0.00    +0.050 C 
ATOM     22  C   LIG    1        6.757   4.365  -2.764  0.00  0.00    -0.070 A 
ATOM     23  C   LIG    1        8.037   4.747  -3.133  0.00  0.00    +0.000 A 
ATOM     24  C   LIG    1        9.104   3.893  -2.932  0.00  0.00    +0.010 A 
ATOM     25  C   LIG    1        8.893   2.652  -2.359  0.00  0.00    +0.000 A 
ATOM     26  C   LIG    1        7.619   2.272  -1.988  0.00  0.00    +0.010 A 
ATOM     27  C   LIG    1        6.548   3.129  -2.188  0.00  0.00    -0.120 A 
ENDBRANCH  17  18
ENDBRANCH  15  17
ENDBRANCH   1  15
TORSDOF 5
