REMARK  Name = ZINCnE000001Tp2F.1
REMARK                            x       y       z     vdW  Elec       q    Type
REMARK                         _______ _______ _______ _____ _____    ______ ____
ROOT
ATOM      1  C   LIG    1       -1.170   2.136  -0.055  0.00  0.00    +0.020 A 
ATOM      2  C   LIG    1       -2.424   1.544   0.012  0.00  0.00    +0.060 A 
ATOM      3  C   LIG    1       -3.561   2.325  -0.047  0.00  0.00    -0.150 A 
ATOM      4  C   LIG    1       -3.450   3.703  -0.184  0.00  0.00    +0.270 A 
ATOM      5  C   LIG    1       -2.196   4.295  -0.257  0.00  0.00    -0.050 A 
ATOM      6  C   LIG    1       -1.059   3.514  -0.193  0.00  0.00    +0.020 A 
ENDROOT
BRANCH   1   9
ATOM      7  O   LIG    1       -0.965  -0.044   1.457  0.00  0.00    -0.530 OA
ATOM      8  C   LIG    1       -0.009   0.225   0.761  0.00  0.00    +0.530 C 
ATOM      9  N   LIG    1       -0.016   1.344   0.009  0.00  0.00    -0.650 N 
ATOM     10  H   LIG    1        0.776   1.598  -0.490  0.00  0.00    +0.400 HD
BRANCH   8  11
ATOM     11  C   LIG    1        1.187  -0.692   0.735  0.00  0.00    -0.070 C 
ATOM     12  C   LIG    1        1.009  -2.068   0.090  0.00  0.00    +0.050 C 
ATOM     13  C   LIG    1        1.135  -1.946   1.610  0.00  0.00    +0.060 C 
ENDBRANCH   8  11
ENDBRANCH   1   9
BRANCH   4  14
ATOM     14  N   LIG    1       -4.602   4.494  -0.250  0.00  0.00    -1.090 NA
BRANCH  14  15
ATOM     15  S   LIG    1       -6.097   3.789  -0.164  0.00  0.00    +2.600 S 
ATOM     16  O   LIG    1       -6.212   3.251   1.147  0.00  0.00    -1.020 OA
ATOM     17  O   LIG    1       -6.240   3.005  -1.340  0.00  0.00    -1.030 OA
BRANCH  15  18
ATOM     18  C   LIG    1       -7.291   5.080  -0.278  0.00  0.00    -0.600 A 
ATOM     19  C   LIG    1       -7.750   5.700   0.869  0.00  0.00    +0.120 A 
ATOM     20  C   LIG    1       -8.682   6.717   0.779  0.00  0.00    +0.010 A 
ATOM     21  C   LIG    1       -9.164   7.106  -0.457  0.00  0.00    +0.050 A 
ATOM     22  C   LIG    1       -8.709   6.482  -1.604  0.00  0.00    -0.060 A 
ATOM     23 CL   LIG    1       -9.313   6.970  -3.157  0.00  0.00    -0.070 Cl
ATOM     24  C   LIG    1       -7.772   5.468  -1.514  0.00  0.00    +0.140 A 
ENDBRANCH  15  18
ENDBRANCH  14  15
ENDBRANCH   4  14
TORSDOF 5
