REMARK  Name = ZINCrD000000fILf.0
REMARK                            x       y       z     vdW  Elec       q    Type
REMARK                         _______ _______ _______ _____ _____    ______ ____
ROOT
ATOM      1  C   LIG    1        1.180   3.680  -0.023  0.00  0.00    +0.580 C 
ATOM      2  N   LIG    1        2.344   4.352  -0.119  0.00  0.00    -0.610 N 
ATOM      3  C   LIG    1        3.671   3.746  -0.327  0.00  0.00    +0.250 C 
ATOM      4  C   LIG    1        4.674   4.780   0.238  0.00  0.00    +0.040 C 
ATOM      5  C   LIG    1        4.006   6.120  -0.167  0.00  0.00    +0.050 C 
ATOM      6  C   LIG    1        2.500   5.811  -0.028  0.00  0.00    +0.270 C 
ATOM      7  O   LIG    1        0.133   4.288   0.089  0.00  0.00    -0.520 OA
ENDROOT
BRANCH   6   8
ATOM      8  C   LIG    1        1.732   6.479  -1.139  0.00  0.00    -0.080 A 
ATOM      9  C   LIG    1        1.729   5.926  -2.406  0.00  0.00    +0.030 A 
ATOM     10  C   LIG    1        1.026   6.536  -3.428  0.00  0.00    +0.020 A 
ATOM     11  C   LIG    1        0.321   7.705  -3.185  0.00  0.00    +0.050 A 
ATOM     12  O   LIG    1       -0.363   8.296  -4.202  0.00  0.00    -0.310 OA
ATOM     13  C   LIG    1       -1.357   9.259  -3.835  0.00  0.00    +0.220 C 
ATOM     14  C   LIG    1       -0.753  10.195  -2.779  0.00  0.00    +0.220 C 
ATOM     15  O   LIG    1       -0.365   9.406  -1.649  0.00  0.00    -0.310 OA
ATOM     16  C   LIG    1        0.323   8.261  -1.911  0.00  0.00    +0.050 A 
ATOM     17  C   LIG    1        1.027   7.642  -0.889  0.00  0.00    +0.030 A 
ENDBRANCH   6   8
BRANCH   1  21
ATOM     18  C   LIG    1        1.167  -0.567  -0.110  0.00  0.00    +0.170 A 
ATOM     19  C   LIG    1        0.151   0.117   0.551  0.00  0.00    +0.010 A 
ATOM     20  C   LIG    1        0.152   1.494   0.582  0.00  0.00    +0.100 A 
ATOM     21  C   LIG    1        1.175   2.204  -0.053  0.00  0.00    -0.150 A 
ATOM     22  C   LIG    1        2.194   1.514  -0.715  0.00  0.00    +0.060 A 
ATOM     23  C   LIG    1        2.187   0.138  -0.742  0.00  0.00    -0.020 A 
BRANCH  18  26
ATOM     24  C   LIG    1        0.587  -4.156   0.846  0.00  0.00    +0.110 C 
ATOM     25  C   LIG    1        0.697  -2.655   0.919  0.00  0.00    +0.510 C 
ATOM     26  N   LIG    1        1.163  -1.961  -0.138  0.00  0.00    -0.680 N 
ATOM     27  H   LIG    1        1.495  -2.431  -0.918  0.00  0.00    +0.410 HD
ATOM     28  O   LIG    1        0.366  -2.071   1.930  0.00  0.00    -0.520 OA
ENDBRANCH  18  26
ENDBRANCH   1  21
TORSDOF 3
