REMARK  Name = ZINCpe000027pHtp.0
REMARK                            x       y       z     vdW  Elec       q    Type
REMARK                         _______ _______ _______ _____ _____    ______ ____
ROOT
ATOM      1  C   LIG    1        1.220   1.837   0.172  0.00  0.00    -0.070 A 
ATOM      2  C   LIG    1        0.041   1.096   0.029  0.00  0.00    +0.020 A 
ATOM      3  C   LIG    1       -1.170   1.748  -0.097  0.00  0.00    +0.090 A 
ATOM      4  C   LIG    1       -1.217   3.142  -0.069  0.00  0.00    +0.190 A 
ATOM      5  C   LIG    1       -0.048   3.878   0.073  0.00  0.00    -0.670 A 
ATOM      6  C   LIG    1        1.164   3.235   0.193  0.00  0.00    +0.140 A 
ENDROOT
BRANCH   5   7
ATOM      7  S   LIG    1       -0.116   5.638   0.101  0.00  0.00    +2.710 S 
ATOM      8  O   LIG    1       -0.924   6.026  -1.002  0.00  0.00    -0.940 OA
ATOM      9  O   LIG    1        1.220   6.088   0.281  0.00  0.00    -0.950 OA
BRANCH   7  10
ATOM     10  N   LIG    1       -0.945   6.076   1.465  0.00  0.00    -0.990 NA
ATOM     11  C   LIG    1       -2.382   6.350   1.393  0.00  0.00    +0.300 C 
BRANCH  10  12
ATOM     12  C   LIG    1       -0.242   6.189   2.745  0.00  0.00    +0.260 C 
BRANCH  12  13
ATOM     13  C   LIG    1        0.065   7.660   3.031  0.00  0.00    +0.180 C 
ATOM     14  C   LIG    1        0.799   7.778   4.368  0.00  0.00    +0.010 C 
BRANCH  13  15
ATOM     15  O   LIG    1        0.887   8.187   1.988  0.00  0.00    -0.560 OA
ATOM     16  H   LIG    1        1.735   7.733   1.888  0.00  0.00    +0.380 HD
ENDBRANCH  13  15
ENDBRANCH  12  13
ENDBRANCH  10  12
ENDBRANCH   7  10
ENDBRANCH   5   7
BRANCH   1  18
ATOM     17  C   LIG    1        2.563  -0.202   0.279  0.00  0.00    -0.060 C 
ATOM     18  C   LIG    1        2.512   1.148   0.300  0.00  0.00    +0.160 C 
BRANCH  17  19
ATOM     19  C   LIG    1        3.809  -0.866   0.401  0.00  0.00    +0.500 C 
ATOM     20  O   LIG    1        4.833  -0.220   0.526  0.00  0.00    -0.510 OA
BRANCH  19  22
ATOM     21  C   LIG    1        5.150  -2.816   0.509  0.00  0.00    +0.250 C 
ATOM     22  O   LIG    1        3.861  -2.214   0.380  0.00  0.00    -0.350 OA
ENDBRANCH  19  22
ENDBRANCH  17  19
ENDBRANCH   1  18
BRANCH   4  23
ATOM     23  O   LIG    1       -2.409   3.781  -0.187  0.00  0.00    -0.330 OA
ATOM     24  C   LIG    1       -2.908   3.985  -1.510  0.00  0.00    +0.250 C 
ENDBRANCH   4  23
BRANCH   3  25
ATOM     25  O   LIG    1       -2.317   1.032  -0.242  0.00  0.00    -0.300 OA
ATOM     26  C   LIG    1       -2.195  -0.392  -0.257  0.00  0.00    +0.250 C 
ENDBRANCH   3  25
TORSDOF 10
