REMARK  Name = ZINCpk00000y65Dv.0
REMARK                            x       y       z     vdW  Elec       q    Type
REMARK                         _______ _______ _______ _____ _____    ______ ____
ROOT
ATOM      1  N   LIG    1       -0.270  -0.075   1.931  0.00  0.00    -0.690 NA
ATOM      2  H   LIG    1       -0.985  -0.725   2.017  0.00  0.00    +0.410 HD
ENDROOT
BRANCH   1   7
ATOM      3  N   LIG    1        0.376  -0.251   4.284  0.00  0.00    -0.370 N 
ATOM      4  N   LIG    1        1.383   0.378   5.037  0.00  0.00    -0.090 NA
ATOM      5  N   LIG    1        2.008   1.172   4.236  0.00  0.00    -0.010 NA
ATOM      6  N   LIG    1        1.503   1.106   3.057  0.00  0.00    -0.350 NA
ATOM      7  C   LIG    1        0.505   0.250   3.030  0.00  0.00    +0.500 C 
BRANCH   3  12
ATOM      8  C   LIG    1       -3.412  -4.068   6.099  0.00  0.00    +0.100 C 
ATOM      9  C   LIG    1       -2.406  -3.055   5.617  0.00  0.00    -0.070 A 
ATOM     10  C   LIG    1       -1.071  -3.198   5.945  0.00  0.00    +0.040 A 
ATOM     11  C   LIG    1       -0.147  -2.271   5.504  0.00  0.00    +0.050 A 
ATOM     12  C   LIG    1       -0.560  -1.194   4.732  0.00  0.00    +0.130 A 
ATOM     13  C   LIG    1       -1.902  -1.050   4.409  0.00  0.00    +0.010 A 
ATOM     14  C   LIG    1       -2.821  -1.983   4.848  0.00  0.00    +0.040 A 
ENDBRANCH   3  12
ENDBRANCH   1   7
BRANCH   1  15
ATOM     15  C   LIG    1       -0.011   0.563   0.638  0.00  0.00    +0.280 C 
ATOM     16  C   LIG    1       -1.280   0.524  -0.237  0.00  0.00    +0.050 C 
ATOM     17  C   LIG    1       -0.919  -0.281  -1.503  0.00  0.00    -0.020 C 
ATOM     18  C   LIG    1        0.621  -0.150  -1.610  0.00  0.00    +0.020 C 
ATOM     19  C   LIG    1        1.073  -0.221  -0.130  0.00  0.00    +0.150 C 
BRANCH  19  20
ATOM     20  O   LIG    1        2.350   0.401   0.033  0.00  0.00    -0.550 OA
ATOM     21  H   LIG    1        3.064  -0.035  -0.453  0.00  0.00    +0.380 HD
ENDBRANCH  19  20
BRANCH  17  22
ATOM     22  C   LIG    1       -1.595   0.325  -2.734  0.00  0.00    +0.330 C 
BRANCH  22  23
ATOM     23  N   LIG    1       -1.261  -0.472  -3.917  0.00  0.00    -0.370 N 
ATOM     24  C   LIG    1       -2.143  -1.032  -4.771  0.00  0.00    +0.220 A 
ATOM     25  C   LIG    1       -1.437  -1.682  -5.726  0.00  0.00    -0.120 A 
ATOM     26  C   LIG    1       -0.077  -1.512  -5.445  0.00  0.00    +0.220 A 
ATOM     27  N   LIG    1        0.029  -0.783  -4.364  0.00  0.00    -0.290 NA
ENDBRANCH  22  23
ENDBRANCH  17  22
ENDBRANCH   1  15
TORSDOF 6
