REMARK  Name = ZINCpe00000MJLEQ.0
REMARK                            x       y       z     vdW  Elec       q    Type
REMARK                         _______ _______ _______ _____ _____    ______ ____
ROOT
ATOM      1  C   LIG    1        0.024   0.634   7.303  0.00  0.00    +0.080 C 
ATOM      2  C   LIG    1       -0.342   1.547   8.493  0.00  0.00    +0.060 C 
ATOM      3  C   LIG    1       -0.405   2.971   7.901  0.00  0.00    +0.040 C 
ATOM      4  C   LIG    1       -0.072   2.798   6.404  0.00  0.00    +0.170 C 
ATOM      5  N   LIG    1       -0.423   1.386   6.103  0.00  0.00    -0.460 NA
ENDROOT
BRANCH   1   9
ATOM      6  C   LIG    1        3.798   1.243   7.140  0.00  0.00    +0.280 C 
ATOM      7  N   LIG    1        2.358   1.454   7.306  0.00  0.00    -0.740 N 
ATOM      8  H   LIG    1        2.013   2.349   7.452  0.00  0.00    +0.400 HD
ATOM      9  C   LIG    1        1.513   0.405   7.255  0.00  0.00    +0.500 C 
ATOM     10  O   LIG    1        1.951  -0.723   7.171  0.00  0.00    -0.510 OA
ENDBRANCH   1   9
BRANCH   1  11
ATOM     11  C   LIG    1       -0.719  -0.699   7.406  0.00  0.00    +0.220 C 
BRANCH  11  12
ATOM     12  O   LIG    1       -0.274  -1.405   8.566  0.00  0.00    -0.380 OA
ATOM     13  C   LIG    1       -0.909  -2.671   8.755  0.00  0.00    +0.210 C 
ENDBRANCH  11  12
ENDBRANCH   1  11
BRANCH   5  14
ATOM     14  C   LIG    1        0.273   0.916   4.897  0.00  0.00    +0.210 C 
BRANCH  14  15
ATOM     15  C   LIG    1       -0.451   1.414   3.673  0.00  0.00    +0.520 C 
ATOM     16  N   LIG    1        0.010   1.104   2.445  0.00  0.00    -0.610 N 
ATOM     17  C   LIG    1        1.214   0.283   2.301  0.00  0.00    +0.310 C 
ATOM     18  O   LIG    1       -1.449   2.093   3.793  0.00  0.00    -0.500 OA
BRANCH  16  19
ATOM     19  C   LIG    1       -0.694   1.588   1.255  0.00  0.00    +0.290 C 
ATOM     20  C   LIG    1        0.031   1.098  -0.001  0.00  0.00    +0.050 C 
ATOM     21  C   LIG    1       -0.704   1.603  -1.244  0.00  0.00    +0.020 C 
ATOM     22  C   LIG    1       -0.730   3.133  -1.234  0.00  0.00    +0.020 C 
ATOM     23  C   LIG    1       -1.455   3.623   0.021  0.00  0.00    +0.020 C 
ATOM     24  C   LIG    1       -0.720   3.117   1.264  0.00  0.00    +0.040 C 
BRANCH  19  25
ATOM     25  C   LIG    1       -2.073   1.073   1.257  0.00  0.00    +0.200 C 
ATOM     26  N   LIG    1       -3.138   0.676   1.259  0.00  0.00    -0.410 NA
ENDBRANCH  19  25
ENDBRANCH  16  19
ENDBRANCH  14  15
ENDBRANCH   5  14
TORSDOF 7
