REMARK  Name = ZINCvU0000000BwZ.0
REMARK                            x       y       z     vdW  Elec       q    Type
REMARK                         _______ _______ _______ _____ _____    ______ ____
ROOT
ATOM      1  C   LIG    1       -0.718   1.572   1.248  0.00  0.00    +0.460 A 
ATOM      2  N   LIG    1       -1.784   2.310   1.113  0.00  0.00    -0.550 NA
ATOM      3  C   LIG    1       -2.458   2.768   2.181  0.00  0.00    +0.540 A 
ATOM      4  C   LIG    1       -1.965   2.431   3.530  0.00  0.00    -0.220 A 
ATOM      5  C   LIG    1       -0.827   1.649   3.613  0.00  0.00    +0.060 A 
ATOM      6  S   LIG    1       -0.412   1.366   5.297  0.00  0.00    +0.190 S 
ATOM      7  C   LIG    1       -1.779   2.306   5.864  0.00  0.00    -0.040 A 
ATOM      8  C   LIG    1       -2.485   2.790   4.842  0.00  0.00    +0.010 A 
ATOM      9  O   LIG    1       -3.457   3.454   2.038  0.00  0.00    -0.460 OA
ATOM     10  N   LIG    1       -0.221   1.232   2.447  0.00  0.00    -0.590 N 
ATOM     11  H   LIG    1        0.578   0.684   2.494  0.00  0.00    +0.420 HD
ENDROOT
BRANCH   8  12
ATOM     12  C   LIG    1       -3.697   3.623   5.026  0.00  0.00    -0.040 A 
ATOM     13  C   LIG    1       -3.824   4.834   4.346  0.00  0.00    +0.060 A 
ATOM     14  C   LIG    1       -4.957   5.603   4.517  0.00  0.00    +0.000 A 
ATOM     15  C   LIG    1       -5.962   5.179   5.368  0.00  0.00    +0.010 A 
ATOM     16  C   LIG    1       -5.840   3.981   6.049  0.00  0.00    -0.010 A 
ATOM     17  C   LIG    1       -4.713   3.201   5.882  0.00  0.00    +0.020 A 
ENDBRANCH   8  12
BRANCH   1  18
ATOM     18  C   LIG    1       -0.013   1.086   0.008  0.00  0.00    +0.140 C 
BRANCH  18  19
ATOM     19  S   LIG    1       -0.890   1.687  -1.462  0.00  0.00    -0.050 S 
BRANCH  19  21
ATOM     20  C   LIG    1        0.007  -0.517  -2.811  0.00  0.00    +0.080 C 
ATOM     21  C   LIG    1        0.092   1.010  -2.828  0.00  0.00    -0.020 C 
BRANCH  21  22
ATOM     22  C   LIG    1       -0.445   1.528  -4.138  0.00  0.00    +0.540 C 
ATOM     23  N   LIG    1        0.330   1.506  -5.240  0.00  0.00    -0.720 N 
ATOM     24  H   LIG    1        1.233   1.156  -5.191  0.00  0.00    +0.400 HD
ATOM     25  O   LIG    1       -1.575   1.965  -4.199  0.00  0.00    -0.510 OA
BRANCH  23  26
ATOM     26  C   LIG    1       -0.193   2.009  -6.513  0.00  0.00    +0.330 C 
BRANCH  26  27
ATOM     27  C   LIG    1        0.864   1.872  -7.579  0.00  0.00    -0.100 A 
ATOM     28  C   LIG    1        0.760   0.876  -8.531  0.00  0.00    +0.050 A 
ATOM     29  C   LIG    1        1.729   0.751  -9.509  0.00  0.00    +0.010 A 
ATOM     30  C   LIG    1        2.803   1.621  -9.535  0.00  0.00    +0.030 A 
ATOM     31  C   LIG    1        2.908   2.617  -8.582  0.00  0.00    +0.030 A 
ATOM     32  C   LIG    1        1.935   2.748  -7.607  0.00  0.00    -0.020 A 
ATOM     33 CL   LIG    1        2.062   4.003  -6.416  0.00  0.00    -0.060 Cl
ENDBRANCH  26  27
ENDBRANCH  23  26
ENDBRANCH  21  22
ENDBRANCH  19  21
ENDBRANCH  18  19
ENDBRANCH   1  18
TORSDOF 7
