REMARK  Name = ZINCqH0000004B7b.0
REMARK                            x       y       z     vdW  Elec       q    Type
REMARK                         _______ _______ _______ _____ _____    ______ ____
ROOT
ATOM      1  N   LIG    1       -3.914   6.724   0.073  0.00  0.00    -0.600 N 
ATOM      2  H   LIG    1       -4.341   5.853   0.073  0.00  0.00    +0.440 HD
ATOM      3  C   LIG    1       -2.570   6.816   0.061  0.00  0.00    +0.620 C 
ATOM      4  O   LIG    1       -2.036   7.908   0.061  0.00  0.00    -0.470 OA
ENDROOT
BRANCH   3   5
ATOM      5  C   LIG    1       -1.743   5.588   0.048  0.00  0.00    +0.240 A 
ATOM      6  N   LIG    1       -0.424   5.556   0.035  0.00  0.00    -0.250 NA
ATOM      7  N   LIG    1       -0.049   4.206   0.025  0.00  0.00    -0.330 N 
ATOM      8  C   LIG    1        1.157   3.573   0.010  0.00  0.00    +0.210 A 
ATOM      9  C   LIG    1        1.188   2.216   0.003  0.00  0.00    -0.030 A 
ATOM     10  C   LIG    1       -0.018   1.503   0.010  0.00  0.00    +0.240 A 
ATOM     11  N   LIG    1       -1.166   2.140   0.019  0.00  0.00    -0.460 NA
ATOM     12  C   LIG    1        0.002  -0.004   0.002  0.00  0.00    +0.170 C 
ATOM     13  C   LIG    1        2.437   4.367   0.002  0.00  0.00    +0.180 C 
ATOM     14  C   LIG    1       -1.209   3.479   0.032  0.00  0.00    +0.460 A 
ATOM     15  N   LIG    1       -2.216   4.340   0.046  0.00  0.00    -0.500 NA
ENDBRANCH   3   5
BRANCH   1  19
ATOM     16  C   LIG    1       -6.559   9.102   0.108  0.00  0.00    +0.160 A 
ATOM     17  C   LIG    1       -5.711  10.149   0.105  0.00  0.00    -0.110 A 
ATOM     18  S   LIG    1       -4.064   9.522   0.095  0.00  0.00    +0.220 S 
ATOM     19  C   LIG    1       -4.689   7.876   0.086  0.00  0.00    +0.280 A 
ATOM     20  N   LIG    1       -5.985   7.907   0.098  0.00  0.00    -0.490 NA
BRANCH  16  24
ATOM     21  C   LIG    1      -10.428  10.006   0.148  0.00  0.00    -0.170 A 
ATOM     22  C   LIG    1      -10.248   8.683   0.140  0.00  0.00    +0.000 A 
ATOM     23  C   LIG    1       -8.929   8.273   0.121  0.00  0.00    +0.060 A 
ATOM     24  C   LIG    1       -8.028   9.275   0.123  0.00  0.00    -0.130 A 
ATOM     25  S   LIG    1       -8.869  10.820   0.138  0.00  0.00    +0.130 S 
BRANCH  21  27
ATOM     26  C   LIG    1      -12.207  10.925   1.610  0.00  0.00    +0.030 C 
ATOM     27  C   LIG    1      -11.767  10.698   0.163  0.00  0.00    +0.110 C 
ENDBRANCH  21  27
ENDBRANCH  16  24
ENDBRANCH   1  19
TORSDOF 4
