REMARK  Name = ZINCqH0000004B7B.1
REMARK                            x       y       z     vdW  Elec       q    Type
REMARK                         _______ _______ _______ _____ _____    ______ ____
ROOT
ATOM      1  C   LIG    1        9.912   4.057   0.487  0.00  0.00    +0.280 A 
ATOM      2  N   LIG    1       10.801   3.092   0.551  0.00  0.00    -0.290 NA
ATOM      3  N   LIG    1       10.094   1.880   0.489  0.00  0.00    -0.460 N 
ATOM      4  H   LIG    1       10.471   0.987   0.513  0.00  0.00    +0.450 HD
ATOM      5  C   LIG    1        8.786   2.204   0.389  0.00  0.00    +0.250 A 
ATOM      6  N   LIG    1        8.690   3.515   0.384  0.00  0.00    -0.530 NA
ENDROOT
BRANCH   1  10
ATOM      7  C   LIG    1       10.771   8.220   0.578  0.00  0.00    -0.060 A 
ATOM      8  C   LIG    1       11.803   7.302   0.653  0.00  0.00    +0.010 A 
ATOM      9  C   LIG    1       11.530   5.950   0.625  0.00  0.00    +0.050 A 
ATOM     10  C   LIG    1       10.212   5.510   0.519  0.00  0.00    -0.030 A 
ATOM     11  C   LIG    1        9.177   6.439   0.438  0.00  0.00    +0.060 A 
ATOM     12  C   LIG    1        9.461   7.790   0.473  0.00  0.00    +0.010 A 
BRANCH   7  14
ATOM     13  C   LIG    1       11.292  10.204  -0.817  0.00  0.00    +0.030 C 
ATOM     14  C   LIG    1       11.076   9.696   0.610  0.00  0.00    +0.050 C 
ENDBRANCH   7  14
ENDBRANCH   1  10
BRANCH   5  15
ATOM     15  S   LIG    1        7.444   1.067   0.276  0.00  0.00    +0.100 S 
BRANCH  15  16
ATOM     16  C   LIG    1        6.058   2.226   0.174  0.00  0.00    +0.110 C 
BRANCH  16  17
ATOM     17  C   LIG    1        4.766   1.457   0.068  0.00  0.00    +0.530 C 
ATOM     18  N   LIG    1        3.594   2.116  -0.020  0.00  0.00    -0.650 N 
ATOM     19  H   LIG    1        3.586   3.083  -0.095  0.00  0.00    +0.420 HD
ATOM     20  O   LIG    1        4.782   0.244   0.062  0.00  0.00    -0.510 OA
BRANCH  18  21
ATOM     21  C   LIG    1        2.387   1.405  -0.002  0.00  0.00    +0.120 A 
ATOM     22  C   LIG    1        2.324   0.157   0.599  0.00  0.00    +0.060 A 
ATOM     23  C   LIG    1        1.132  -0.543   0.616  0.00  0.00    +0.000 A 
ATOM     24  C   LIG    1        0.001  -0.001   0.036  0.00  0.00    +0.040 A 
ATOM     25  C   LIG    1        0.055   1.243  -0.565  0.00  0.00    -0.060 A 
ATOM     26  C   LIG    1        1.246   1.951  -0.587  0.00  0.00    +0.100 A 
BRANCH  26  27
ATOM     27  O   LIG    1        1.302   3.174  -1.178  0.00  0.00    -0.320 OA
ATOM     28  C   LIG    1        0.093   3.670  -1.757  0.00  0.00    +0.250 C 
ENDBRANCH  26  27
ENDBRANCH  18  21
ENDBRANCH  16  17
ENDBRANCH  15  16
ENDBRANCH   5  15
TORSDOF 7
