REMARK  Name = ZINCpk00000jAlMl.0
REMARK                            x       y       z     vdW  Elec       q    Type
REMARK                         _______ _______ _______ _____ _____    ______ ____
ROOT
ATOM      1  C   LIG    1        2.913   1.244   0.748  0.00  0.00    +0.250 C 
ATOM      2  C   LIG    1        3.731   1.093   2.058  0.00  0.00    +0.030 C 
ATOM      3  C   LIG    1        5.185   0.998   1.549  0.00  0.00    +0.260 C 
ATOM      4  N   LIG    1        5.220   1.609   0.212  0.00  0.00    -0.610 N 
ATOM      5  C   LIG    1        6.307   1.705  -0.579  0.00  0.00    +0.510 C 
ATOM      6  O   LIG    1        7.389   1.344  -0.169  0.00  0.00    -0.520 OA
ATOM      7  C   LIG    1        3.870   2.100  -0.119  0.00  0.00    +0.260 C 
ENDROOT
BRANCH   1   9
ATOM      8  C   LIG    1        0.532   1.255   1.265  0.00  0.00    +0.600 C 
ATOM      9  N   LIG    1        1.654   1.951   0.994  0.00  0.00    -0.720 N 
ATOM     10  H   LIG    1        1.627   2.920   0.962  0.00  0.00    +0.400 HD
ATOM     11  O   LIG    1        0.565   0.040   1.305  0.00  0.00    -0.540 OA
BRANCH   8  14
ATOM     12  N   LIG    1       -2.848   2.384   1.938  0.00  0.00    -0.360 N 
ATOM     13  C   LIG    1       -1.960   1.389   1.783  0.00  0.00    +0.320 A 
ATOM     14  C   LIG    1       -0.737   1.966   1.507  0.00  0.00    -0.300 A 
ATOM     15  C   LIG    1       -0.929   3.366   1.493  0.00  0.00    +0.270 A 
ATOM     16  N   LIG    1       -2.186   3.603   1.750  0.00  0.00    -0.290 NA
BRANCH  12  17
ATOM     17  C   LIG    1       -4.271   2.221   2.245  0.00  0.00    +0.320 C 
BRANCH  17  19
ATOM     18  C   LIG    1       -6.105   2.861   3.817  0.00  0.00    +0.030 C 
ATOM     19  C   LIG    1       -4.619   3.031   3.496  0.00  0.00    +0.010 C 
ENDBRANCH  17  19
ENDBRANCH  12  17
ENDBRANCH   8  14
ENDBRANCH   1   9
BRANCH   5  20
ATOM     20  C   LIG    1        6.176   2.260  -1.974  0.00  0.00    +0.290 C 
BRANCH  20  21
ATOM     21  C   LIG    1        5.888   3.737  -1.902  0.00  0.00    -0.140 A 
ATOM     22  C   LIG    1        6.834   4.642  -1.646  0.00  0.00    -0.030 A 
ATOM     23  S   LIG    1        6.127   6.252  -1.644  0.00  0.00    +0.130 S 
ATOM     24  C   LIG    1        4.537   5.586  -1.992  0.00  0.00    -0.040 A 
ATOM     25  C   LIG    1        4.619   4.258  -2.090  0.00  0.00    +0.020 A 
ENDBRANCH  20  21
BRANCH  20  26
ATOM     26  O   LIG    1        7.396   2.047  -2.688  0.00  0.00    -0.530 OA
ATOM     27  H   LIG    1        8.167   2.469  -2.284  0.00  0.00    +0.380 HD
ENDBRANCH  20  26
ENDBRANCH   5  20
TORSDOF 7
