REMARK  Name = ZINCpk00000eaLml.0
REMARK                            x       y       z     vdW  Elec       q    Type
REMARK                         _______ _______ _______ _____ _____    ______ ____
ROOT
ATOM      1  C   LIG    1       -3.370   3.307  -0.123  0.00  0.00    +0.040 C 
ATOM      2  C   LIG    1       -3.945   2.319  -1.140  0.00  0.00    +0.230 C 
ENDROOT
BRANCH   2   3
ATOM      3  N   LIG    1       -3.312   1.010  -0.961  0.00  0.00    -1.120 NA
ATOM      4  H   LIG    1       -3.639   0.403  -0.279  0.00  0.00    +0.420 HD
BRANCH   3   5
ATOM      5  S   LIG    1       -2.038   0.567  -1.921  0.00  0.00    +2.780 S 
ATOM      6  O   LIG    1       -1.634  -0.723  -1.484  0.00  0.00    -0.980 OA
ATOM      7  O   LIG    1       -2.428   0.847  -3.259  0.00  0.00    -0.970 OA
BRANCH   5   8
ATOM      8  N   LIG    1       -0.784   1.592  -1.576  0.00  0.00    -1.000 NA
ATOM      9  C   LIG    1       -0.583   2.751  -2.417  0.00  0.00    +0.280 C 
ATOM     10  C   LIG    1        0.350   2.381  -3.596  0.00  0.00    +0.010 C 
ATOM     11  C   LIG    1        1.726   2.186  -3.116  0.00  0.00    +0.000 C 
ATOM     12  C   LIG    1        1.890   1.033  -2.131  0.00  0.00    +0.010 C 
ATOM     13  C   LIG    1        1.573   1.517  -0.737  0.00  0.00    +0.030 C 
ATOM     14  C   LIG    1        0.084   1.284  -0.422  0.00  0.00    +0.270 C 
ENDBRANCH   5   8
ENDBRANCH   3   5
ENDBRANCH   2   3
BRANCH   2  15
ATOM     15  C   LIG    1       -5.454   2.189  -0.928  0.00  0.00    +0.350 C 
BRANCH  15  16
ATOM     16  N   LIG    1       -5.986   1.156  -1.820  0.00  0.00    -0.430 N 
ATOM     17  N   LIG    1       -6.425   1.519  -3.093  0.00  0.00    -0.230 NA
ATOM     18  C   LIG    1       -6.909   0.660  -3.941  0.00  0.00    +0.320 A 
ATOM     19  C   LIG    1       -7.009  -0.753  -3.574  0.00  0.00    -0.070 A 
ATOM     20  C   LIG    1       -7.521  -1.708  -4.454  0.00  0.00    +0.050 A 
ATOM     21  C   LIG    1       -7.594  -3.025  -4.060  0.00  0.00    +0.050 A 
ATOM     22  C   LIG    1       -7.163  -3.414  -2.798  0.00  0.00    +0.030 A 
ATOM     23  C   LIG    1       -6.654  -2.490  -1.913  0.00  0.00    +0.080 A 
ATOM     24  C   LIG    1       -6.571  -1.151  -2.290  0.00  0.00    -0.130 A 
ATOM     25  C   LIG    1       -6.032  -0.123  -1.391  0.00  0.00    +0.530 A 
ATOM     26  O   LIG    1       -5.638  -0.417  -0.276  0.00  0.00    -0.520 OA
ENDBRANCH  15  16
ENDBRANCH   2  15
TORSDOF 5
