REMARK  Name = ZINCrm000000IsxZ.0
REMARK                            x       y       z     vdW  Elec       q    Type
REMARK                         _______ _______ _______ _____ _____    ______ ____
ROOT
ATOM      1  N   LIG    1       -0.016   1.344   0.009  0.00  0.00    -0.660 N 
ATOM      2  H   LIG    1        0.776   1.598  -0.490  0.00  0.00    +0.420 HD
ATOM      3  C   LIG    1       -0.009   0.225   0.761  0.00  0.00    +0.610 C 
ATOM      4  O   LIG    1       -0.967  -0.044   1.459  0.00  0.00    -0.500 OA
ENDROOT
BRANCH   3   5
ATOM      5  C   LIG    1        1.163  -0.674   0.736  0.00  0.00    -0.010 A 
ATOM      6  N   LIG    1        2.262  -0.510   0.026  0.00  0.00    -0.220 NA
ATOM      7  N   LIG    1        3.079  -1.476   0.245  0.00  0.00    -0.250 N 
ATOM      8  C   LIG    1        4.410  -1.645  -0.356  0.00  0.00    +0.340 C 
ATOM      9  C   LIG    1        5.207  -2.652   0.478  0.00  0.00    +0.080 C 
ATOM     10  C   LIG    1        4.375  -3.922   0.682  0.00  0.00    +0.070 C 
ATOM     11  C   LIG    1        3.201  -3.607   1.618  0.00  0.00    +0.280 C 
ATOM     12  C   LIG    1        2.533  -2.347   1.128  0.00  0.00    -0.050 A 
ATOM     13  C   LIG    1        1.316  -1.878   1.466  0.00  0.00    +0.030 A 
BRANCH  11  14
ATOM     14  N   LIG    1        2.240  -4.718   1.598  0.00  0.00    -0.630 N 
ATOM     15  H   LIG    1        1.459  -4.498   2.198  0.00  0.00    +0.440 HD
ATOM     16  H   LIG    1        2.690  -5.559   1.926  0.00  0.00    +0.450 HD
ATOM     17  H   LIG    1        1.909  -4.859   0.655  0.00  0.00    +0.440 HD
ENDBRANCH  11  14
ENDBRANCH   3   5
BRANCH   1  21
ATOM     18  C   LIG    1       -3.445   3.701  -0.184  0.00  0.00    -0.100 A 
ATOM     19  C   LIG    1       -2.197   4.292  -0.257  0.00  0.00    +0.040 A 
ATOM     20  C   LIG    1       -1.058   3.513  -0.193  0.00  0.00    -0.010 A 
ATOM     21  C   LIG    1       -1.167   2.135  -0.056  0.00  0.00    +0.150 A 
ATOM     22  C   LIG    1       -2.423   1.544   0.012  0.00  0.00    +0.020 A 
ATOM     23  C   LIG    1       -3.558   2.329  -0.047  0.00  0.00    +0.060 A 
BRANCH  18  24
ATOM     24  C   LIG    1       -4.686   4.554  -0.255  0.00  0.00    +0.260 C 
BRANCH  24  29
ATOM     25  C   LIG    1       -6.291   6.266  -5.377  0.00  0.00    +0.320 C 
ATOM     26  N   LIG    1       -5.874   6.179  -3.971  0.00  0.00    -0.390 N 
ATOM     27  C   LIG    1       -6.857   5.389  -3.217  0.00  0.00    +0.280 C 
ATOM     28  C   LIG    1       -6.433   5.315  -1.749  0.00  0.00    +0.200 C 
ATOM     29  N   LIG    1       -5.104   4.695  -1.656  0.00  0.00    -0.530 NA
ATOM     30  C   LIG    1       -4.115   5.461  -2.426  0.00  0.00    +0.200 C 
ATOM     31  C   LIG    1       -4.558   5.534  -3.889  0.00  0.00    +0.280 C 
ATOM     32  H   LIG    1       -5.819   7.108  -3.580  0.00  0.00    +0.420 HD
ENDBRANCH  24  29
ENDBRANCH  18  24
ENDBRANCH   1  21
TORSDOF 5
