REMARK  Name = ZINCrm000000IsxZ.1
REMARK                            x       y       z     vdW  Elec       q    Type
REMARK                         _______ _______ _______ _____ _____    ______ ____
ROOT
ATOM      1  N   LIG    1        1.659  -0.714  -5.836  0.00  0.00    -0.660 N 
ATOM      2  H   LIG    1        1.156  -1.327  -6.394  0.00  0.00    +0.420 HD
ATOM      3  C   LIG    1        2.926  -0.390  -6.162  0.00  0.00    +0.610 C 
ATOM      4  O   LIG    1        3.589   0.301  -5.414  0.00  0.00    -0.500 OA
ENDROOT
BRANCH   3   5
ATOM      5  C   LIG    1        3.509  -0.875  -7.430  0.00  0.00    -0.020 A 
ATOM      6  N   LIG    1        2.910  -1.632  -8.329  0.00  0.00    -0.220 NA
ATOM      7  N   LIG    1        3.703  -1.864  -9.312  0.00  0.00    -0.250 N 
ATOM      8  C   LIG    1        3.399  -2.663 -10.508  0.00  0.00    +0.330 C 
ATOM      9  C   LIG    1        4.423  -2.334 -11.598  0.00  0.00    +0.090 C 
ATOM     10  C   LIG    1        5.839  -2.457 -11.027  0.00  0.00    +0.070 C 
ATOM     11  C   LIG    1        6.076  -1.318 -10.027  0.00  0.00    +0.280 C 
ATOM     12  C   LIG    1        4.896  -1.260  -9.090  0.00  0.00    -0.050 A 
ATOM     13  C   LIG    1        4.817  -0.621  -7.907  0.00  0.00    +0.030 A 
BRANCH  11  14
ATOM     14  N   LIG    1        7.303  -1.579  -9.263  0.00  0.00    -0.630 N 
ATOM     15  H   LIG    1        7.445  -0.839  -8.592  0.00  0.00    +0.440 HD
ATOM     16  H   LIG    1        8.090  -1.617  -9.893  0.00  0.00    +0.450 HD
ATOM     17  H   LIG    1        7.217  -2.460  -8.779  0.00  0.00    +0.440 HD
ENDBRANCH  11  14
ENDBRANCH   3   5
BRANCH   1  21
ATOM     18  C   LIG    1       -0.095   0.919  -2.429  0.00  0.00    -0.170 A 
ATOM     19  C   LIG    1        0.813   1.661  -3.160  0.00  0.00    +0.070 A 
ATOM     20  C   LIG    1        1.401   1.121  -4.287  0.00  0.00    +0.030 A 
ATOM     21  C   LIG    1        1.070  -0.166  -4.692  0.00  0.00    +0.180 A 
ATOM     22  C   LIG    1        0.153  -0.907  -3.958  0.00  0.00    +0.000 A 
ATOM     23  C   LIG    1       -0.427  -0.363  -2.829  0.00  0.00    +0.070 A 
BRANCH  18  24
ATOM     24  C   LIG    1       -0.730   1.509  -1.196  0.00  0.00    +0.330 C 
BRANCH  24  29
ATOM     25  C   LIG    1        2.409   1.694   3.480  0.00  0.00    +0.230 C 
ATOM     26  N   LIG    1        1.583   1.956   2.294  0.00  0.00    -0.540 NA
ATOM     27  C   LIG    1        2.264   1.514   1.069  0.00  0.00    +0.210 C 
ATOM     28  C   LIG    1        1.398   1.858  -0.145  0.00  0.00    +0.260 C 
ATOM     29  N   LIG    1        0.094   1.193  -0.021  0.00  0.00    -0.390 N 
ATOM     30  C   LIG    1       -0.584   1.663   1.193  0.00  0.00    +0.280 C 
ATOM     31  H   LIG    1        0.230   0.195   0.035  0.00  0.00    +0.420 HD
ATOM     32  C   LIG    1        0.265   1.317   2.418  0.00  0.00    +0.210 C 
ENDBRANCH  24  29
ENDBRANCH  18  24
ENDBRANCH   1  21
TORSDOF 5
