REMARK  Name = ZINCrH000004k3ic.0
REMARK                            x       y       z     vdW  Elec       q    Type
REMARK                         _______ _______ _______ _____ _____    ______ ____
ROOT
ATOM      1  N   LIG    1        3.584   2.137  -0.020  0.00  0.00    -0.680 N 
ATOM      2  H   LIG    1        4.430   1.668   0.052  0.00  0.00    +0.400 HD
ATOM      3  C   LIG    1        3.565   3.481  -0.115  0.00  0.00    +0.710 C 
ATOM      4  N   LIG    1        4.721   4.166  -0.224  0.00  0.00    -0.730 N 
ATOM      5  H   LIG    1        5.566   3.691  -0.234  0.00  0.00    +0.400 HD
ATOM      6  O   LIG    1        2.505   4.077  -0.103  0.00  0.00    -0.560 OA
ENDROOT
BRANCH   1  12
ATOM      7  C   LIG    1        2.318   0.156   0.567  0.00  0.00    +0.090 A 
ATOM      8  C   LIG    1        1.126  -0.552   0.558  0.00  0.00    +0.030 A 
ATOM      9  C   LIG    1        0.004  -0.007  -0.039  0.00  0.00    -0.010 A 
ATOM     10  C   LIG    1        0.066   1.243  -0.626  0.00  0.00    +0.040 A 
ATOM     11  C   LIG    1        1.252   1.955  -0.622  0.00  0.00    +0.020 A 
ATOM     12  C   LIG    1        2.381   1.417  -0.027  0.00  0.00    +0.200 A 
BRANCH   7  14
ATOM     13  C   LIG    1        4.318  -1.305   0.412  0.00  0.00    +0.310 C 
ATOM     14  N   LIG    1        3.455  -0.394   1.169  0.00  0.00    -0.960 N 
BRANCH  14  15
ATOM     15  S   LIG    1        3.827  -0.014   2.738  0.00  0.00    +2.590 S 
ATOM     16  O   LIG    1        3.234   1.261   2.940  0.00  0.00    -0.930 OA
ATOM     17  O   LIG    1        5.235  -0.188   2.817  0.00  0.00    -0.950 OA
ATOM     18  C   LIG    1        2.974  -1.276   3.723  0.00  0.00    -0.280 C 
ENDBRANCH  14  15
ENDBRANCH   7  14
ENDBRANCH   1  12
BRANCH   4  19
ATOM     19  C   LIG    1        4.700   5.627  -0.327  0.00  0.00    +0.310 C 
BRANCH  19  20
ATOM     20  C   LIG    1        5.947   6.099  -1.028  0.00  0.00    -0.090 A 
ATOM     21  C   LIG    1        7.163   5.504  -0.750  0.00  0.00    +0.010 A 
ATOM     22  C   LIG    1        8.307   5.934  -1.396  0.00  0.00    +0.000 A 
ATOM     23  C   LIG    1        8.236   6.966  -2.313  0.00  0.00    +0.000 A 
ATOM     24  C   LIG    1        7.021   7.565  -2.587  0.00  0.00    +0.000 A 
ATOM     25  C   LIG    1        5.877   7.132  -1.944  0.00  0.00    +0.020 A 
ENDBRANCH  19  20
BRANCH  19  26
ATOM     26  C   LIG    1        4.641   6.237   1.075  0.00  0.00    -0.020 C 
ATOM     27  C   LIG    1        5.476   5.471   2.115  0.00  0.00    +0.010 C 
ATOM     28  C   LIG    1        4.323   5.713   3.104  0.00  0.00    +0.000 C 
ATOM     29  C   LIG    1        3.399   5.815   1.879  0.00  0.00    +0.030 C 
ENDBRANCH  19  26
ENDBRANCH   4  19
TORSDOF 6
