REMARK  Name = ZINCvU0000000FkV.0
REMARK                            x       y       z     vdW  Elec       q    Type
REMARK                         _______ _______ _______ _____ _____    ______ ____
ROOT
ATOM      1  C   LIG    1        3.555   6.075  -0.257  0.00  0.00    +0.070 C 
ENDROOT
BRANCH   1   2
ATOM      2  C   LIG    1        3.877   6.235  -1.720  0.00  0.00    -0.090 A 
ATOM      3  C   LIG    1        2.997   6.902  -2.552  0.00  0.00    +0.040 A 
ATOM      4  C   LIG    1        3.294   7.052  -3.894  0.00  0.00    +0.000 A 
ATOM      5  C   LIG    1        4.467   6.528  -4.405  0.00  0.00    +0.010 A 
ATOM      6  C   LIG    1        5.344   5.857  -3.574  0.00  0.00    +0.000 A 
ATOM      7  C   LIG    1        5.049   5.710  -2.232  0.00  0.00    +0.060 A 
ENDBRANCH   1   2
BRANCH   1   8
ATOM      8  C   LIG    1        2.260   5.319  -0.107  0.00  0.00    +0.540 C 
ATOM      9  N   LIG    1        2.261   3.971  -0.121  0.00  0.00    -0.660 N 
ATOM     10  H   LIG    1        3.101   3.487  -0.158  0.00  0.00    +0.410 HD
ATOM     11  O   LIG    1        1.217   5.923   0.027  0.00  0.00    -0.500 OA
BRANCH   9  12
ATOM     12  C   LIG    1        1.050   3.271  -0.085  0.00  0.00    +0.130 A 
ATOM     13  C   LIG    1        0.916   2.078  -0.783  0.00  0.00    -0.010 A 
ATOM     14  C   LIG    1       -0.281   1.389  -0.745  0.00  0.00    +0.030 A 
ATOM     15  C   LIG    1       -1.345   1.888  -0.017  0.00  0.00    -0.100 A 
ATOM     16  C   LIG    1       -1.213   3.073   0.683  0.00  0.00    +0.030 A 
ATOM     17  C   LIG    1       -2.651   1.137   0.017  0.00  0.00    +0.090 C 
ATOM     18  C   LIG    1       -0.019   3.767   0.649  0.00  0.00    +0.030 A 
ENDBRANCH   9  12
ENDBRANCH   1   8
BRANCH   1  19
ATOM     19  S   LIG    1        3.393   7.708   0.507  0.00  0.00    +0.080 S 
BRANCH  19  21
ATOM     20  N   LIG    1        5.521   9.511   0.732  0.00  0.00    -0.450 N 
ATOM     21  C   LIG    1        5.044   8.295   0.328  0.00  0.00    +0.140 A 
ATOM     22  N   LIG    1        6.045   7.649  -0.224  0.00  0.00    -0.280 NA
ATOM     23  N   LIG    1        7.109   8.369  -0.189  0.00  0.00    -0.270 NA
ATOM     24  C   LIG    1        6.853   9.520   0.388  0.00  0.00    +0.260 A 
BRANCH  24  25
ATOM     25  C   LIG    1        7.813  10.621   0.619  0.00  0.00    -0.130 A 
ATOM     26  C   LIG    1        9.074  10.519   1.120  0.00  0.00    +0.060 A 
ATOM     27  O   LIG    1        9.610  11.747   1.171  0.00  0.00    -0.170 OA
ATOM     28  C   LIG    1        8.742  12.665   0.717  0.00  0.00    +0.190 A 
ATOM     29  C   LIG    1        9.753   9.243   1.546  0.00  0.00    +0.180 C 
ATOM     30  C   LIG    1        7.606  12.049   0.349  0.00  0.00    -0.050 A 
ENDBRANCH  24  25
BRANCH  20  32
ATOM     31  C   LIG    1        4.777  10.345   2.907  0.00  0.00    +0.040 C 
ATOM     32  C   LIG    1        4.771  10.580   1.395  0.00  0.00    +0.300 C 
ENDBRANCH  20  32
ENDBRANCH  19  21
ENDBRANCH   1  19
TORSDOF 7
