REMARK  Name = ZINCpe00000gMQxn.0
REMARK                            x       y       z     vdW  Elec       q    Type
REMARK                         _______ _______ _______ _____ _____    ______ ____
ROOT
ATOM      1  C   LIG    1        8.042   4.808  -0.333  0.00  0.00    +0.150 C 
ATOM      2  C   LIG    1        7.604   3.342  -0.285  0.00  0.00    +0.170 C 
ATOM      3  N   LIG    1        6.156   3.276  -0.040  0.00  0.00    -0.520 NA
ATOM      4  C   LIG    1        5.810   3.947   1.222  0.00  0.00    +0.160 C 
ATOM      5  C   LIG    1        6.267   5.407   1.159  0.00  0.00    +0.230 C 
ATOM      6  O   LIG    1        7.670   5.451   0.889  0.00  0.00    -0.360 OA
ENDROOT
BRANCH   1   7
ATOM      7  C   LIG    1        9.560   4.881  -0.508  0.00  0.00    +0.350 C 
BRANCH   7  14
ATOM      8  C   LIG    1        9.793   6.388  -3.207  0.00  0.00    +0.150 C 
ATOM      9  C   LIG    1       10.071   6.947  -1.836  0.00  0.00    +0.080 A 
ATOM     10  C   LIG    1       10.469   8.210  -1.555  0.00  0.00    -0.130 A 
ATOM     11  C   LIG    1       10.621   8.315  -0.169  0.00  0.00    +0.070 A 
ATOM     12  N   LIG    1       10.320   7.159   0.364  0.00  0.00    -0.280 NA
ATOM     13  C   LIG    1       11.055   9.548   0.582  0.00  0.00    +0.160 C 
ATOM     14  N   LIG    1        9.966   6.280  -0.668  0.00  0.00    -0.370 N 
ENDBRANCH   7  14
ENDBRANCH   1   7
BRANCH   3  15
ATOM     15  C   LIG    1        5.683   1.885  -0.043  0.00  0.00    +0.220 C 
BRANCH  15  16
ATOM     16  C   LIG    1        4.176   1.867  -0.028  0.00  0.00    +0.520 C 
ATOM     17  N   LIG    1        3.517   0.691  -0.029  0.00  0.00    -0.650 N 
ATOM     18  H   LIG    1        4.013  -0.143  -0.038  0.00  0.00    +0.410 HD
ATOM     19  O   LIG    1        3.557   2.909  -0.016  0.00  0.00    -0.480 OA
BRANCH  17  20
ATOM     20  C   LIG    1        2.123   0.674  -0.015  0.00  0.00    +0.300 A 
ATOM     21  C   LIG    1        1.305   1.762  -0.001  0.00  0.00    -0.100 A 
ATOM     22  C   LIG    1       -0.016   1.304   0.009  0.00  0.00    +0.090 A 
ATOM     23  N   LIG    1        0.002  -0.004   0.002  0.00  0.00    -0.290 NA
ATOM     24  C   LIG    1       -1.249   2.170   0.020  0.00  0.00    +0.160 C 
ATOM     25  N   LIG    1        1.337  -0.427  -0.013  0.00  0.00    -0.390 N 
ATOM     26  C   LIG    1        1.801  -1.817  -0.024  0.00  0.00    +0.360 C 
ENDBRANCH  17  20
ENDBRANCH  15  16
ENDBRANCH   3  15
TORSDOF 5
