REMARK  Name = ZINCrD000000fn0y.0
REMARK                            x       y       z     vdW  Elec       q    Type
REMARK                         _______ _______ _______ _____ _____    ______ ____
ROOT
ATOM      1  N   LIG    1       -3.969   0.577   1.141  0.00  0.00    -0.600 N 
ATOM      2  C   LIG    1       -5.061   1.339   1.351  0.00  0.00    +0.550 C 
ATOM      3  O   LIG    1       -5.017   2.534   1.137  0.00  0.00    -0.500 OA
ENDROOT
BRANCH   2   4
ATOM      4  C   LIG    1       -6.311   0.720   1.841  0.00  0.00    -0.110 A 
ATOM      5  C   LIG    1       -6.263  -0.284   2.810  0.00  0.00    +0.050 A 
ATOM      6  C   LIG    1       -7.432  -0.855   3.269  0.00  0.00    +0.030 A 
ATOM      7  C   LIG    1       -8.652  -0.445   2.766  0.00  0.00    +0.050 A 
ATOM      8  C   LIG    1       -8.710   0.549   1.797  0.00  0.00    +0.110 A 
ATOM      9  C   LIG    1       -7.542   1.133   1.333  0.00  0.00    +0.090 A 
BRANCH   8  10
ATOM     10  N   LIG    1       -9.950   0.961   1.289  0.00  0.00    -0.530 N 
ATOM     11  C   LIG    1      -10.481   2.160   1.559  0.00  0.00    +0.520 C 
ATOM     12  C   LIG    1      -11.815   2.284   0.855  0.00  0.00    +0.110 C 
ATOM     13  C   LIG    1      -11.969   0.930   0.132  0.00  0.00    +0.110 C 
ATOM     14  O   LIG    1       -9.973   3.013   2.254  0.00  0.00    -0.460 OA
ATOM     15  C   LIG    1      -10.703   0.186   0.499  0.00  0.00    +0.530 C 
ATOM     16  O   LIG    1      -10.417  -0.934   0.135  0.00  0.00    -0.470 OA
ENDBRANCH   8  10
ENDBRANCH   2   4
BRANCH   1  17
ATOM     17  C   LIG    1       -4.010  -0.859   1.432  0.00  0.00    +0.290 C 
BRANCH  17  19
ATOM     18  C   LIG    1       -3.177  -1.783   3.533  0.00  0.00    +0.020 C 
ATOM     19  C   LIG    1       -2.899  -1.210   2.388  0.00  0.00    -0.060 C 
ENDBRANCH  17  19
ENDBRANCH   1  17
BRANCH   1  20
ATOM     20  C   LIG    1       -2.740   1.184   0.623  0.00  0.00    +0.350 C 
BRANCH  20  21
ATOM     21  C   LIG    1       -1.885   1.648   1.774  0.00  0.00    -0.150 A 
ATOM     22  C   LIG    1       -0.758   0.933   2.131  0.00  0.00    +0.050 A 
ATOM     23  C   LIG    1        0.030   1.362   3.183  0.00  0.00    -0.010 A 
ATOM     24  C   LIG    1       -0.312   2.504   3.882  0.00  0.00    +0.050 A 
ATOM     25  C   LIG    1       -1.442   3.218   3.531  0.00  0.00    -0.030 A 
ATOM     26  C   LIG    1       -2.232   2.789   2.478  0.00  0.00    +0.120 A 
ATOM     27  F   LIG    1       -3.337   3.486   2.134  0.00  0.00    -0.110 F 
ENDBRANCH  20  21
ENDBRANCH   1  20
TORSDOF 6
