REMARK  Name = ZINCkj000005kuks.0
REMARK                            x       y       z     vdW  Elec       q    Type
REMARK                         _______ _______ _______ _____ _____    ______ ____
ROOT
ATOM      1  C   UNK A  0       -2.589   0.771   2.347  0.00  0.00    +0.240 C 
ENDROOT
BRANCH   1   8
ATOM      2  C   UNK A  0       -1.889   2.461   4.583  0.00  0.00    +0.100 C 
ATOM      3  C   UNK A  0       -2.003   3.050   3.201  0.00  0.00    -0.060 A 
ATOM      4  C   UNK A  0       -1.773   4.398   3.002  0.00  0.00    +0.040 A 
ATOM      5  C   UNK A  0       -1.877   4.938   1.734  0.00  0.00    +0.050 A 
ATOM      6  C   UNK A  0       -2.212   4.129   0.664  0.00  0.00    +0.030 A 
ATOM      7  C   UNK A  0       -2.438   2.779   0.862  0.00  0.00    +0.000 A 
ATOM      8  C   UNK A  0       -2.338   2.241   2.131  0.00  0.00    -0.140 A 
ENDBRANCH   1   8
BRANCH   1   9
ATOM      9  N   ALA A  1       -2.458   0.058   1.069  0.00  0.00    -0.500 N 
ATOM     10  H1  ALA A  1       -3.194   0.351   0.444  0.00  0.00    +0.430 HD
ATOM     11  H2  ALA A  1       -1.562   0.269   0.657  0.00  0.00    +0.430 HD
BRANCH   9  12
ATOM     12  CA  ALA A  1       -2.561  -1.389   1.302  0.00  0.00    +0.180 C 
ATOM     13  CB  ALA A  1       -1.368  -1.857   2.137  0.00  0.00    +0.090 C 
BRANCH  12  14
ATOM     14  C   ALA A  1       -2.564  -2.123  -0.040  0.00  0.00    +0.210 C 
BRANCH  14  15
ATOM     15  O   ALA A  1       -1.305  -1.933  -0.689  0.00  0.00    -0.580 OA
ATOM     16  H   ALA A  1       -1.236  -2.372  -1.548  0.00  0.00    +0.410 HD
ENDBRANCH  14  15
ENDBRANCH  12  14
ENDBRANCH   9  12
ENDBRANCH   1   9
BRANCH   1  17
ATOM     17  C   UNK A  0       -4.002   0.570   2.900  0.00  0.00    +0.210 C 
BRANCH  17  18
ATOM     18  N   UNK A  0       -4.986   0.945   1.877  0.00  0.00    -0.550 NA
ATOM     19  C   UNK A  0       -5.222   2.396   1.879  0.00  0.00    +0.150 C 
ATOM     20  C   UNK A  0       -6.207   2.749   0.761  0.00  0.00    +0.220 C 
ATOM     21  O   UNK A  0       -7.414   2.004   0.942  0.00  0.00    -0.380 OA
ATOM     22  C   UNK A  0       -7.220   0.587   0.944  0.00  0.00    +0.230 C 
ATOM     23  C   UNK A  0       -6.247   0.212   2.064  0.00  0.00    +0.160 C 
ENDBRANCH  17  18
ENDBRANCH   1  17
TORSDOF 7
