REMARK  Name = ZINCpe00000VVGec.0
REMARK                            x       y       z     vdW  Elec       q    Type
REMARK                         _______ _______ _______ _____ _____    ______ ____
ROOT
ATOM      1  N   LIG    1        2.010   5.538  -0.072  0.00  0.00    -0.480 N 
ATOM      2  H   LIG    1        1.117   5.917  -0.080  0.00  0.00    +0.450 HD
ENDROOT
BRANCH   1   3
ATOM      3  C   LIG    1        3.086   6.350  -0.094  0.00  0.00    +0.550 C 
ATOM      4  S   LIG    1        2.877   8.048  -0.135  0.00  0.00    -0.540 S 
BRANCH   3   5
ATOM      5  N   LIG    1        4.327   5.824  -0.084  0.00  0.00    -0.680 N 
ATOM      6  H   LIG    1        4.447   4.862  -0.128  0.00  0.00    +0.400 HD
BRANCH   5   8
ATOM      7  C   LIG    1        5.439   7.487   1.307  0.00  0.00    +0.070 C 
ATOM      8  C   LIG    1        5.495   6.704  -0.006  0.00  0.00    +0.200 C 
ATOM      9  C   LIG    1        6.763   5.849  -0.016  0.00  0.00    +0.100 C 
ATOM     10  C   LIG    1        7.226   5.665  -1.485  0.00  0.00    -0.300 C 
ATOM     11  S   LIG    1        6.965   7.357  -2.156  0.00  0.00    +2.370 S 
ATOM     12  O   LIG    1        8.013   8.213  -1.723  0.00  0.00    -0.920 OA
ATOM     13  O   LIG    1        6.634   7.277  -3.535  0.00  0.00    -0.930 OA
ATOM     14  C   LIG    1        5.452   7.695  -1.179  0.00  0.00    -0.270 C 
ENDBRANCH   5   8
ENDBRANCH   3   5
ENDBRANCH   1   3
BRANCH   1  15
ATOM     15  N   LIG    1        2.182   4.148  -0.039  0.00  0.00    -0.520 N 
ATOM     16  H   LIG    1        3.075   3.770  -0.032  0.00  0.00    +0.440 HD
BRANCH  15  17
ATOM     17  C   LIG    1        1.066   3.308  -0.017  0.00  0.00    +0.320 A 
ATOM     18  C   LIG    1       -0.210   3.841  -0.140  0.00  0.00    -0.020 A 
ATOM     19  C   LIG    1       -1.311   3.007  -0.117  0.00  0.00    +0.230 A 
ATOM     20  C   LIG    1       -1.143   1.642   0.021  0.00  0.00    -0.090 A 
ATOM     21  C   LIG    1        0.127   1.107   0.149  0.00  0.00    +0.260 A 
ATOM     22  C   LIG    1        1.232   1.936   0.128  0.00  0.00    -0.120 A 
BRANCH  20  23
ATOM     23  N   LIG    1       -2.324   0.750   0.039  0.00  0.00    +0.030 N 
ATOM     24  O   LIG    1       -3.442   1.219  -0.073  0.00  0.00    -0.140 OA
ATOM     25  O   LIG    1       -2.178  -0.453   0.166  0.00  0.00    -0.150 OA
ENDBRANCH  20  23
BRANCH  22  26
ATOM     26  N   LIG    1        2.590   1.363   0.259  0.00  0.00    +0.050 N 
ATOM     27  O   LIG    1        3.568   2.078   0.133  0.00  0.00    -0.210 OA
ATOM     28  O   LIG    1        2.730   0.176   0.494  0.00  0.00    -0.100 OA
ENDBRANCH  22  26
ENDBRANCH  15  17
ENDBRANCH   1  15
TORSDOF 7
