REMARK  Name = ZINCqH0000035CWD.0
REMARK                            x       y       z     vdW  Elec       q    Type
REMARK                         _______ _______ _______ _____ _____    ______ ____
ROOT
ATOM      1  C   LIG    1       -3.786   5.802   0.067  0.00  0.00    +0.070 C 
ENDROOT
BRANCH   1   2
ATOM      2  C   LIG    1       -2.364   5.237   0.051  0.00  0.00    +0.200 C 
BRANCH   2   3
ATOM      3  O   LIG    1       -2.420   3.809   0.044  0.00  0.00    -0.290 OA
BRANCH   3   9
ATOM      4  C   LIG    1       -1.217   1.752   0.017  0.00  0.00    +0.100 A 
ATOM      5  C   LIG    1       -0.013   1.076   0.008  0.00  0.00    +0.020 A 
ATOM      6  C   LIG    1        1.187   1.793   0.000  0.00  0.00    -0.030 A 
ATOM      7  C   LIG    1        1.163   3.189   0.008  0.00  0.00    +0.080 A 
ATOM      8  C   LIG    1       -0.043   3.857   0.022  0.00  0.00    -0.030 A 
ATOM      9  C   LIG    1       -1.234   3.146   0.030  0.00  0.00    +0.140 A 
BRANCH   4  11
ATOM     10  C   LIG    1       -2.294  -0.369   0.011  0.00  0.00    +0.250 C 
ATOM     11  O   LIG    1       -2.386   1.057   0.019  0.00  0.00    -0.300 OA
ENDBRANCH   4  11
BRANCH   6  12
ATOM     12  C   LIG    1        2.439   1.097  -0.014  0.00  0.00    +0.250 C 
ATOM     13  N   LIG    1        3.432   0.545  -0.026  0.00  0.00    -0.410 NA
ENDBRANCH   6  12
ENDBRANCH   3   9
ENDBRANCH   2   3
ENDBRANCH   1   2
BRANCH   1  14
ATOM     14  C   LIG    1       -3.727   7.331   0.074  0.00  0.00    +0.080 C 
BRANCH  14  15
ATOM     15  C   LIG    1       -5.127   7.888   0.090  0.00  0.00    +0.530 C 
ATOM     16  N   LIG    1       -5.322   9.222   0.099  0.00  0.00    -0.550 N 
ATOM     17  C   LIG    1       -4.304  10.180   0.093  0.00  0.00    +0.140 A 
ATOM     18  C   LIG    1       -2.920  10.001   0.078  0.00  0.00    -0.020 A 
ATOM     19  C   LIG    1       -2.077  11.093   0.075  0.00  0.00    +0.040 A 
ATOM     20  C   LIG    1       -2.598  12.374   0.086  0.00  0.00    -0.010 A 
ATOM     21  C   LIG    1       -3.968  12.559   0.101  0.00  0.00    +0.060 A 
ATOM     22  C   LIG    1       -4.816  11.468   0.105  0.00  0.00    -0.130 A 
ATOM     23  C   LIG    1       -6.325  11.386   0.119  0.00  0.00    +0.090 C 
ATOM     24  C   LIG    1       -6.631   9.879   0.108  0.00  0.00    +0.220 C 
ATOM     25  C   LIG    1       -7.411   9.490   1.365  0.00  0.00    +0.040 C 
ATOM     26  O   LIG    1       -6.079   7.136   0.095  0.00  0.00    -0.510 OA
ENDBRANCH  14  15
ENDBRANCH   1  14
TORSDOF 7
