REMARK  Name = ZINCvU0000000CWk.0
REMARK                            x       y       z     vdW  Elec       q    Type
REMARK                         _______ _______ _______ _____ _____    ______ ____
ROOT
ATOM      1  N   LIG    1        3.325  -2.232  -0.042  0.00  0.00    -0.630 N 
ATOM      2  H   LIG    1        4.065  -1.606  -0.045  0.00  0.00    +0.420 HD
ATOM      3  C   LIG    1        2.057  -1.777  -0.027  0.00  0.00    +0.530 C 
ATOM      4  O   LIG    1        1.131  -2.561  -0.022  0.00  0.00    -0.480 OA
ENDROOT
BRANCH   1   6
ATOM      5  C   LIG    1        4.817  -4.161  -0.072  0.00  0.00    -0.190 A 
ATOM      6  C   LIG    1        3.572  -3.596  -0.051  0.00  0.00    +0.040 A 
ATOM      7  S   LIG    1        2.366  -4.798  -0.047  0.00  0.00    +0.310 S 
ATOM      8  C   LIG    1        3.544  -6.100  -0.066  0.00  0.00    -0.240 A 
ATOM      9  C   LIG    1        3.204  -7.578  -0.071  0.00  0.00    +0.120 C 
ATOM     10  C   LIG    1        4.443  -8.367  -0.504  0.00  0.00    -0.010 C 
ATOM     11  C   LIG    1        4.203  -9.861  -0.278  0.00  0.00    +0.030 C 
ATOM     12  C   LIG    1        5.643  -7.907   0.330  0.00  0.00    +0.030 C 
ATOM     13  C   LIG    1        6.033  -6.488  -0.092  0.00  0.00    +0.100 C 
ATOM     14  C   LIG    1        4.790  -5.613  -0.075  0.00  0.00    -0.040 A 
BRANCH   5  15
ATOM     15  C   LIG    1        6.055  -3.380  -0.085  0.00  0.00    +0.540 C 
ATOM     16  O   LIG    1        6.585  -3.061   0.963  0.00  0.00    -0.490 OA
BRANCH  15  17
ATOM     17  O   LIG    1        6.609  -3.013  -1.259  0.00  0.00    -0.350 OA
BRANCH  17  19
ATOM     18  C   LIG    1        8.310  -1.919  -2.615  0.00  0.00    +0.070 C 
ATOM     19  C   LIG    1        7.836  -2.239  -1.196  0.00  0.00    +0.200 C 
ENDBRANCH  17  19
ENDBRANCH  15  17
ENDBRANCH   5  15
ENDBRANCH   1   6
BRANCH   3  20
ATOM     20  C   LIG    1        1.789  -0.294  -0.017  0.00  0.00    +0.120 C 
BRANCH  20  21
ATOM     21  S   LIG    1        0.002  -0.004   0.002  0.00  0.00    +0.030 S 
BRANCH  21  22
ATOM     22  C   LIG    1       -0.022   1.758   0.012  0.00  0.00    +0.140 A 
ATOM     23  N   LIG    1        1.119   2.417   0.004  0.00  0.00    -0.490 NA
ATOM     24  C   LIG    1        1.148   3.755   0.011  0.00  0.00    +0.150 A 
ATOM     25  C   LIG    1        2.368   4.452   0.002  0.00  0.00    +0.030 A 
ATOM     26  C   LIG    1        2.368   5.814   0.008  0.00  0.00    +0.040 A 
ATOM     27  C   LIG    1        1.174   6.532   0.023  0.00  0.00    +0.010 A 
ATOM     28  C   LIG    1       -0.027   5.889   0.032  0.00  0.00    +0.040 A 
ATOM     29  C   LIG    1       -0.064   4.487   0.026  0.00  0.00    -0.110 A 
ATOM     30  C   LIG    1       -1.289   3.788   0.034  0.00  0.00    -0.000 A 
ATOM     31  C   LIG    1       -2.602   4.528   0.050  0.00  0.00    +0.120 C 
ATOM     32  C   LIG    1       -1.255   2.426   0.021  0.00  0.00    -0.020 A 
ENDBRANCH  21  22
ENDBRANCH  20  21
ENDBRANCH   3  20
TORSDOF 7
