REMARK  Name = ZINCpe000000VWf6.0
REMARK                            x       y       z     vdW  Elec       q    Type
REMARK                         _______ _______ _______ _____ _____    ______ ____
ROOT
ATOM      1  C   LIG    1       -1.194   2.119   0.019  0.00  0.00    +0.580 C 
ATOM      2  N   LIG    1       -0.018   1.461   0.010  0.00  0.00    -0.730 N 
ATOM      3  H   LIG    1        0.816   1.957   0.005  0.00  0.00    +0.400 HD
ATOM      4  O   LIG    1       -2.239   1.496   0.021  0.00  0.00    -0.540 OA
ENDROOT
BRANCH   1   7
ATOM      5  N   LIG    1       -2.438   5.618   0.044  0.00  0.00    -0.480 N 
ATOM      6  C   LIG    1       -2.415   4.272   0.031  0.00  0.00    +0.420 A 
ATOM      7  C   LIG    1       -1.214   3.593   0.027  0.00  0.00    -0.270 A 
ATOM      8  C   LIG    1       -0.001   4.323   0.026  0.00  0.00    +0.140 A 
ATOM      9  C   LIG    1       -0.049   5.682   0.033  0.00  0.00    -0.080 A 
ATOM     10  C   LIG    1       -1.298   6.331   0.043  0.00  0.00    +0.520 A 
ATOM     11  O   LIG    1       -1.346   7.550   0.049  0.00  0.00    -0.540 OA
BRANCH   5  12
ATOM     12  C   LIG    1       -3.726   6.317   0.054  0.00  0.00    +0.320 C 
BRANCH  12  13
ATOM     13  C   LIG    1       -4.181   6.568  -1.385  0.00  0.00    +0.180 C 
BRANCH  13  15
ATOM     14  C   LIG    1       -4.867   5.440  -3.386  0.00  0.00    +0.210 C 
ATOM     15  O   LIG    1       -4.434   5.317  -2.030  0.00  0.00    -0.390 OA
ENDBRANCH  13  15
ENDBRANCH  12  13
ENDBRANCH   5  12
ENDBRANCH   1   7
BRANCH   2  16
ATOM     16  C   LIG    1        0.002  -0.004   0.002  0.00  0.00    +0.320 C 
BRANCH  16  17
ATOM     17  C   LIG    1        1.429  -0.487  -0.014  0.00  0.00    -0.060 A 
ATOM     18  C   LIG    1        2.071  -0.708  -1.219  0.00  0.00    +0.020 A 
ATOM     19  C   LIG    1        3.382  -1.146  -1.234  0.00  0.00    +0.130 A 
ATOM     20  C   LIG    1        4.048  -1.373  -0.044  0.00  0.00    -0.650 A 
ATOM     21  C   LIG    1        3.405  -1.158   1.161  0.00  0.00    +0.130 A 
ATOM     22  C   LIG    1        2.096  -0.715   1.175  0.00  0.00    +0.020 A 
BRANCH  20  23
ATOM     23  S   LIG    1        5.717  -1.938  -0.063  0.00  0.00    +2.500 S 
ATOM     24  O   LIG    1        6.255  -1.484   1.171  0.00  0.00    -0.930 OA
ATOM     25  O   LIG    1        6.231  -1.470  -1.302  0.00  0.00    -0.930 OA
ATOM     26  C   LIG    1        5.583  -3.747  -0.071  0.00  0.00    -0.260 C 
ENDBRANCH  20  23
ENDBRANCH  16  17
ENDBRANCH   2  16
TORSDOF 7
