REMARK  Name = ZINCpe000000Xki9.0
REMARK                            x       y       z     vdW  Elec       q    Type
REMARK                         _______ _______ _______ _____ _____    ______ ____
ROOT
ATOM      1  C   LIG    1       -5.255   7.489  -1.403  0.00  0.00    +0.440 C 
ATOM      2  O   LIG    1       -5.315   7.274  -2.597  0.00  0.00    -0.500 OA
ENDROOT
BRANCH   1   3
ATOM      3  C   LIG    1       -6.040   8.512  -0.831  0.00  0.00    -0.440 A 
ATOM      4  C   LIG    1       -6.812   9.370  -1.633  0.00  0.00    +0.560 A 
ATOM      5  N   LIG    1       -7.560  10.342  -1.033  0.00  0.00    -0.540 N 
ATOM      6  C   LIG    1       -7.560  10.498   0.300  0.00  0.00    +0.710 A 
ATOM      7  N   LIG    1       -6.839   9.713   1.117  0.00  0.00    -0.560 N 
ATOM      8  C   LIG    1       -6.886   9.939   2.564  0.00  0.00    +0.350 C 
ATOM      9  O   LIG    1       -8.239  11.381   0.786  0.00  0.00    -0.520 OA
ATOM     10  C   LIG    1       -8.373  11.236  -1.861  0.00  0.00    +0.350 C 
ATOM     11  C   LIG    1       -6.071   8.720   0.623  0.00  0.00    +0.580 A 
ATOM     12  O   LIG    1       -5.419   8.011   1.366  0.00  0.00    -0.500 OA
BRANCH   4  13
ATOM     13  N   LIG    1       -6.819   9.230  -2.987  0.00  0.00    -0.800 N 
ATOM     14  H   LIG    1       -7.032   9.989  -3.552  0.00  0.00    +0.410 HD
ATOM     15  H   LIG    1       -6.610   8.371  -3.387  0.00  0.00    +0.440 HD
ENDBRANCH   4  13
ENDBRANCH   1   3
BRANCH   1  17
ATOM     16  C   LIG    1       -3.111   7.491  -0.156  0.00  0.00    +0.040 C 
ATOM     17  C   LIG    1       -4.342   6.664  -0.533  0.00  0.00    +0.250 C 
BRANCH  17  18
ATOM     18  N   LIG    1       -3.920   5.467  -1.266  0.00  0.00    -0.740 N 
ATOM     19  H   LIG    1       -3.911   5.470  -2.236  0.00  0.00    +0.400 HD
BRANCH  18  20
ATOM     20  C   LIG    1       -3.530   4.322  -0.567  0.00  0.00    +0.220 A 
ATOM     21  C   LIG    1       -3.541   4.316   0.822  0.00  0.00    -0.070 A 
ATOM     22  C   LIG    1       -3.155   3.182   1.507  0.00  0.00    +0.060 A 
ATOM     23  C   LIG    1       -2.756   2.049   0.816  0.00  0.00    -0.160 A 
ATOM     24  C   LIG    1       -2.289   0.701   1.331  0.00  0.00    +0.070 C 
ATOM     25  C   LIG    1       -1.585   0.035   0.130  0.00  0.00    +0.020 C 
ATOM     26  C   LIG    1       -2.272   0.708  -1.078  0.00  0.00    +0.070 C 
ATOM     27  C   LIG    1       -2.743   2.053  -0.568  0.00  0.00    -0.050 A 
ATOM     28  C   LIG    1       -3.130   3.187  -1.258  0.00  0.00    -0.060 A 
ENDBRANCH  18  20
ENDBRANCH  17  18
ENDBRANCH   1  17
TORSDOF 5
