REMARK  Name = ZINCrg000000t3ip.1
REMARK                            x       y       z     vdW  Elec       q    Type
REMARK                         _______ _______ _______ _____ _____    ______ ____
ROOT
ATOM      1  C   LIG    1       -1.304  -1.846   7.363  0.00  0.00    -0.690 A 
ATOM      2  C   LIG    1       -1.477  -1.784   8.733  0.00  0.00    +0.120 A 
ATOM      3  C   LIG    1       -0.475  -1.264   9.527  0.00  0.00    -0.020 A 
ATOM      4  C   LIG    1        0.706  -0.801   8.961  0.00  0.00    -0.010 A 
ATOM      5  C   LIG    1        1.758  -0.250   9.886  0.00  0.00    +0.080 C 
ATOM      6  C   LIG    1        2.771   0.589   9.109  0.00  0.00    +0.020 C 
ATOM      7  C   LIG    1        3.269  -0.236   7.917  0.00  0.00    -0.010 C 
ATOM      8  C   LIG    1        2.126  -0.370   6.913  0.00  0.00    +0.230 C 
ATOM      9  C   LIG    1        0.876  -0.859   7.596  0.00  0.00    -0.090 A 
ATOM     10  C   LIG    1       -0.133  -1.385   6.798  0.00  0.00    +0.170 A 
ENDROOT
BRANCH   1  11
ATOM     11  S   LIG    1       -2.576  -2.512   6.341  0.00  0.00    +2.700 S 
ATOM     12  O   LIG    1       -3.349  -3.368   7.170  0.00  0.00    -0.970 OA
ATOM     13  O   LIG    1       -1.943  -2.950   5.147  0.00  0.00    -0.960 OA
BRANCH  11  14
ATOM     14  N   LIG    1       -3.567  -1.256   5.911  0.00  0.00    -1.250 NA
ATOM     15  H   LIG    1       -4.336  -1.418   5.343  0.00  0.00    +0.420 HD
ATOM     16  H   LIG    1       -3.378  -0.359   6.228  0.00  0.00    +0.420 HD
ENDBRANCH  11  14
ENDBRANCH   1  11
BRANCH   8  17
ATOM     17  N   LIG    1        2.511  -1.325   5.865  0.00  0.00    -0.660 NA
ATOM     18  H   LIG    1        3.025  -2.101   6.254  0.00  0.00    +0.350 HD
BRANCH  17  19
ATOM     19  C   LIG    1        3.283  -0.661   4.806  0.00  0.00    +0.130 C 
ATOM     20  C   LIG    1        4.119  -1.695   4.016  0.00  0.00    +0.040 C 
ATOM     21  C   LIG    1        4.037  -1.137   2.579  0.00  0.00    +0.250 C 
ATOM     22  N   LIG    1        2.800  -0.347   2.533  0.00  0.00    -0.620 N 
ATOM     23  C   LIG    1        2.356  -0.064   3.770  0.00  0.00    +0.530 C 
ATOM     24  O   LIG    1        1.357   0.577   4.019  0.00  0.00    -0.510 OA
BRANCH  22  25
ATOM     25  C   LIG    1        2.133   0.073   1.299  0.00  0.00    +0.250 C 
ATOM     26  C   LIG    1        0.718  -0.510   1.257  0.00  0.00    -0.000 C 
ATOM     27  C   LIG    1        0.002  -0.004   0.002  0.00  0.00    +0.220 C 
ATOM     28  O   LIG    1       -0.017   1.425   0.010  0.00  0.00    -0.380 OA
ATOM     29  C   LIG    1        1.279   2.026   0.001  0.00  0.00    +0.220 C 
ATOM     30  C   LIG    1        2.046   1.601   1.256  0.00  0.00    -0.010 C 
ENDBRANCH  22  25
ENDBRANCH  17  19
ENDBRANCH   8  17
TORSDOF 5
