REMARK  Name = ZINCvU0000000Ey5.0
REMARK                            x       y       z     vdW  Elec       q    Type
REMARK                         _______ _______ _______ _____ _____    ______ ____
ROOT
ATOM      1  N   LIG    1        5.091   5.327   1.731  0.00  0.00    -0.920 NA
ATOM      2  C   LIG    1        3.844   5.246   1.398  0.00  0.00    +0.410 C 
ENDROOT
BRANCH   2   3
ATOM      3  C   LIG    1        2.794   5.505   2.403  0.00  0.00    -0.210 A 
ATOM      4  C   LIG    1        2.364   4.480   3.248  0.00  0.00    +0.110 A 
ATOM      5  C   LIG    1        1.385   4.730   4.187  0.00  0.00    +0.040 A 
ATOM      6  C   LIG    1        0.823   5.992   4.287  0.00  0.00    +0.000 A 
ATOM      7  C   LIG    1        1.242   7.011   3.448  0.00  0.00    +0.040 A 
ATOM      8 CL   LIG    1       -0.412   6.297   5.468  0.00  0.00    -0.050 Cl
ATOM      9  C   LIG    1        2.223   6.775   2.508  0.00  0.00    +0.120 A 
ENDBRANCH   2   3
BRANCH   1  10
ATOM     10  S   LIG    1        5.512   5.856   3.243  0.00  0.00    +2.620 S 
ATOM     11  O   LIG    1        5.152   4.818   4.145  0.00  0.00    -0.950 OA
ATOM     12  O   LIG    1        5.025   7.186   3.353  0.00  0.00    -0.950 OA
BRANCH  10  17
ATOM     13  C   LIG    1       11.533   6.231   3.391  0.00  0.00    +0.090 C 
ATOM     14  C   LIG    1       10.029   6.137   3.354  0.00  0.00    -0.020 A 
ATOM     15  C   LIG    1        9.278   7.228   2.957  0.00  0.00    +0.000 A 
ATOM     16  C   LIG    1        7.899   7.142   2.923  0.00  0.00    +0.130 A 
ATOM     17  C   LIG    1        7.270   5.965   3.286  0.00  0.00    -0.660 A 
ATOM     18  C   LIG    1        8.021   4.876   3.687  0.00  0.00    +0.130 A 
ATOM     19  C   LIG    1        9.400   4.960   3.717  0.00  0.00    +0.000 A 
ENDBRANCH  10  17
ENDBRANCH   1  10
BRANCH   2  20
ATOM     20  C   LIG    1        3.462   4.886  -0.015  0.00  0.00    +0.320 C 
BRANCH  20  21
ATOM     21  C   LIG    1        2.751   3.558  -0.021  0.00  0.00    +0.270 A 
ATOM     22  N   LIG    1        1.459   3.405   0.009  0.00  0.00    -0.440 NA
ATOM     23  C   LIG    1        1.156   2.081  -0.006  0.00  0.00    +0.050 A 
ATOM     24  C   LIG    1       -0.045   1.367   0.010  0.00  0.00    +0.080 A 
ATOM     25  C   LIG    1       -0.025   0.001  -0.015  0.00  0.00    +0.000 A 
ATOM     26  C   LIG    1        1.178  -0.689  -0.058  0.00  0.00    +0.040 A 
ATOM     27  C   LIG    1        2.375  -0.005  -0.075  0.00  0.00    +0.020 A 
ATOM     28  C   LIG    1        2.375   1.383  -0.049  0.00  0.00    +0.060 A 
ATOM     29  N   LIG    1        3.365   2.345  -0.057  0.00  0.00    -0.590 N 
ATOM     30  H   LIG    1        4.321   2.186  -0.084  0.00  0.00    +0.430 HD
ENDBRANCH  20  21
BRANCH  20  31
ATOM     31  C   LIG    1        4.676   4.796  -0.843  0.00  0.00    +0.200 C 
ATOM     32  N   LIG    1        5.613   4.727  -1.482  0.00  0.00    -0.370 NA
ENDBRANCH  20  31
ENDBRANCH   2  20
TORSDOF 6
