REMARK  Name = ZINCqH0000007SJY.0
REMARK                            x       y       z     vdW  Elec       q    Type
REMARK                         _______ _______ _______ _____ _____    ______ ____
ROOT
ATOM      1  N   LIG    1       -2.316   0.053   0.660  0.00  0.00    -0.740 N 
ATOM      2  H   LIG    1       -2.286   1.019   0.574  0.00  0.00    +0.400 HD
ATOM      3  C   LIG    1       -3.337  -0.534   1.315  0.00  0.00    +0.710 C 
ATOM      4  N   LIG    1       -4.316   0.220   1.850  0.00  0.00    -0.740 N 
ATOM      5  H   LIG    1       -4.287   1.186   1.764  0.00  0.00    +0.410 HD
ATOM      6  O   LIG    1       -3.373  -1.745   1.423  0.00  0.00    -0.590 OA
ENDROOT
BRANCH   1   7
ATOM      7  C   LIG    1       -1.250  -0.767   0.078  0.00  0.00    +0.320 C 
ATOM      8  C   LIG    1       -1.624  -1.145  -1.357  0.00  0.00    +0.030 C 
BRANCH   7  14
ATOM      9  C   LIG    1        1.255  -0.654   0.091  0.00  0.00    +0.140 A 
ATOM     10  C   LIG    1        2.440   0.068   0.085  0.00  0.00    -0.070 A 
ATOM     11  C   LIG    1        2.406   1.449   0.061  0.00  0.00    +0.050 A 
ATOM     12  C   LIG    1        1.193   2.111   0.042  0.00  0.00    -0.020 A 
ATOM     13  C   LIG    1        0.010   1.394   0.048  0.00  0.00    +0.050 A 
ATOM     14  C   LIG    1        0.039   0.014   0.072  0.00  0.00    -0.120 A 
BRANCH   9  16
ATOM     15  C   LIG    1        2.573  -2.632   0.134  0.00  0.00    +0.250 C 
ATOM     16  O   LIG    1        1.286  -2.012   0.116  0.00  0.00    -0.310 OA
ENDBRANCH   9  16
ENDBRANCH   7  14
ENDBRANCH   1   7
BRANCH   4  17
ATOM     17  C   LIG    1       -5.426  -0.418   2.562  0.00  0.00    +0.320 C 
BRANCH  17  18
ATOM     18  C   LIG    1       -6.378   0.639   3.059  0.00  0.00    +0.510 C 
ATOM     19  N   LIG    1       -7.481   0.282   3.747  0.00  0.00    -0.670 N 
ATOM     20  H   LIG    1       -7.632  -0.648   3.974  0.00  0.00    +0.420 HD
ATOM     21  O   LIG    1       -6.152   1.810   2.841  0.00  0.00    -0.510 OA
BRANCH  19  22
ATOM     22  C   LIG    1       -8.410   1.256   4.134  0.00  0.00    +0.160 A 
ATOM     23  C   LIG    1       -7.978   2.528   4.486  0.00  0.00    +0.040 A 
ATOM     24  C   LIG    1       -8.897   3.488   4.862  0.00  0.00    +0.060 A 
ATOM     25  C   LIG    1      -10.245   3.180   4.899  0.00  0.00    -0.100 A 
ATOM     26  C   LIG    1      -10.678   1.911   4.554  0.00  0.00    +0.070 A 
ATOM     27 BR   LIG    1      -11.500   4.495   5.422  0.00  0.00    -0.050 Br
ATOM     28  C   LIG    1       -9.764   0.949   4.172  0.00  0.00    -0.100 A 
ATOM     29  C   LIG    1      -10.236  -0.432   3.797  0.00  0.00    +0.110 C 
ENDBRANCH  19  22
ENDBRANCH  17  18
ENDBRANCH   4  17
TORSDOF 6
