REMARK  Name = ZINCkj00000kJQZm.1
REMARK                            x       y       z     vdW  Elec       q    Type
REMARK                         _______ _______ _______ _____ _____    ______ ____
ROOT
ATOM      1  N   LIG    1       -4.334  -0.883   2.119  0.00  0.00    -0.370 N 
ATOM      2  C   LIG    1       -3.453  -1.083   3.275  0.00  0.00    +0.260 C 
ATOM      3  C   LIG    1       -2.341  -0.032   3.261  0.00  0.00    +0.070 C 
ATOM      4  C   LIG    1       -1.530  -0.173   1.970  0.00  0.00    +0.050 C 
ATOM      5  C   LIG    1       -2.472  -0.037   0.770  0.00  0.00    -0.010 C 
ATOM      6  C   LIG    1       -3.579  -1.087   0.876  0.00  0.00    +0.280 C 
ATOM      7  H   LIG    1       -4.702   0.056   2.137  0.00  0.00    +0.420 HD
ENDROOT
BRANCH   1   8
ATOM      8  C   LIG    1       -5.444  -1.844   2.179  0.00  0.00    +0.270 C 
BRANCH   8  10
ATOM      9  C   LIG    1       -6.753  -0.038   3.304  0.00  0.00    +0.120 C 
ATOM     10  C   LIG    1       -6.343  -1.511   3.371  0.00  0.00    +0.080 C 
BRANCH  10  11
ATOM     11  C   LIG    1       -7.593  -2.391   3.329  0.00  0.00    +0.440 C 
ATOM     12  F   LIG    1       -8.290  -2.155   2.139  0.00  0.00    -0.170 F 
ATOM     13  F   LIG    1       -8.416  -2.086   4.419  0.00  0.00    -0.150 F 
ATOM     14  F   LIG    1       -7.218  -3.737   3.390  0.00  0.00    -0.170 F 
ENDBRANCH  10  11
BRANCH  10  15
ATOM     15  O   LIG    1       -5.631  -1.752   4.587  0.00  0.00    -0.510 OA
ATOM     16  H   LIG    1       -5.340  -2.667   4.697  0.00  0.00    +0.400 HD
ENDBRANCH  10  15
ENDBRANCH   8  10
ENDBRANCH   1   8
BRANCH   5  17
ATOM     17  C   LIG    1       -1.685  -0.253  -0.524  0.00  0.00    +0.350 C 
BRANCH  17  18
ATOM     18  N   LIG    1       -0.704   0.822  -0.685  0.00  0.00    -0.390 N 
ATOM     19  C   LIG    1        0.622   0.684  -0.861  0.00  0.00    +0.480 A 
ATOM     20  N   LIG    1        1.145   1.879  -0.962  0.00  0.00    -0.540 NA
ATOM     21  C   LIG    1        0.189   2.801  -0.855  0.00  0.00    +0.440 A 
ATOM     22  N   LIG    1       -0.960   2.203  -0.685  0.00  0.00    -0.320 NA
ENDBRANCH  17  18
ENDBRANCH   5  17
TORSDOF 6
