REMARK  Name = ZINCkj00000kJQZm.0
REMARK                            x       y       z     vdW  Elec       q    Type
REMARK                         _______ _______ _______ _____ _____    ______ ____
ROOT
ATOM      1  N   LIG    1       -1.098   1.752   3.570  0.00  0.00    -0.370 N 
ATOM      2  C   LIG    1       -1.323   3.202   3.529  0.00  0.00    +0.270 C 
ATOM      3  C   LIG    1        0.019   3.933   3.602  0.00  0.00    +0.060 C 
ATOM      4  C   LIG    1        0.726   3.561   4.909  0.00  0.00    +0.050 C 
ATOM      5  C   LIG    1        0.890   2.040   4.974  0.00  0.00    -0.020 C 
ATOM      6  C   LIG    1       -0.485   1.379   4.851  0.00  0.00    +0.270 C 
ATOM      7  H   LIG    1       -1.980   1.274   3.469  0.00  0.00    +0.430 HD
ENDROOT
BRANCH   1   8
ATOM      8  C   LIG    1       -0.204   1.366   2.470  0.00  0.00    +0.260 C 
BRANCH   8  10
ATOM      9  C   LIG    1       -1.524  -0.750   2.327  0.00  0.00    +0.130 C 
ATOM     10  C   LIG    1       -0.114  -0.160   2.397  0.00  0.00    +0.080 C 
BRANCH  10  11
ATOM     11  C   LIG    1        0.672  -0.566   1.149  0.00  0.00    +0.440 C 
ATOM     12  F   LIG    1        0.753  -1.960   1.082  0.00  0.00    -0.150 F 
ATOM     13  F   LIG    1        0.020  -0.081   0.009  0.00  0.00    -0.170 F 
ATOM     14  F   LIG    1        1.961  -0.026   1.213  0.00  0.00    -0.170 F 
ENDBRANCH  10  11
BRANCH  10  15
ATOM     15  O   LIG    1        0.551  -0.654   3.561  0.00  0.00    -0.520 OA
ATOM     16  H   LIG    1        1.452  -0.321   3.670  0.00  0.00    +0.400 HD
ENDBRANCH  10  15
ENDBRANCH   8  10
ENDBRANCH   1   8
BRANCH   5  17
ATOM     17  C   LIG    1        1.525   1.652   6.311  0.00  0.00    +0.350 C 
BRANCH  17  18
ATOM     18  N   LIG    1        2.887   2.186   6.378  0.00  0.00    -0.390 N 
ATOM     19  C   LIG    1        3.397   2.976   7.339  0.00  0.00    +0.480 A 
ATOM     20  N   LIG    1        4.643   3.233   7.034  0.00  0.00    -0.540 NA
ATOM     21  C   LIG    1        4.963   2.628   5.892  0.00  0.00    +0.440 A 
ATOM     22  N   LIG    1        3.923   1.970   5.454  0.00  0.00    -0.330 NA
ENDBRANCH  17  18
ENDBRANCH   5  17
TORSDOF 6
