REMARK  Name = ZINCpk00000y6u0c.0
REMARK                            x       y       z     vdW  Elec       q    Type
REMARK                         _______ _______ _______ _____ _____    ______ ____
ROOT
ATOM      1  C   LIG    1        4.514   4.178  -0.653  0.00  0.00    +0.270 C 
ATOM      2  C   LIG    1        5.222   3.016  -1.380  0.00  0.00    +0.080 C 
ATOM      3  C   LIG    1        4.271   1.809  -1.228  0.00  0.00    +0.230 C 
ATOM      4  N   LIG    1        3.465   2.118  -0.019  0.00  0.00    -0.430 N 
ATOM      5  C   LIG    1        3.195   3.575  -0.123  0.00  0.00    +0.270 C 
ENDROOT
BRANCH   4   6
ATOM      6  C   LIG    1        2.285   1.395  -0.012  0.00  0.00    +0.490 A 
ATOM      7  N   LIG    1        1.129   2.043   0.002  0.00  0.00    -0.520 NA
ATOM      8  C   LIG    1       -0.017   1.382   0.010  0.00  0.00    +0.380 A 
ATOM      9  C   LIG    1        0.002  -0.004   0.002  0.00  0.00    -0.040 A 
ATOM     10  C   LIG    1        1.228  -0.650  -0.013  0.00  0.00    +0.120 A 
ATOM     11  N   LIG    1        2.337   0.071  -0.020  0.00  0.00    -0.490 NA
BRANCH  10  12
ATOM     12  C   LIG    1        1.297  -2.155  -0.021  0.00  0.00    +0.530 C 
ATOM     13  F   LIG    1        0.184  -2.677   0.646  0.00  0.00    -0.160 F 
ATOM     14  F   LIG    1        2.466  -2.572   0.625  0.00  0.00    -0.160 F 
ATOM     15  F   LIG    1        1.306  -2.615  -1.343  0.00  0.00    -0.160 F 
ENDBRANCH  10  12
ENDBRANCH   4   6
BRANCH   1  16
ATOM     16  C   LIG    1        4.229   5.301  -1.616  0.00  0.00    +0.160 A 
ATOM     17  N   LIG    1        3.723   6.474  -1.319  0.00  0.00    -0.410 NA
ATOM     18  C   LIG    1        3.648   7.141  -2.485  0.00  0.00    +0.160 A 
ATOM     19  N   LIG    1        4.104   6.355  -3.413  0.00  0.00    -0.380 NA
ATOM     20  C   LIG    1        3.131   8.544  -2.679  0.00  0.00    +0.210 C 
ATOM     21  O   LIG    1        4.449   5.295  -2.934  0.00  0.00    +0.080 OA
ENDBRANCH   1  16
BRANCH   1  24
ATOM     22  C   LIG    1        5.749   6.170   2.374  0.00  0.00    +0.100 C 
ATOM     23  C   LIG    1        4.902   5.676   1.230  0.00  0.00    +0.500 C 
ATOM     24  N   LIG    1        5.337   4.659   0.459  0.00  0.00    -0.720 N 
ATOM     25  H   LIG    1        6.196   4.245   0.642  0.00  0.00    +0.410 HD
ATOM     26  O   LIG    1        3.829   6.192   1.002  0.00  0.00    -0.490 OA
ENDBRANCH   1  24
TORSDOF 4
