REMARK  Name = ZINCpk00000xIkwS.0
REMARK                            x       y       z     vdW  Elec       q    Type
REMARK                         _______ _______ _______ _____ _____    ______ ____
ROOT
ATOM      1  C   LIG    1       -0.902   1.364   1.321  0.00  0.00    +0.500 C 
ATOM      2  N   LIG    1       -0.184   1.330   2.461  0.00  0.00    -0.570 N 
ATOM      3  O   LIG    1       -0.564   0.691   0.371  0.00  0.00    -0.490 OA
ENDROOT
BRANCH   2   4
ATOM      4  C   LIG    1       -0.676   2.016   3.658  0.00  0.00    +0.280 C 
ATOM      5  C   LIG    1       -0.927   3.500   3.338  0.00  0.00    +0.050 C 
ATOM      6  C   LIG    1       -1.745   4.077   4.521  0.00  0.00    -0.280 C 
ATOM      7  S   LIG    1       -2.964   2.748   4.849  0.00  0.00    +2.380 S 
ATOM      8  O   LIG    1       -3.077   2.544   6.251  0.00  0.00    -0.920 OA
ATOM      9  O   LIG    1       -4.131   2.977   4.071  0.00  0.00    -0.920 OA
ATOM     10  C   LIG    1       -2.003   1.377   4.113  0.00  0.00    -0.340 C 
ENDBRANCH   2   4
BRANCH   2  11
ATOM     11  C   LIG    1        1.089   0.606   2.503  0.00  0.00    +0.200 C 
ATOM     12  C   LIG    1        1.736   0.236   1.167  0.00  0.00    +0.040 C 
ATOM     13  C   LIG    1        1.091  -0.850   2.031  0.00  0.00    +0.020 C 
ENDBRANCH   2  11
BRANCH   1  14
ATOM     14  C   LIG    1       -2.125   2.239   1.228  0.00  0.00    +0.360 C 
BRANCH  14  25
ATOM     15  O   LIG    1       -1.960   3.276  -1.500  0.00  0.00    -0.470 OA
ATOM     16  C   LIG    1       -2.755   2.408  -1.196  0.00  0.00    +0.650 A 
ATOM     17  O   LIG    1       -3.627   1.827  -2.035  0.00  0.00    -0.230 OA
ATOM     18  C   LIG    1       -4.358   0.910  -1.354  0.00  0.00    +0.060 A 
ATOM     19  C   LIG    1       -5.378   0.049  -1.726  0.00  0.00    +0.090 A 
ATOM     20  C   LIG    1       -5.947  -0.792  -0.788  0.00  0.00    -0.030 A 
ATOM     21  C   LIG    1       -5.502  -0.779   0.523  0.00  0.00    +0.070 A 
ATOM     22  C   LIG    1       -4.485   0.077   0.902  0.00  0.00    +0.050 A 
ATOM     23 CL   LIG    1       -7.225  -1.870  -1.256  0.00  0.00    -0.040 Cl
ATOM     24  C   LIG    1       -3.911   0.923  -0.033  0.00  0.00    +0.080 A 
ATOM     25  N   LIG    1       -2.895   1.877   0.035  0.00  0.00    -0.530 N 
ENDBRANCH  14  25
ENDBRANCH   1  14
TORSDOF 4
