REMARK  Name = ZINCAx0000000cSY.0
REMARK                            x       y       z     vdW  Elec       q    Type
REMARK                         _______ _______ _______ _____ _____    ______ ____
ROOT
ATOM      1  N   LIG    1       -4.313  -2.246   2.590  0.00  0.00    -0.510 N 
ATOM      2  H   LIG    1       -4.598  -1.573   3.228  0.00  0.00    +0.430 HD
ATOM      3  C   LIG    1       -4.602  -3.544   2.805  0.00  0.00    +0.570 C 
ATOM      4  O   LIG    1       -4.244  -4.387   2.006  0.00  0.00    -0.520 OA
ENDROOT
BRANCH   3   5
ATOM      5  C   LIG    1       -5.354  -3.944   4.014  0.00  0.00    -0.070 A 
ATOM      6  C   LIG    1       -5.676  -3.024   5.002  0.00  0.00    +0.020 A 
ATOM      7  C   LIG    1       -6.397  -3.446   6.129  0.00  0.00    +0.200 A 
ATOM      8  N   LIG    1       -6.775  -4.696   6.294  0.00  0.00    -0.450 NA
ATOM      9  C   LIG    1       -6.504  -5.647   5.399  0.00  0.00    +0.130 A 
ATOM     10  C   LIG    1       -6.921  -6.976   5.603  0.00  0.00    +0.050 A 
ATOM     11  C   LIG    1       -6.630  -7.925   4.671  0.00  0.00    +0.030 A 
ATOM     12  C   LIG    1       -5.924  -7.604   3.514  0.00  0.00    +0.020 A 
ATOM     13  C   LIG    1       -5.504  -6.327   3.283  0.00  0.00    +0.060 A 
ATOM     14  C   LIG    1       -5.785  -5.327   4.220  0.00  0.00    -0.060 A 
BRANCH   7  15
ATOM     15  C   LIG    1       -6.740  -2.451   7.173  0.00  0.00    -0.060 A 
ATOM     16  C   LIG    1       -6.348  -1.121   7.028  0.00  0.00    +0.030 A 
ATOM     17  C   LIG    1       -6.674  -0.198   8.001  0.00  0.00    +0.010 A 
ATOM     18  C   LIG    1       -7.379  -0.593   9.123  0.00  0.00    +0.030 A 
ATOM     19  C   LIG    1       -7.766  -1.912   9.276  0.00  0.00    +0.010 A 
ATOM     20  C   LIG    1       -7.450  -2.843   8.307  0.00  0.00    +0.070 A 
ENDBRANCH   7  15
ENDBRANCH   3   5
BRANCH   1  22
ATOM     21  C   LIG    1       -3.311  -0.568   1.230  0.00  0.00    +0.520 C 
ATOM     22  N   LIG    1       -3.600  -1.867   1.445  0.00  0.00    -0.520 N 
ATOM     23  H   LIG    1       -3.314  -2.539   0.807  0.00  0.00    +0.430 HD
ATOM     24  O   LIG    1       -3.668   0.273   2.028  0.00  0.00    -0.510 OA
BRANCH  21  26
ATOM     25  C   LIG    1       -3.324  -0.578  -1.250  0.00  0.00    +0.100 C 
ATOM     26  C   LIG    1       -2.544  -0.161  -0.001  0.00  0.00    +0.150 C 
BRANCH  26  27
ATOM     27  N   LIG    1       -2.359   1.292  -0.003  0.00  0.00    -0.480 NA
ATOM     28  C   LIG    1       -1.158   1.796  -0.005  0.00  0.00    +0.400 C 
ATOM     29  N   LIG    1       -0.046   0.993  -0.005  0.00  0.00    -1.050 N 
ATOM     30  H   LIG    1       -0.023   0.024  -0.005  0.00  0.00    +0.450 HD
ATOM     31  S   LIG    1        1.262   2.034  -0.014  0.00  0.00    +2.670 S 
ATOM     32  C   LIG    1        0.420   3.592  -0.011  0.00  0.00    -0.630 A 
ATOM     33  C   LIG    1        0.839   4.894  -0.016  0.00  0.00    +0.150 A 
ATOM     34  C   LIG    1       -0.096   5.919  -0.011  0.00  0.00    +0.050 A 
ATOM     35  C   LIG    1       -1.445   5.611  -0.003  0.00  0.00    +0.080 A 
ATOM     36  C   LIG    1       -1.870   4.301   0.001  0.00  0.00    +0.100 A 
ATOM     37  O   LIG    1        1.908   1.896  -1.272  0.00  0.00    -0.930 OA
ATOM     38  O   LIG    1        1.921   1.902   1.238  0.00  0.00    -0.930 OA
ATOM     39  C   LIG    1       -0.937   3.252  -0.003  0.00  0.00    -0.020 A 
ENDBRANCH  26  27
ENDBRANCH  21  26
ENDBRANCH   1  22
TORSDOF 5
