REMARK  Name = ZINCkj00000y7Dvs.0
REMARK                            x       y       z     vdW  Elec       q    Type
REMARK                         _______ _______ _______ _____ _____    ______ ____
ROOT
ATOM      1  N   LIG    1        0.973   2.672   3.903  0.00  0.00    -0.730 N 
ATOM      2  H   LIG    1        1.698   2.045   4.053  0.00  0.00    +0.410 HD
ATOM      3  C   LIG    1        1.024   3.904   4.448  0.00  0.00    +0.570 C 
ATOM      4  O   LIG    1        0.114   4.690   4.260  0.00  0.00    -0.520 OA
ENDROOT
BRANCH   1  11
ATOM      5  C   LIG    1        0.225   1.165   2.097  0.00  0.00    +0.170 C 
ATOM      6  C   LIG    1       -0.667  -0.040   2.465  0.00  0.00    +0.260 C 
ATOM      7  N   LIG    1       -1.040   0.193   3.886  0.00  0.00    -0.520 N 
ATOM      8  C   LIG    1       -1.279   1.657   3.967  0.00  0.00    +0.280 C 
ATOM      9  H   LIG    1       -1.880  -0.316   4.120  0.00  0.00    +0.440 HD
ATOM     10  H   LIG    1       -0.283  -0.076   4.497  0.00  0.00    +0.430 HD
ATOM     11  C   LIG    1       -0.176   2.280   3.084  0.00  0.00    +0.270 C 
BRANCH   5  13
ATOM     12  C   LIG    1        0.836   0.978  -0.213  0.00  0.00    +0.240 C 
ATOM     13  O   LIG    1       -0.029   1.578   0.752  0.00  0.00    -0.360 OA
ENDBRANCH   5  13
ENDBRANCH   1  11
BRANCH   3  14
ATOM     14  C   LIG    1        2.172   4.296   5.266  0.00  0.00    -0.200 C 
ATOM     15  C   LIG    1        2.223   5.528   5.811  0.00  0.00    +0.150 C 
ATOM     16  C   LIG    1        3.299   3.322   5.499  0.00  0.00    +0.100 C 
BRANCH  15  17
ATOM     17  C   LIG    1        3.445   5.981   6.494  0.00  0.00    -0.100 A 
ATOM     18  C   LIG    1        3.356   6.730   7.672  0.00  0.00    +0.080 A 
ATOM     19  C   LIG    1        4.504   7.148   8.308  0.00  0.00    -0.010 A 
ATOM     20  C   LIG    1        5.747   6.835   7.778  0.00  0.00    +0.120 A 
ATOM     21  C   LIG    1        5.843   6.098   6.607  0.00  0.00    -0.020 A 
ATOM     22  F   LIG    1        6.869   7.252   8.404  0.00  0.00    -0.130 F 
ATOM     23  C   LIG    1        4.702   5.670   5.964  0.00  0.00    +0.070 A 
ENDBRANCH  15  17
ENDBRANCH   3  14
TORSDOF 4
