REMARK  Name = ZINCqH0000034xvR.0
REMARK                            x       y       z     vdW  Elec       q    Type
REMARK                         _______ _______ _______ _____ _____    ______ ____
ROOT
ATOM      1  N   LIG    1       -0.078   6.160  -1.352  0.00  0.00    -0.720 N 
ATOM      2  H   LIG    1       -0.068   5.533  -2.092  0.00  0.00    +0.400 HD
ATOM      3  C   LIG    1       -0.096   7.486  -1.593  0.00  0.00    +0.560 C 
ATOM      4  O   LIG    1       -0.109   8.272  -0.665  0.00  0.00    -0.530 OA
ENDROOT
BRANCH   3   5
ATOM      5  C   LIG    1       -0.099   7.985  -2.985  0.00  0.00    -0.100 A 
ATOM      6  C   LIG    1       -0.078   7.085  -4.051  0.00  0.00    +0.010 A 
ATOM      7  C   LIG    1       -0.085   7.554  -5.349  0.00  0.00    +0.050 A 
ATOM      8  C   LIG    1       -0.103   8.914  -5.597  0.00  0.00    -0.040 A 
ATOM      9  C   LIG    1       -0.119   9.817  -4.542  0.00  0.00    +0.130 A 
ATOM     10  C   LIG    1       -0.117   9.357  -3.236  0.00  0.00    +0.060 A 
BRANCH   9  11
ATOM     11  O   LIG    1       -0.136  11.153  -4.792  0.00  0.00    -0.310 OA
BRANCH  11  12
ATOM     12  C   LIG    1       -0.137  11.557  -6.163  0.00  0.00    +0.320 C 
BRANCH  12  13
ATOM     13  C   LIG    1       -0.157  13.062  -6.243  0.00  0.00    +0.050 A 
ATOM     14  C   LIG    1       -0.176  13.843  -5.160  0.00  0.00    -0.040 A 
ATOM     15  S   LIG    1       -0.193  15.520  -5.701  0.00  0.00    +0.140 S 
ATOM     16  C   LIG    1       -0.181  15.003  -7.331  0.00  0.00    +0.230 A 
ATOM     17  N   LIG    1       -0.163  13.714  -7.388  0.00  0.00    -0.470 NA
ENDBRANCH  12  13
ENDBRANCH  11  12
ENDBRANCH   9  11
ENDBRANCH   3   5
BRANCH   1  18
ATOM     18  C   LIG    1       -0.075   5.666   0.027  0.00  0.00    +0.330 C 
BRANCH  18  22
ATOM     19  C   LIG    1       -0.017   1.393   0.009  0.00  0.00    +0.220 A 
ATOM     20  C   LIG    1       -1.228   2.072   0.003  0.00  0.00    -0.080 A 
ATOM     21  C   LIG    1       -1.244   3.453   0.014  0.00  0.00    +0.070 A 
ATOM     22  C   LIG    1       -0.055   4.159   0.021  0.00  0.00    -0.170 A 
ATOM     23  C   LIG    1        1.153   3.486   0.021  0.00  0.00    +0.070 A 
ATOM     24  C   LIG    1        1.175   2.105   0.015  0.00  0.00    -0.070 A 
BRANCH  19  26
ATOM     25  C   LIG    1        1.275  -0.719  -0.125  0.00  0.00    +0.280 C 
ATOM     26  N   LIG    1        0.002  -0.004   0.002  0.00  0.00    -0.640 N 
ATOM     27  C   LIG    1       -1.250  -0.754   0.122  0.00  0.00    +0.280 C 
ENDBRANCH  19  26
ENDBRANCH  18  22
ENDBRANCH   1  18
TORSDOF 7
