REMARK  Name = ZINCrH000004r7Cx.0
REMARK                            x       y       z     vdW  Elec       q    Type
REMARK                         _______ _______ _______ _____ _____    ______ ____
ROOT
ATOM      1  N   LIG    1       -1.373  -0.511   0.041  0.00  0.00    -1.120 NA
ATOM      2  H   LIG    1       -2.105   0.082   0.273  0.00  0.00    +0.420 HD
ENDROOT
BRANCH   1   3
ATOM      3  S   LIG    1       -1.677  -2.095  -0.332  0.00  0.00    +2.700 S 
ATOM      4  O   LIG    1       -0.978  -2.365  -1.539  0.00  0.00    -0.950 OA
ATOM      5  O   LIG    1       -3.079  -2.279  -0.188  0.00  0.00    -0.960 OA
BRANCH   3   6
ATOM      6  C   LIG    1       -0.915  -3.080   0.915  0.00  0.00    -0.670 A 
ATOM      7  C   LIG    1       -1.621  -3.414   2.029  0.00  0.00    +0.170 A 
ATOM      8  C   LIG    1       -1.017  -4.199   3.026  0.00  0.00    -0.080 A 
ATOM      9  C   LIG    1       -1.714  -4.564   4.190  0.00  0.00    +0.040 A 
ATOM     10  C   LIG    1       -1.096  -5.326   5.134  0.00  0.00    +0.010 A 
ATOM     11  C   LIG    1        0.220  -5.751   4.964  0.00  0.00    +0.040 A 
ATOM     12  C   LIG    1        0.926  -5.416   3.849  0.00  0.00    +0.010 A 
ATOM     13  C   LIG    1        0.322  -4.631   2.853  0.00  0.00    -0.010 A 
ATOM     14  C   LIG    1        1.019  -4.266   1.689  0.00  0.00    +0.020 A 
ATOM     15  C   LIG    1        0.399  -3.510   0.742  0.00  0.00    +0.090 A 
ENDBRANCH   3   6
ENDBRANCH   1   3
BRANCH   1  16
ATOM     16  C   LIG    1        0.002  -0.004   0.019  0.00  0.00    +0.300 C 
BRANCH  16  17
ATOM     17  C   LIG    1       -0.019   1.526   0.025  0.00  0.00    +0.070 C 
BRANCH  17  20
ATOM     18  N   LIG    1        1.623   3.376   0.005  0.00  0.00    -0.670 N 
ATOM     19  H   LIG    1        0.880   3.996  -0.060  0.00  0.00    +0.410 HD
ATOM     20  C   LIG    1        1.395   2.047   0.003  0.00  0.00    +0.520 C 
ATOM     21  O   LIG    1        2.327   1.272  -0.017  0.00  0.00    -0.510 OA
BRANCH  18  27
ATOM     22  C   LIG    1        6.284   2.724   1.428  0.00  0.00    +0.100 C 
ATOM     23  C   LIG    1        5.212   3.566   0.786  0.00  0.00    -0.070 A 
ATOM     24  C   LIG    1        5.521   4.819   0.290  0.00  0.00    -0.010 A 
ATOM     25  C   LIG    1        4.540   5.594  -0.300  0.00  0.00    +0.030 A 
ATOM     26  C   LIG    1        3.248   5.116  -0.402  0.00  0.00    -0.120 A 
ATOM     27  C   LIG    1        2.933   3.860   0.100  0.00  0.00    +0.150 A 
ATOM     28  C   LIG    1        2.181   5.959  -1.051  0.00  0.00    +0.090 C 
ATOM     29  C   LIG    1        3.920   3.084   0.693  0.00  0.00    +0.020 A 
ENDBRANCH  18  27
ENDBRANCH  17  20
ENDBRANCH  16  17
ENDBRANCH   1  16
TORSDOF 6
