REMARK  Name = ZINCtV00001bB3p1.0
REMARK                            x       y       z     vdW  Elec       q    Type
REMARK                         _______ _______ _______ _____ _____    ______ ____
ROOT
ATOM      1  N   LIG    1       -4.291   4.150  -6.439  0.00  0.00    -0.180 NA
ATOM      2  N   LIG    1       -4.674   4.664  -7.501  0.00  0.00    -0.190 NA
ENDROOT
BRANCH   2   3
ATOM      3  C   LIG    1       -4.025   5.761  -8.004  0.00  0.00    +0.140 A 
ATOM      4  C   LIG    1       -2.936   6.307  -7.321  0.00  0.00    +0.060 A 
ATOM      5  C   LIG    1       -2.284   7.408  -7.836  0.00  0.00    +0.140 A 
ATOM      6  C   LIG    1       -2.714   7.979  -9.021  0.00  0.00    -0.170 A 
ATOM      7  C   LIG    1       -3.796   7.447  -9.700  0.00  0.00    +0.170 A 
ATOM      8  C   LIG    1       -4.453   6.342  -9.200  0.00  0.00    -0.000 A 
BRANCH   6   9
ATOM      9  C   LIG    1       -2.000   9.185  -9.574  0.00  0.00    +0.520 C 
ATOM     10  F   LIG    1       -2.093   9.182 -10.970  0.00  0.00    -0.170 F 
ATOM     11  F   LIG    1       -0.654   9.145  -9.196  0.00  0.00    -0.170 F 
ATOM     12  F   LIG    1       -2.592  10.348  -9.070  0.00  0.00    -0.170 F 
ENDBRANCH   6   9
BRANCH   8  13
ATOM     13  N   LIG    1       -5.610   5.774  -9.928  0.00  0.00    +0.020 N 
ATOM     14  O   LIG    1       -6.189   4.799  -9.484  0.00  0.00    -0.100 OA
ATOM     15  O   LIG    1       -5.982   6.282 -10.970  0.00  0.00    -0.170 OA
ENDBRANCH   8  13
ENDBRANCH   2   3
BRANCH   1  17
ATOM     16  C   LIG    1       -6.415   3.362  -5.519  0.00  0.00    +0.070 C 
ATOM     17  C   LIG    1       -4.984   2.977  -5.901  0.00  0.00    +0.210 C 
BRANCH  17  18
ATOM     18  C   LIG    1       -4.255   2.478  -4.681  0.00  0.00    -0.080 A 
ATOM     19  C   LIG    1       -4.108   1.120  -4.471  0.00  0.00    +0.020 A 
ATOM     20  C   LIG    1       -3.439   0.662  -3.351  0.00  0.00    +0.000 A 
ATOM     21  C   LIG    1       -2.917   1.562  -2.442  0.00  0.00    -0.070 A 
ATOM     22  C   LIG    1       -3.069   2.921  -2.649  0.00  0.00    +0.010 A 
ATOM     23  C   LIG    1       -3.733   3.379  -3.771  0.00  0.00    +0.030 A 
BRANCH  21  24
ATOM     24  C   LIG    1       -2.188   1.063  -1.221  0.00  0.00    +0.030 C 
ATOM     25  C   LIG    1       -0.753   1.593  -1.232  0.00  0.00    +0.010 C 
ATOM     26  C   LIG    1       -0.013   1.086   0.008  0.00  0.00    +0.000 C 
ATOM     27  C   LIG    1       -0.729   1.579   1.267  0.00  0.00    +0.000 C 
ATOM     28  C   LIG    1       -2.164   1.050   1.278  0.00  0.00    +0.000 C 
ATOM     29  C   LIG    1       -2.904   1.556   0.038  0.00  0.00    +0.010 C 
ENDBRANCH  21  24
ENDBRANCH  17  18
ENDBRANCH   1  17
TORSDOF 6
