REMARK  Name = ZINCpe000000X3eR.0
REMARK                            x       y       z     vdW  Elec       q    Type
REMARK                         _______ _______ _______ _____ _____    ______ ____
ROOT
ATOM      1  N   LIG    1        1.275   3.515  -2.351  0.00  0.00    -0.700 N 
ATOM      2  H   LIG    1        1.692   3.998  -1.620  0.00  0.00    +0.410 HD
ATOM      3  C   LIG    1        0.598   4.186  -3.303  0.00  0.00    +0.560 C 
ATOM      4  O   LIG    1        0.075   3.581  -4.219  0.00  0.00    -0.550 OA
ENDROOT
BRANCH   3   5
ATOM      5  C   LIG    1        0.490   5.657  -3.234  0.00  0.00    -0.140 A 
ATOM      6  C   LIG    1        1.086   6.353  -2.179  0.00  0.00    +0.060 A 
ATOM      7  C   LIG    1        0.991   7.724  -2.119  0.00  0.00    +0.000 A 
ATOM      8  C   LIG    1        0.289   8.419  -3.105  0.00  0.00    +0.030 A 
ATOM      9  C   LIG    1       -0.311   7.725  -4.156  0.00  0.00    +0.000 A 
ATOM     10  C   LIG    1       -0.212   6.354  -4.221  0.00  0.00    +0.090 A 
BRANCH   8  11
ATOM     11  C   LIG    1        0.181   9.896  -3.035  0.00  0.00    -0.210 A 
ATOM     12  C   LIG    1        0.711  10.700  -2.066  0.00  0.00    +0.260 A 
ATOM     13  N   LIG    1        0.390  11.972  -2.373  0.00  0.00    -0.470 N 
ATOM     14  H   LIG    1        0.636  12.759  -1.861  0.00  0.00    +0.440 HD
ATOM     15  N   LIG    1       -0.363  11.963  -3.552  0.00  0.00    -0.290 NA
ATOM     16  C   LIG    1       -0.493  10.727  -3.954  0.00  0.00    +0.260 A 
ENDBRANCH   8  11
ENDBRANCH   3   5
BRANCH   1  17
ATOM     17  C   LIG    1        1.382   2.055  -2.419  0.00  0.00    +0.250 C 
BRANCH  17  23
ATOM     18  C   LIG    1        3.447  -1.699  -2.510  0.00  0.00    +0.050 C 
ATOM     19  C   LIG    1        3.190  -0.193  -2.422  0.00  0.00    +0.100 C 
ATOM     20  C   LIG    1        4.519   0.540  -2.221  0.00  0.00    +0.230 C 
ATOM     21  O   LIG    1        4.266   1.940  -2.066  0.00  0.00    -0.380 OA
ATOM     22  C   LIG    1        3.406   2.250  -0.966  0.00  0.00    +0.240 C 
ATOM     23  C   LIG    1        2.067   1.534  -1.154  0.00  0.00    +0.070 C 
ATOM     24  N   LIG    1        2.304   0.089  -1.284  0.00  0.00    -0.510 NA
ATOM     25  C   LIG    1        1.036  -0.643  -1.410  0.00  0.00    +0.200 C 
BRANCH  23  26
ATOM     26  C   LIG    1        1.171   1.799   0.058  0.00  0.00    +0.210 C 
BRANCH  26  27
ATOM     27  O   LIG    1        0.945   3.204   0.185  0.00  0.00    -0.570 OA
ATOM     28  H   LIG    1        0.384   3.446   0.934  0.00  0.00    +0.390 HD
ENDBRANCH  26  27
ENDBRANCH  23  26
ENDBRANCH  17  23
ENDBRANCH   1  17
TORSDOF 6
