REMARK  Name = ZINCqH0000038vBS.0
REMARK                            x       y       z     vdW  Elec       q    Type
REMARK                         _______ _______ _______ _____ _____    ______ ____
ROOT
ATOM      1  N   LIG    1       -0.275  -5.409   0.458  0.00  0.00    -0.640 N 
ATOM      2  H   LIG    1        0.086  -6.309   0.460  0.00  0.00    +0.420 HD
ATOM      3  C   LIG    1       -1.589  -5.209   0.233  0.00  0.00    +0.710 C 
ATOM      4  N   LIG    1       -2.383  -6.250  -0.088  0.00  0.00    -0.590 N 
ATOM      5  O   LIG    1       -2.057  -4.091   0.320  0.00  0.00    -0.530 OA
ENDROOT
BRANCH   1  11
ATOM      6  C   LIG    1        2.784  -5.634   0.999  0.00  0.00    +0.130 C 
ATOM      7  C   LIG    1        1.951  -4.379   0.937  0.00  0.00    -0.240 A 
ATOM      8  C   LIG    1        2.402  -3.116   1.109  0.00  0.00    +0.250 A 
ATOM      9  N   LIG    1        1.343  -2.277   0.976  0.00  0.00    -0.320 N 
ATOM     10  N   LIG    1        0.207  -3.054   0.719  0.00  0.00    -0.260 NA
ATOM     11  C   LIG    1        0.570  -4.315   0.690  0.00  0.00    +0.320 A 
BRANCH   9  12
ATOM     12  C   LIG    1        1.380  -0.880   1.082  0.00  0.00    +0.170 A 
ATOM     13  C   LIG    1        0.216  -0.140   0.923  0.00  0.00    +0.020 A 
ATOM     14  C   LIG    1        0.255   1.237   1.029  0.00  0.00    +0.040 A 
ATOM     15  C   LIG    1        1.452   1.877   1.294  0.00  0.00    +0.000 A 
ATOM     16  C   LIG    1        2.612   1.143   1.453  0.00  0.00    +0.040 A 
ATOM     17  C   LIG    1        2.580  -0.234   1.348  0.00  0.00    -0.010 A 
ENDBRANCH   9  12
ENDBRANCH   1  11
BRANCH   4  18
ATOM     18  C   LIG    1       -1.843  -7.612  -0.084  0.00  0.00    +0.180 C 
ATOM     19  C   LIG    1       -2.776  -8.743  -0.521  0.00  0.00    +0.030 C 
ATOM     20  C   LIG    1       -2.400  -8.589   0.954  0.00  0.00    +0.020 C 
ENDBRANCH   4  18
BRANCH   4  21
ATOM     21  C   LIG    1       -3.786  -6.019  -0.442  0.00  0.00    +0.370 C 
BRANCH  21  22
ATOM     22  C   LIG    1       -3.888  -5.703  -1.911  0.00  0.00    -0.070 A 
ATOM     23  C   LIG    1       -3.683  -4.412  -2.376  0.00  0.00    -0.010 A 
ATOM     24  C   LIG    1       -3.781  -4.161  -3.732  0.00  0.00    +0.260 A 
ATOM     25  N   LIG    1       -4.075  -5.129  -4.577  0.00  0.00    -0.480 NA
ATOM     26  C   LIG    1       -4.280  -6.367  -4.171  0.00  0.00    +0.250 A 
ATOM     27  C   LIG    1       -4.195  -6.694  -2.831  0.00  0.00    -0.030 A 
ENDBRANCH  21  22
ENDBRANCH   4  21
TORSDOF 5
