REMARK  Name = ZINCnE000001TBU8.0
REMARK                            x       y       z     vdW  Elec       q    Type
REMARK                         _______ _______ _______ _____ _____    ______ ____
ROOT
ATOM      1  C   LIG    1        2.796   5.371  -2.860  0.00  0.00    -0.030 C 
ATOM      2  C   LIG    1        2.362   5.079  -1.423  0.00  0.00    +0.210 C 
ATOM      3  N   LIG    1        1.765   3.735  -1.380  0.00  0.00    -0.530 NA
ATOM      4  C   LIG    1        0.459   3.738  -2.047  0.00  0.00    +0.220 C 
ATOM      5  C   LIG    1        0.575   4.324  -3.430  0.00  0.00    -0.090 A 
ATOM      6  C   LIG    1       -0.446   4.083  -4.337  0.00  0.00    -0.020 A 
ATOM      7  C   LIG    1       -0.382   4.604  -5.614  0.00  0.00    -0.020 A 
ATOM      8  C   LIG    1        0.704   5.370  -5.992  0.00  0.00    -0.030 A 
ATOM      9  C   LIG    1        1.722   5.610  -5.090  0.00  0.00    +0.060 A 
ATOM     10  C   LIG    1        1.660   5.087  -3.808  0.00  0.00    -0.030 A 
ENDROOT
BRANCH   1  12
ATOM     11  O   LIG    1        2.613   7.551  -3.759  0.00  0.00    -0.680 OA
ATOM     12  C   LIG    1        3.196   6.819  -2.978  0.00  0.00    +0.500 C 
ATOM     13  O   LIG    1        4.104   7.259  -2.293  0.00  0.00    -0.690 OA
ENDBRANCH   1  12
BRANCH   3  14
ATOM     14  C   LIG    1        1.647   3.256   0.004  0.00  0.00    +0.310 C 
BRANCH  14  15
ATOM     15  C   LIG    1        1.244   1.804  -0.000  0.00  0.00    +0.050 A 
ATOM     16  C   LIG    1        2.084   0.754  -0.014  0.00  0.00    -0.040 A 
ATOM     17  C   LIG    1        1.284  -0.412  -0.012  0.00  0.00    +0.040 A 
ATOM     18  C   LIG    1        0.002  -0.004   0.002  0.00  0.00    -0.130 A 
ATOM     19  O   LIG    1       -0.016   1.339   0.009  0.00  0.00    -0.150 OA
BRANCH  18  20
ATOM     20  C   LIG    1       -1.208  -0.902   0.008  0.00  0.00    +0.560 C 
ATOM     21  F   LIG    1       -0.908  -2.093  -0.661  0.00  0.00    -0.160 F 
ATOM     22  F   LIG    1       -2.269  -0.259  -0.637  0.00  0.00    -0.170 F 
ATOM     23  F   LIG    1       -1.570  -1.187   1.329  0.00  0.00    -0.170 F 
ENDBRANCH  18  20
ENDBRANCH  14  15
ENDBRANCH   3  14
TORSDOF 4
