REMARK  Name = ZINCtV000002AAnG.0
REMARK                            x       y       z     vdW  Elec       q    Type
REMARK                         _______ _______ _______ _____ _____    ______ ____
ROOT
ATOM      1  C   LIG    1        1.207   1.768   0.039  0.00  0.00    +0.210 A 
ATOM      2  N   LIG    1        1.264   3.065  -0.178  0.00  0.00    -0.450 NA
ATOM      3  C   LIG    1        0.173   3.799  -0.406  0.00  0.00    +0.130 A 
ATOM      4  C   LIG    1        0.265   5.184  -0.634  0.00  0.00    +0.050 A 
ATOM      5  C   LIG    1       -0.866   5.906  -0.863  0.00  0.00    +0.030 A 
ATOM      6  C   LIG    1       -2.119   5.297  -0.876  0.00  0.00    +0.020 A 
ATOM      7  C   LIG    1       -2.246   3.956  -0.659  0.00  0.00    +0.060 A 
ATOM      8  C   LIG    1       -1.104   3.184  -0.420  0.00  0.00    -0.070 A 
ATOM      9  C   LIG    1       -1.192   1.742  -0.188  0.00  0.00    -0.070 A 
ATOM     10  C   LIG    1       -0.006   1.061   0.046  0.00  0.00    +0.020 A 
ENDROOT
BRANCH   1  14
ATOM     11  C   LIG    1        4.823  -0.355   0.744  0.00  0.00    +0.150 A 
ATOM     12  C   LIG    1        4.857   1.013   0.512  0.00  0.00    -0.020 A 
ATOM     13  C   LIG    1        3.687   1.705   0.283  0.00  0.00    +0.110 A 
ATOM     14  C   LIG    1        2.467   1.028   0.284  0.00  0.00    -0.100 A 
ATOM     15  C   LIG    1        2.436  -0.346   0.522  0.00  0.00    +0.070 A 
ATOM     16  C   LIG    1        3.611  -1.033   0.745  0.00  0.00    -0.080 A 
BRANCH  11  18
ATOM     17  C   LIG    1        5.870  -2.440   1.200  0.00  0.00    +0.240 C 
ATOM     18  O   LIG    1        5.978  -1.034   0.969  0.00  0.00    -0.310 OA
ENDBRANCH  11  18
ENDBRANCH   1  14
BRANCH   9  19
ATOM     19  C   LIG    1       -2.493   1.039  -0.197  0.00  0.00    +0.570 C 
ATOM     20  N   LIG    1       -2.534  -0.304  -0.089  0.00  0.00    -0.660 N 
ATOM     21  H   LIG    1       -1.716  -0.804   0.059  0.00  0.00    +0.410 HD
ATOM     22  O   LIG    1       -3.525   1.672  -0.301  0.00  0.00    -0.500 OA
BRANCH  20  23
ATOM     23  C   LIG    1       -3.756  -0.977  -0.193  0.00  0.00    +0.150 A 
ATOM     24  C   LIG    1       -3.815  -2.222  -0.805  0.00  0.00    +0.000 A 
ATOM     25  C   LIG    1       -5.023  -2.884  -0.905  0.00  0.00    +0.050 A 
ATOM     26  C   LIG    1       -6.173  -2.309  -0.397  0.00  0.00    -0.090 A 
ATOM     27  C   LIG    1       -6.117  -1.069   0.215  0.00  0.00    -0.020 A 
ATOM     28 CL   LIG    1       -7.564  -0.351   0.853  0.00  0.00    -0.060 Cl
ATOM     29  C   LIG    1       -7.489  -3.035  -0.508  0.00  0.00    +0.100 C 
ATOM     30  C   LIG    1       -4.911  -0.403   0.322  0.00  0.00    +0.040 A 
ENDBRANCH  20  23
ENDBRANCH   9  19
TORSDOF 4
