REMARK  Name = ZINCpe000000YEoN.1
REMARK                            x       y       z     vdW  Elec       q    Type
REMARK                         _______ _______ _______ _____ _____    ______ ____
ROOT
ATOM      1  C   LIG    1       -2.194   1.094   1.183  0.00  0.00    +0.240 C 
ATOM      2  C   LIG    1       -0.724   1.524   1.254  0.00  0.00    +0.030 C 
ATOM      3  C   LIG    1       -0.001   1.052  -0.011  0.00  0.00    +0.310 C 
ATOM      4  N   LIG    1       -0.722   1.556  -1.188  0.00  0.00    -0.610 N 
ATOM      5  C   LIG    1       -2.160   1.276  -1.308  0.00  0.00    +0.290 C 
ATOM      6  C   LIG    1       -0.078   2.260  -2.139  0.00  0.00    +0.580 C 
ATOM      7  O   LIG    1        1.086   2.576  -1.979  0.00  0.00    -0.520 OA
ATOM      8  C   LIG    1       -2.862   1.745  -0.030  0.00  0.00    +0.030 C 
ENDROOT
BRANCH   6   9
ATOM      9  C   LIG    1       -0.784   2.649  -3.373  0.00  0.00    -0.170 A 
ATOM     10  C   LIG    1       -1.426   1.681  -4.150  0.00  0.00    +0.100 A 
ATOM     11  C   LIG    1       -2.089   2.051  -5.298  0.00  0.00    -0.020 A 
ATOM     12  C   LIG    1       -2.112   3.380  -5.696  0.00  0.00    +0.140 A 
ATOM     13  C   LIG    1       -1.475   4.348  -4.939  0.00  0.00    -0.040 A 
ATOM     14  F   LIG    1       -2.761   3.732  -6.828  0.00  0.00    -0.130 F 
ATOM     15  C   LIG    1       -0.809   3.992  -3.778  0.00  0.00    +0.190 A 
BRANCH  15  16
ATOM     16  O   LIG    1       -0.184   4.939  -3.034  0.00  0.00    -0.490 OA
ATOM     17  H   LIG    1        0.739   5.088  -3.281  0.00  0.00    +0.410 HD
ENDBRANCH  15  16
ENDBRANCH   6   9
BRANCH   1  20
ATOM     18  C   LIG    1       -4.018   1.519   4.293  0.00  0.00    -0.160 A 
ATOM     19  C   LIG    1       -3.507   0.696   3.300  0.00  0.00    +0.370 A 
ATOM     20  N   LIG    1       -2.885   1.515   2.405  0.00  0.00    -0.480 N 
ATOM     21  C   LIG    1       -3.016   2.796   2.854  0.00  0.00    +0.390 A 
ATOM     22  N   LIG    1       -3.689   2.798   3.966  0.00  0.00    -0.440 NA
BRANCH  18  26
ATOM     23  N   LIG    1       -5.209   2.005   6.363  0.00  0.00    -0.840 N 
ATOM     24  H   LIG    1       -5.707   1.722   7.145  0.00  0.00    +0.400 HD
ATOM     25  H   LIG    1       -5.025   2.947   6.219  0.00  0.00    +0.410 HD
ATOM     26  C   LIG    1       -4.771   1.091   5.475  0.00  0.00    +0.620 C 
ATOM     27  O   LIG    1       -5.001  -0.091   5.654  0.00  0.00    -0.570 OA
ENDBRANCH  18  26
BRANCH  19  28
ATOM     28  N   LIG    1       -3.608  -0.679   3.232  0.00  0.00    -0.830 N 
ATOM     29  H   LIG    1       -4.076  -1.166   3.929  0.00  0.00    +0.430 HD
ATOM     30  H   LIG    1       -3.211  -1.159   2.489  0.00  0.00    +0.400 HD
ENDBRANCH  19  28
ENDBRANCH   1  20
TORSDOF 5
