REMARK  Name = ZINCvU000000071m.0
REMARK                            x       y       z     vdW  Elec       q    Type
REMARK                         _______ _______ _______ _____ _____    ______ ____
ROOT
ATOM      1  C   LIG    1       -4.227   4.938   8.202  0.00  0.00    +0.610 C 
ATOM      2  N   LIG    1       -4.086   3.989   7.255  0.00  0.00    -0.610 N 
ATOM      3  H   LIG    1       -4.646   3.197   7.276  0.00  0.00    +0.430 HD
ATOM      4  O   LIG    1       -3.525   5.931   8.176  0.00  0.00    -0.470 OA
ENDROOT
BRANCH   1   6
ATOM      5  C   LIG    1       -5.457   5.661  10.267  0.00  0.00    -0.060 A 
ATOM      6  C   LIG    1       -5.228   4.773   9.264  0.00  0.00    -0.020 A 
ATOM      7  O   LIG    1       -6.062   3.720   9.389  0.00  0.00    -0.180 OA
ATOM      8  C   LIG    1       -6.858   3.863  10.467  0.00  0.00    +0.080 A 
ATOM      9  C   LIG    1       -7.861   3.076  11.020  0.00  0.00    +0.030 A 
ATOM     10  C   LIG    1       -8.518   3.501  12.155  0.00  0.00    +0.070 A 
ATOM     11  C   LIG    1       -8.191   4.710  12.754  0.00  0.00    +0.010 A 
ATOM     12  C   LIG    1       -7.208   5.500  12.227  0.00  0.00    +0.080 A 
ATOM     13  C   LIG    1       -6.530   5.087  11.079  0.00  0.00    -0.140 A 
BRANCH   5  14
ATOM     14  C   LIG    1       -4.750   6.972  10.495  0.00  0.00    +0.270 C 
BRANCH  14  15
ATOM     15  O   LIG    1       -5.441   8.013   9.803  0.00  0.00    -0.380 OA
BRANCH  15  17
ATOM     16  C   LIG    1       -5.668  10.336   9.175  0.00  0.00    +0.040 C 
ATOM     17  C   LIG    1       -4.849   9.305   9.955  0.00  0.00    +0.160 C 
ENDBRANCH  15  17
ENDBRANCH  14  15
ENDBRANCH   5  14
ENDBRANCH   1   6
BRANCH   2  18
ATOM     18  C   LIG    1       -3.141   4.144   6.251  0.00  0.00    +0.280 A 
ATOM     19  N   LIG    1       -2.920   3.299   5.293  0.00  0.00    -0.490 NA
ATOM     20  C   LIG    1       -1.969   3.616   4.417  0.00  0.00    +0.160 A 
ATOM     21  C   LIG    1       -1.346   4.789   4.644  0.00  0.00    -0.110 A 
ATOM     22  S   LIG    1       -2.055   5.520   6.082  0.00  0.00    +0.230 S 
BRANCH  20  23
ATOM     23  C   LIG    1       -1.616   2.740   3.279  0.00  0.00    -0.120 A 
ATOM     24  C   LIG    1       -2.196   1.556   2.999  0.00  0.00    +0.050 A 
ATOM     25  C   LIG    1       -1.696   0.919   1.881  0.00  0.00    +0.040 A 
ATOM     26  C   LIG    1       -0.718   1.572   1.248  0.00  0.00    -0.210 A 
ATOM     27  S   LIG    1       -0.372   3.080   2.083  0.00  0.00    +0.150 S 
BRANCH  26  28
ATOM     28  C   LIG    1       -0.013   1.086   0.008  0.00  0.00    +0.360 C 
BRANCH  28  29
ATOM     29  N   LIG    1       -0.721   1.571  -1.179  0.00  0.00    -0.730 N 
ATOM     30  H   LIG    1       -1.516   2.118  -1.079  0.00  0.00    +0.400 HD
ATOM     31  C   LIG    1       -0.268   1.258  -2.409  0.00  0.00    +0.510 C 
ATOM     32  O   LIG    1        0.726   0.575  -2.534  0.00  0.00    -0.540 OA
ATOM     33  C   LIG    1       -0.997   1.758  -3.630  0.00  0.00    +0.110 C 
ENDBRANCH  28  29
ENDBRANCH  26  28
ENDBRANCH  20  23
ENDBRANCH   2  18
TORSDOF 8
