REMARK  Name = ZINCpe00000VVGcq.0
REMARK                            x       y       z     vdW  Elec       q    Type
REMARK                         _______ _______ _______ _____ _____    ______ ____
ROOT
ATOM      1  N   LIG    1        0.442   7.054   4.352  0.00  0.00    -0.530 N 
ATOM      2  H   LIG    1        1.053   7.026   3.599  0.00  0.00    +0.420 HD
ATOM      3  C   LIG    1       -0.423   6.041   4.556  0.00  0.00    +0.570 C 
ATOM      4  O   LIG    1       -1.189   6.076   5.500  0.00  0.00    -0.520 OA
ENDROOT
BRANCH   3   5
ATOM      5  C   LIG    1       -0.442   4.888   3.633  0.00  0.00    -0.150 A 
ATOM      6  C   LIG    1        0.442   4.849   2.546  0.00  0.00    +0.050 A 
ATOM      7  C   LIG    1        0.435   3.790   1.687  0.00  0.00    +0.020 A 
ATOM      8  C   LIG    1       -0.448   2.734   1.887  0.00  0.00    +0.070 A 
ATOM      9  C   LIG    1       -1.346   2.759   2.970  0.00  0.00    +0.040 A 
ATOM     10  N   LIG    1       -2.076   1.615   2.905  0.00  0.00    -0.480 NA
ATOM     11  C   LIG    1       -1.696   0.914   1.878  0.00  0.00    +0.290 A 
ATOM     12  C   LIG    1       -2.277  -0.419   1.480  0.00  0.00    +0.190 C 
ATOM     13  N   LIG    1       -0.698   1.558   1.213  0.00  0.00    -0.490 N 
ATOM     14  C   LIG    1       -1.336   3.843   3.846  0.00  0.00    +0.170 A 
BRANCH  13  15
ATOM     15  C   LIG    1       -0.013   1.086   0.008  0.00  0.00    +0.290 C 
ATOM     16  C   LIG    1       -0.753   1.593  -1.232  0.00  0.00    +0.030 C 
ENDBRANCH  13  15
ENDBRANCH   3   5
BRANCH   1  20
ATOM     17  N   LIG    1        2.173   9.121   3.978  0.00  0.00    -0.740 N 
ATOM     18  H   LIG    1        2.161   8.364   3.371  0.00  0.00    +0.400 HD
ATOM     19  C   LIG    1        1.324   9.160   5.024  0.00  0.00    +0.720 C 
ATOM     20  N   LIG    1        0.459   8.147   5.228  0.00  0.00    -0.520 N 
ATOM     21  H   LIG    1       -0.151   8.175   5.981  0.00  0.00    +0.450 HD
ATOM     22  O   LIG    1        1.339  10.109   5.784  0.00  0.00    -0.560 OA
BRANCH  17  23
ATOM     23  C   LIG    1        3.113  10.223   3.756  0.00  0.00    +0.380 C 
BRANCH  23  24
ATOM     24  C   LIG    1        3.942   9.936   2.530  0.00  0.00    +0.460 C 
ATOM     25  O   LIG    1        3.765   8.917   1.906  0.00  0.00    -0.510 OA
BRANCH  24  26
ATOM     26  O   LIG    1        4.877  10.813   2.132  0.00  0.00    -0.350 OA
BRANCH  26  28
ATOM     27  C   LIG    1        6.647  11.583   0.647  0.00  0.00    +0.060 C 
ATOM     28  C   LIG    1        5.637  10.472   0.943  0.00  0.00    +0.200 C 
ENDBRANCH  26  28
ENDBRANCH  24  26
ENDBRANCH  23  24
ENDBRANCH  17  23
ENDBRANCH   1  20
TORSDOF 7
