REMARK  Name = ZINCtV00000RI2Ue.0
REMARK                            x       y       z     vdW  Elec       q    Type
REMARK                         _______ _______ _______ _____ _____    ______ ____
ROOT
ATOM      1  N   LIG    1        2.943   5.107   0.172  0.00  0.00    -0.480 N 
ATOM      2  C   LIG    1        2.008   6.048   0.412  0.00  0.00    +0.550 C 
ATOM      3  O   LIG    1        0.829   5.787   0.260  0.00  0.00    -0.460 OA
ENDROOT
BRANCH   1   4
ATOM      4  C   LIG    1        2.571   3.876  -0.344  0.00  0.00    +0.340 A 
ATOM      5  N   LIG    1        1.379   3.568  -0.725  0.00  0.00    -0.470 NA
ATOM      6  C   LIG    1        1.172   2.328  -1.207  0.00  0.00    +0.110 A 
ATOM      7  C   LIG    1       -0.026   1.754  -1.683  0.00  0.00    +0.070 A 
ATOM      8  C   LIG    1       -0.043   0.460  -2.140  0.00  0.00    +0.040 A 
ATOM      9  C   LIG    1        1.115  -0.303  -2.143  0.00  0.00    +0.030 A 
ATOM     10  C   LIG    1        2.296   0.236  -1.683  0.00  0.00    +0.060 A 
ATOM     11  C   LIG    1        2.332   1.546  -1.214  0.00  0.00    -0.180 A 
ATOM     12  S   LIG    1        3.657   2.513  -0.571  0.00  0.00    +0.080 S 
ENDBRANCH   1   4
BRANCH   1  17
ATOM     13  C   LIG    1        6.376   6.391  -0.169  0.00  0.00    +0.140 A 
ATOM     14  C   LIG    1        6.955   5.896   0.991  0.00  0.00    -0.050 A 
ATOM     15  C   LIG    1        6.204   5.143   1.874  0.00  0.00    +0.080 A 
ATOM     16  C   LIG    1        4.875   4.881   1.605  0.00  0.00    -0.010 A 
ATOM     17  C   LIG    1        4.290   5.373   0.445  0.00  0.00    +0.140 A 
ATOM     18  C   LIG    1        5.044   6.124  -0.445  0.00  0.00    +0.000 A 
BRANCH  13  20
ATOM     19  C   LIG    1        8.483   7.360  -0.690  0.00  0.00    +0.240 C 
ATOM     20  O   LIG    1        7.116   7.131  -1.036  0.00  0.00    -0.310 OA
ENDBRANCH  13  20
ENDBRANCH   1  17
BRANCH   2  21
ATOM     21  C   LIG    1        2.411   7.383   0.854  0.00  0.00    -0.070 C 
ATOM     22  C   LIG    1        1.473   8.294   1.188  0.00  0.00    +0.130 C 
BRANCH  22  23
ATOM     23  C   LIG    1        1.878   9.636   1.633  0.00  0.00    -0.070 A 
ATOM     24  C   LIG    1        3.233   9.971   1.716  0.00  0.00    +0.050 A 
ATOM     25  C   LIG    1        3.605  11.233   2.128  0.00  0.00    +0.010 A 
ATOM     26  C   LIG    1        2.641  12.165   2.471  0.00  0.00    +0.050 A 
ATOM     27  C   LIG    1        1.298  11.842   2.397  0.00  0.00    +0.030 A 
ATOM     28  C   LIG    1        0.909  10.585   1.980  0.00  0.00    -0.010 A 
ATOM     29 CL   LIG    1       -0.777  10.181   1.888  0.00  0.00    -0.050 Cl
ENDBRANCH  22  23
ENDBRANCH   2  21
TORSDOF 5
