REMARK  Name = ZINCtV00001bB3dr.0
REMARK                            x       y       z     vdW  Elec       q    Type
REMARK                         _______ _______ _______ _____ _____    ______ ____
ROOT
ATOM      1  C   LIG    1        1.183  -1.728  -4.769  0.00  0.00    +0.190 C 
ATOM      2  C   LIG    1        1.207  -2.572  -3.521  0.00  0.00    +0.380 A 
ATOM      3  N   LIG    1        1.209  -1.973  -2.344  0.00  0.00    -0.570 NA
ATOM      4  C   LIG    1        1.230  -2.669  -1.219  0.00  0.00    +0.450 A 
ATOM      5  C   LIG    1        1.257  -4.085  -1.289  0.00  0.00    -0.180 A 
ATOM      6  C   LIG    1        1.248  -4.671  -2.561  0.00  0.00    +0.110 A 
ATOM      7  S   LIG    1        1.276  -6.421  -2.409  0.00  0.00    +0.210 S 
ATOM      8  C   LIG    1        1.310  -6.339  -0.658  0.00  0.00    -0.160 A 
ATOM      9  C   LIG    1        1.290  -5.075  -0.233  0.00  0.00    -0.020 A 
ATOM     10  C   LIG    1        1.299  -4.707   1.228  0.00  0.00    +0.130 C 
ATOM     11  N   LIG    1        1.226  -3.880  -3.640  0.00  0.00    -0.510 NA
ENDROOT
BRANCH   8  12
ATOM     12  C   LIG    1        1.344  -7.518   0.233  0.00  0.00    -0.010 A 
ATOM     13  C   LIG    1        0.434  -7.628   1.285  0.00  0.00    +0.060 A 
ATOM     14  C   LIG    1        0.470  -8.732   2.112  0.00  0.00    +0.030 A 
ATOM     15  C   LIG    1        1.406  -9.728   1.901  0.00  0.00    +0.040 A 
ATOM     16  C   LIG    1        2.312  -9.627   0.861  0.00  0.00    +0.030 A 
ATOM     17  C   LIG    1        2.283  -8.530   0.022  0.00  0.00    -0.030 A 
ATOM     18 CL   LIG    1        3.416  -8.407  -1.288  0.00  0.00    -0.050 Cl
ENDBRANCH   8  12
BRANCH   4  19
ATOM     19  O   LIG    1        1.231  -2.040  -0.020  0.00  0.00    -0.210 OA
BRANCH  19  20
ATOM     20  C   LIG    1        1.210  -0.683  -0.013  0.00  0.00    +0.150 A 
ATOM     21  C   LIG    1       -0.001  -0.005   0.002  0.00  0.00    -0.040 A 
ATOM     22  C   LIG    1       -0.020   1.377   0.009  0.00  0.00    +0.080 A 
ATOM     23  C   LIG    1        1.165   2.094   0.002  0.00  0.00    +0.050 A 
ATOM     24  C   LIG    1        2.376   1.436  -0.012  0.00  0.00    +0.070 A 
ATOM     25 CL   LIG    1       -1.492  -0.893   0.010  0.00  0.00    -0.040 Cl
ATOM     26  C   LIG    1        2.410   0.040  -0.020  0.00  0.00    -0.120 A 
BRANCH  26  27
ATOM     27  C   LIG    1        3.704  -0.670  -0.035  0.00  0.00    +0.560 C 
ATOM     28  O   LIG    1        3.730  -1.885  -0.042  0.00  0.00    -0.520 OA
ATOM     29  N   LIG    1        4.856   0.029  -0.042  0.00  0.00    -0.850 N 
ATOM     30  H   LIG    1        5.707  -0.438  -0.052  0.00  0.00    +0.410 HD
ATOM     31  H   LIG    1        4.835   0.999  -0.037  0.00  0.00    +0.400 HD
ENDBRANCH  26  27
ENDBRANCH  19  20
ENDBRANCH   4  19
TORSDOF 4
