REMARK  Name = ZINCrH000004nzDV.0
REMARK                            x       y       z     vdW  Elec       q    Type
REMARK                         _______ _______ _______ _____ _____    ______ ____
ROOT
ATOM      1  N   LIG    1        0.315   5.889   5.532  0.00  0.00    -0.570 N 
ATOM      2  C   LIG    1       -0.452   5.040   4.819  0.00  0.00    +0.560 C 
ATOM      3  O   LIG    1       -0.208   4.841   3.644  0.00  0.00    -0.520 OA
ENDROOT
BRANCH   2   4
ATOM      4  C   LIG    1       -1.587   4.352   5.464  0.00  0.00    -0.150 A 
ATOM      5  C   LIG    1       -1.462   3.842   6.760  0.00  0.00    +0.070 A 
ATOM      6  C   LIG    1       -2.528   3.207   7.337  0.00  0.00    -0.030 A 
ATOM      7  C   LIG    1       -3.754   3.055   6.661  0.00  0.00    +0.200 A 
ATOM      8  N   LIG    1       -4.720   2.386   7.368  0.00  0.00    -0.650 N 
ATOM      9  H   LIG    1       -4.370   2.015   8.193  0.00  0.00    +0.400 HD
ATOM     10  C   LIG    1       -5.986   2.121   7.218  0.00  0.00    +0.530 C 
ATOM     11  C   LIG    1       -6.815   2.354   6.006  0.00  0.00    +0.070 C 
ATOM     12  C   LIG    1       -6.410   3.615   5.281  0.00  0.00    +0.040 C 
ATOM     13  C   LIG    1       -5.114   3.486   4.542  0.00  0.00    +0.090 C 
ATOM     14  O   LIG    1       -6.551   1.628   8.171  0.00  0.00    -0.540 OA
ATOM     15  C   LIG    1       -3.878   3.560   5.381  0.00  0.00    -0.120 A 
ATOM     16  C   LIG    1       -2.795   4.203   4.791  0.00  0.00    +0.110 A 
ENDBRANCH   2   4
BRANCH   1  17
ATOM     17  C   LIG    1        1.344   6.687   4.860  0.00  0.00    +0.210 C 
ATOM     18  C   LIG    1        1.262   6.806   3.337  0.00  0.00    +0.030 C 
ATOM     19  C   LIG    1        2.351   5.944   3.980  0.00  0.00    +0.010 C 
ENDBRANCH   1  17
BRANCH   1  20
ATOM     20  C   LIG    1        0.120   6.013   6.978  0.00  0.00    +0.330 C 
BRANCH  20  26
ATOM     21  C   LIG    1        2.362   6.646   7.907  0.00  0.00    +0.140 A 
ATOM     22  C   LIG    1        3.542   6.325   8.562  0.00  0.00    -0.080 A 
ATOM     23  C   LIG    1        3.759   5.031   8.997  0.00  0.00    +0.060 A 
ATOM     24  C   LIG    1        2.802   4.058   8.779  0.00  0.00    -0.020 A 
ATOM     25  C   LIG    1        1.623   4.377   8.130  0.00  0.00    +0.060 A 
ATOM     26  C   LIG    1        1.403   5.667   7.689  0.00  0.00    -0.140 A 
BRANCH  21  28
ATOM     27  C   LIG    1        3.177   8.873   7.737  0.00  0.00    +0.240 C 
ATOM     28  O   LIG    1        2.146   7.918   7.479  0.00  0.00    -0.310 OA
ENDBRANCH  21  28
ENDBRANCH  20  26
ENDBRANCH   1  20
TORSDOF 5
