REMARK  Name = ZINCvU00000008ef.0
REMARK                            x       y       z     vdW  Elec       q    Type
REMARK                         _______ _______ _______ _____ _____    ______ ____
ROOT
ATOM      1  O   LIG    1        3.161  -0.797  -2.104  0.00  0.00    -0.530 OA
ATOM      2  C   LIG    1        3.523  -1.945  -2.281  0.00  0.00    +0.700 C 
ATOM      3  N   LIG    1        4.183  -2.601  -1.306  0.00  0.00    -0.620 N 
ATOM      4  C   LIG    1        4.551  -4.014  -1.471  0.00  0.00    +0.270 C 
ATOM      5  C   LIG    1        4.018  -4.806  -0.273  0.00  0.00    +0.010 C 
ATOM      6  C   LIG    1        4.530  -4.170   1.022  0.00  0.00    +0.020 C 
ATOM      7  C   LIG    1        4.014  -2.733   1.125  0.00  0.00    +0.040 C 
ATOM      8  C   LIG    1        4.546  -1.918  -0.057  0.00  0.00    +0.340 C 
ATOM      9  N   LIG    1        3.265  -2.560  -3.452  0.00  0.00    -0.680 N 
ATOM     10  H   LIG    1        3.482  -3.499  -3.564  0.00  0.00    +0.410 HD
ENDROOT
BRANCH   8  11
ATOM     11  C   LIG    1        3.934  -0.541  -0.037  0.00  0.00    +0.240 A 
ATOM     12  N   LIG    1        2.657  -0.281  -0.013  0.00  0.00    -0.430 NA
ATOM     13  C   LIG    1        2.477   1.056  -0.005  0.00  0.00    +0.050 A 
ATOM     14  C   LIG    1        3.704   1.638  -0.016  0.00  0.00    +0.150 A 
ATOM     15  N   LIG    1        4.620   0.623  -0.036  0.00  0.00    -0.560 N 
ATOM     16  H   LIG    1        5.585   0.721  -0.048  0.00  0.00    +0.420 HD
BRANCH  13  17
ATOM     17  C   LIG    1        1.173   1.763   0.018  0.00  0.00    +0.040 A 
ATOM     18  C   LIG    1        1.133   3.156   0.031  0.00  0.00    +0.000 A 
ATOM     19  C   LIG    1       -0.082   3.810   0.053  0.00  0.00    +0.040 A 
ATOM     20  C   LIG    1       -1.260   3.087   0.061  0.00  0.00    -0.030 A 
ATOM     21  C   LIG    1       -1.228   1.702   0.043  0.00  0.00    +0.100 A 
ATOM     22  F   LIG    1       -2.382   1.000   0.047  0.00  0.00    -0.140 F 
ATOM     23  C   LIG    1       -0.016   1.037   0.027  0.00  0.00    +0.010 A 
ENDBRANCH  13  17
ENDBRANCH   8  11
BRANCH   9  24
ATOM     24  C   LIG    1        2.685  -1.843  -4.507  0.00  0.00    +0.160 A 
ATOM     25  C   LIG    1        2.990  -0.502  -4.688  0.00  0.00    +0.050 A 
ATOM     26  C   LIG    1        2.416   0.203  -5.729  0.00  0.00    +0.010 A 
ATOM     27  C   LIG    1        1.537  -0.425  -6.592  0.00  0.00    +0.030 A 
ATOM     28  C   LIG    1        1.228  -1.762  -6.418  0.00  0.00    -0.030 A 
ATOM     29  C   LIG    1        1.804  -2.477  -5.380  0.00  0.00    +0.070 A 
BRANCH  29  30
ATOM     30  O   LIG    1        1.505  -3.793  -5.212  0.00  0.00    -0.320 OA
BRANCH  30  31
ATOM     31  C   LIG    1        0.594  -4.376  -6.145  0.00  0.00    +0.590 C 
ATOM     32  F   LIG    1        1.120  -4.273  -7.437  0.00  0.00    -0.200 F 
ATOM     33  F   LIG    1       -0.631  -3.703  -6.085  0.00  0.00    -0.200 F 
ENDBRANCH  30  31
ENDBRANCH  29  30
ENDBRANCH   9  24
TORSDOF 5
