REMARK  Name = ZINCqH0000000sIn.0
REMARK                            x       y       z     vdW  Elec       q    Type
REMARK                         _______ _______ _______ _____ _____    ______ ____
ROOT
ATOM      1  S   LIG    1        0.235   4.647   0.519  0.00  0.00    +2.690 S 
ATOM      2  O   LIG    1        1.598   4.895   0.202  0.00  0.00    -0.950 OA
ATOM      3  O   LIG    1       -0.366   5.055   1.741  0.00  0.00    -0.950 OA
ENDROOT
BRANCH   1   8
ATOM      4  C   LIG    1       -0.801   0.850   1.349  0.00  0.00    +0.120 A 
ATOM      5  C   LIG    1       -0.343   0.162   0.233  0.00  0.00    +0.050 A 
ATOM      6  C   LIG    1        0.292   0.846  -0.785  0.00  0.00    +0.020 A 
ATOM      7  C   LIG    1        0.463   2.215  -0.699  0.00  0.00    +0.010 A 
ATOM      8  C   LIG    1        0.008   2.903   0.411  0.00  0.00    -0.660 A 
ATOM      9  C   LIG    1        1.152   2.958  -1.814  0.00  0.00    +0.100 C 
ATOM     10  C   LIG    1       -0.623   2.225   1.435  0.00  0.00    +0.140 A 
BRANCH   4  13
ATOM     11  C   LIG    1       -1.859  -0.261   4.786  0.00  0.00    +0.110 C 
ATOM     12  C   LIG    1       -1.264   0.549   3.663  0.00  0.00    +0.510 C 
ATOM     13  N   LIG    1       -1.440   0.160   2.385  0.00  0.00    -0.680 N 
ATOM     14  H   LIG    1       -2.009  -0.599   2.183  0.00  0.00    +0.410 HD
ATOM     15  O   LIG    1       -0.628   1.552   3.910  0.00  0.00    -0.520 OA
ENDBRANCH   4  13
ENDBRANCH   1   8
BRANCH   1  16
ATOM     16  N   LIG    1       -0.660   5.334  -0.694  0.00  0.00    -1.110 NA
ATOM     17  H   LIG    1       -0.217   5.807  -1.415  0.00  0.00    +0.420 HD
BRANCH  16  18
ATOM     18  C   LIG    1       -2.121   5.227  -0.676  0.00  0.00    +0.300 C 
BRANCH  18  19
ATOM     19  C   LIG    1       -2.725   6.520  -1.160  0.00  0.00    -0.090 A 
ATOM     20  C   LIG    1       -2.147   7.200  -2.216  0.00  0.00    +0.050 A 
ATOM     21  C   LIG    1       -2.703   8.383  -2.664  0.00  0.00    -0.010 A 
ATOM     22  C   LIG    1       -3.833   8.893  -2.047  0.00  0.00    +0.100 A 
ATOM     23  C   LIG    1       -4.408   8.214  -0.986  0.00  0.00    -0.010 A 
ATOM     24  F   LIG    1       -4.374  10.053  -2.481  0.00  0.00    -0.140 F 
ATOM     25  C   LIG    1       -3.853   7.029  -0.544  0.00  0.00    +0.060 A 
ENDBRANCH  18  19
BRANCH  18  26
ATOM     26  C   LIG    1       -2.559   4.084  -1.595  0.00  0.00    -0.030 C 
ATOM     27  C   LIG    1       -2.053   4.347  -3.014  0.00  0.00    +0.020 C 
ATOM     28  C   LIG    1       -4.087   3.997  -1.606  0.00  0.00    +0.030 C 
ENDBRANCH  18  26
ENDBRANCH  16  18
ENDBRANCH   1  16
TORSDOF 6
