REMARK  Name = ZINCvU0000000FlT.0
REMARK                            x       y       z     vdW  Elec       q    Type
REMARK                         _______ _______ _______ _____ _____    ______ ____
ROOT
ATOM      1  C   LIG    1        3.671   2.186  -0.021  0.00  0.00    +0.370 C 
ATOM      2  C   LIG    1        3.989   2.674   1.355  0.00  0.00    -0.240 A 
ATOM      3  C   LIG    1        4.028   4.041   1.312  0.00  0.00    +0.100 A 
ATOM      4  C   LIG    1        3.748   4.468  -0.069  0.00  0.00    +0.570 C 
ATOM      5  O   LIG    1        3.712   5.623  -0.446  0.00  0.00    -0.430 OA
ATOM      6  O   LIG    1        4.284   4.795   2.399  0.00  0.00    -0.180 OA
ATOM      7  C   LIG    1        4.750   4.203   3.528  0.00  0.00    +0.140 A 
ATOM      8  C   LIG    1        5.239   5.005   4.558  0.00  0.00    +0.020 A 
ATOM      9  C   LIG    1        5.707   4.432   5.719  0.00  0.00    +0.100 A 
ATOM     10  C   LIG    1        5.700   3.055   5.886  0.00  0.00    +0.000 A 
ATOM     11  C   LIG    1        5.224   2.240   4.882  0.00  0.00    +0.120 A 
ATOM     12  C   LIG    1        4.751   2.809   3.700  0.00  0.00    -0.210 A 
ATOM     13  C   LIG    1        4.240   1.947   2.603  0.00  0.00    +0.460 A 
ATOM     14  O   LIG    1        4.049   0.751   2.729  0.00  0.00    -0.430 OA
ATOM     15  N   LIG    1        3.538   3.392  -0.854  0.00  0.00    -0.510 N 
ENDROOT
BRANCH  15  16
ATOM     16  C   LIG    1        3.247   3.418  -2.211  0.00  0.00    +0.280 A 
ATOM     17  N   LIG    1        3.133   4.493  -2.927  0.00  0.00    -0.480 NA
ATOM     18  C   LIG    1        2.852   4.333  -4.206  0.00  0.00    +0.090 A 
ATOM     19  C   LIG    1        2.721   3.061  -4.590  0.00  0.00    -0.240 A 
ATOM     20  C   LIG    1        2.403   2.586  -5.985  0.00  0.00    +0.160 C 
ATOM     21  C   LIG    1        2.691   5.492  -5.156  0.00  0.00    +0.160 C 
ATOM     22  S   LIG    1        2.992   2.035  -3.184  0.00  0.00    +0.170 S 
ENDBRANCH  15  16
BRANCH   1  26
ATOM     23  C   LIG    1        0.002  -0.004   0.002  0.00  0.00    +0.150 A 
ATOM     24  C   LIG    1       -0.017   1.383   0.010  0.00  0.00    -0.020 A 
ATOM     25  C   LIG    1        1.171   2.089   0.002  0.00  0.00    +0.070 A 
ATOM     26  C   LIG    1        2.377   1.414  -0.013  0.00  0.00    -0.150 A 
ATOM     27  C   LIG    1        2.399   0.031  -0.021  0.00  0.00    +0.090 A 
ATOM     28  C   LIG    1        1.214  -0.679  -0.013  0.00  0.00    -0.080 A 
BRANCH  23  29
ATOM     29  O   LIG    1       -1.165  -0.701   0.010  0.00  0.00    -0.310 OA
BRANCH  29  31
ATOM     30  C   LIG    1       -2.474  -2.732   0.012  0.00  0.00    +0.070 C 
ATOM     31  C   LIG    1       -1.069  -2.126   0.001  0.00  0.00    +0.170 C 
ENDBRANCH  29  31
ENDBRANCH  23  29
ENDBRANCH   1  26
TORSDOF 4
