REMARK  Name = ZINCqH0000033fJR.0
REMARK                            x       y       z     vdW  Elec       q    Type
REMARK                         _______ _______ _______ _____ _____    ______ ____
ROOT
ATOM      1  N   LIG    1       -2.252   0.539   2.308  0.00  0.00    -1.060 N 
ATOM      2  H   LIG    1       -2.120  -0.216   2.903  0.00  0.00    +0.430 HD
ENDROOT
BRANCH   1   7
ATOM      3  C   LIG    1       -4.498   2.862   4.078  0.00  0.00    -0.110 A 
ATOM      4  C   LIG    1       -3.908   4.086   3.757  0.00  0.00    +0.030 A 
ATOM      5  C   LIG    1       -2.780   4.121   2.962  0.00  0.00    +0.040 A 
ATOM      6  C   LIG    1       -2.228   2.946   2.486  0.00  0.00    +0.030 A 
ATOM      7  C   LIG    1       -2.811   1.723   2.796  0.00  0.00    +0.140 A 
ATOM      8  C   LIG    1       -3.944   1.677   3.594  0.00  0.00    +0.060 A 
BRANCH   3  10
ATOM      9  N   LIG    1       -5.770   3.574   6.046  0.00  0.00    -0.610 N 
ATOM     10  C   LIG    1       -5.707   2.822   4.929  0.00  0.00    +0.560 C 
ATOM     11  O   LIG    1       -6.643   2.111   4.621  0.00  0.00    -0.530 OA
BRANCH   9  13
ATOM     12  C   LIG    1       -5.135   5.932   5.907  0.00  0.00    +0.010 C 
ATOM     13  C   LIG    1       -4.702   4.532   6.346  0.00  0.00    +0.260 C 
ENDBRANCH   9  13
BRANCH   9  14
ATOM     14  C   LIG    1       -6.906   3.434   6.960  0.00  0.00    +0.280 C 
ATOM     15  C   LIG    1       -6.590   2.364   8.006  0.00  0.00    +0.020 C 
ENDBRANCH   9  14
ENDBRANCH   3  10
ENDBRANCH   1   7
BRANCH   1  16
ATOM     16  S   LIG    1       -1.814   0.425   0.715  0.00  0.00    +2.700 S 
ATOM     17  O   LIG    1       -0.989   1.550   0.444  0.00  0.00    -0.940 OA
ATOM     18  O   LIG    1       -1.391  -0.916   0.511  0.00  0.00    -0.940 OA
BRANCH  16  19
ATOM     19  C   LIG    1       -3.276   0.637  -0.244  0.00  0.00    -0.710 A 
ATOM     20  C   LIG    1       -3.704   1.909  -0.578  0.00  0.00    +0.190 A 
ATOM     21  C   LIG    1       -4.848   2.078  -1.334  0.00  0.00    -0.070 A 
ATOM     22  C   LIG    1       -5.570   0.972  -1.755  0.00  0.00    +0.210 A 
ATOM     23  C   LIG    1       -5.142  -0.304  -1.415  0.00  0.00    -0.150 A 
ATOM     24 BR   LIG    1       -6.123  -1.816  -1.986  0.00  0.00    -0.020 Br
ATOM     25  C   LIG    1       -3.997  -0.468  -0.657  0.00  0.00    +0.210 A 
BRANCH  22  26
ATOM     26  O   LIG    1       -6.696   1.136  -2.499  0.00  0.00    -0.290 OA
ATOM     27  C   LIG    1       -7.077   2.477  -2.811  0.00  0.00    +0.250 C 
ENDBRANCH  22  26
ENDBRANCH  16  19
ENDBRANCH   1  16
TORSDOF 7
