REMARK  Name = ZINCnE000001Nbid.0
REMARK                            x       y       z     vdW  Elec       q    Type
REMARK                         _______ _______ _______ _____ _____    ______ ____
ROOT
ATOM      1  C   LIG    1       -0.831  -2.269   0.387  0.00  0.00    +0.020 A 
ATOM      2  C   LIG    1       -1.786  -3.118   0.827  0.00  0.00    -0.020 A 
ATOM      3  S   LIG    1       -1.260  -4.727   0.585  0.00  0.00    +0.170 S 
ATOM      4  C   LIG    1        0.250  -4.148  -0.110  0.00  0.00    +0.080 A 
ATOM      5  N   LIG    1        0.251  -2.849  -0.116  0.00  0.00    -0.410 NA
ENDROOT
BRANCH   1  11
ATOM      6  C   LIG    1        2.075   1.813   1.403  0.00  0.00    +0.040 C 
ATOM      7  C   LIG    1        1.474   1.887  -0.002  0.00  0.00    -0.140 C 
ATOM      8  C   LIG    1        2.092   0.807  -0.929  0.00  0.00    +0.040 C 
ATOM      9  C   LIG    1        1.274  -0.455  -0.582  0.00  0.00    +0.240 C 
ATOM     10  N   LIG    1        0.002  -0.004   0.002  0.00  0.00    -0.590 N 
ATOM     11  C   LIG    1       -0.982  -0.805   0.455  0.00  0.00    +0.600 C 
ATOM     12  O   LIG    1       -1.996  -0.320   0.921  0.00  0.00    -0.540 OA
ATOM     13  C   LIG    1       -0.018   1.470   0.010  0.00  0.00    +0.280 C 
BRANCH   7  14
ATOM     14  C   LIG    1        1.645   3.264  -0.589  0.00  0.00    +0.510 C 
ATOM     15  O   LIG    1        2.310   3.418  -1.599  0.00  0.00    -0.690 OA
ATOM     16  O   LIG    1        1.119   4.225  -0.053  0.00  0.00    -0.690 OA
ENDBRANCH   7  14
ENDBRANCH   1  11
BRANCH   4  17
ATOM     17  C   LIG    1        1.345  -5.006  -0.613  0.00  0.00    -0.020 A 
ATOM     18  C   LIG    1        1.228  -6.395  -0.558  0.00  0.00    +0.040 A 
ATOM     19  C   LIG    1        2.253  -7.189  -1.030  0.00  0.00    +0.010 A 
ATOM     20  C   LIG    1        3.395  -6.612  -1.556  0.00  0.00    +0.040 A 
ATOM     21  C   LIG    1        3.518  -5.236  -1.613  0.00  0.00    +0.030 A 
ATOM     22  C   LIG    1        2.497  -4.429  -1.151  0.00  0.00    -0.010 A 
ATOM     23 CL   LIG    1        2.650  -2.701  -1.231  0.00  0.00    -0.010 Cl
ENDBRANCH   4  17
TORSDOF 3
