REMARK  Name = ZINCpk00000N5Qpl.2
REMARK                            x       y       z     vdW  Elec       q    Type
REMARK                         _______ _______ _______ _____ _____    ______ ____
ROOT
ATOM      1  N   LIG    1        5.567   3.963  -1.360  0.00  0.00    -0.510 NA
ATOM      2  C   LIG    1        4.718   4.867  -2.148  0.00  0.00    +0.200 C 
ENDROOT
BRANCH   1   7
ATOM      3  C   LIG    1        7.540   4.159  -2.845  0.00  0.00    +0.160 C 
ATOM      4  C   LIG    1        7.943   5.576  -3.309  0.00  0.00    +0.190 C 
ATOM      5  O   LIG    1        8.161   6.316  -2.088  0.00  0.00    -0.360 OA
ATOM      6  C   LIG    1        7.104   5.898  -1.197  0.00  0.00    +0.180 C 
ATOM      7  C   LIG    1        6.975   4.376  -1.423  0.00  0.00    +0.160 C 
BRANCH   3   8
ATOM      8  O   LIG    1        6.535   3.617  -3.705  0.00  0.00    -0.260 OA
BRANCH   8  12
ATOM      9  C   LIG    1        6.541   0.687  -7.612  0.00  0.00    +0.370 C 
ATOM     10  N   LIG    1        6.975   1.497  -6.472  0.00  0.00    -0.370 N 
ATOM     11  C   LIG    1        6.167   2.205  -5.639  0.00  0.00    +0.200 A 
ATOM     12  C   LIG    1        6.958   2.812  -4.720  0.00  0.00    -0.030 A 
ATOM     13  C   LIG    1        8.287   2.471  -5.003  0.00  0.00    +0.170 A 
ATOM     14  N   LIG    1        8.297   1.681  -6.046  0.00  0.00    -0.270 NA
ENDBRANCH   8  12
ENDBRANCH   3   8
ENDBRANCH   1   7
BRANCH   1  15
ATOM     15  C   LIG    1        5.103   3.885   0.032  0.00  0.00    +0.230 C 
BRANCH  15  16
ATOM     16  C   LIG    1        3.747   3.229   0.073  0.00  0.00    -0.070 A 
ATOM     17  C   LIG    1        2.605   4.002  -0.021  0.00  0.00    +0.020 A 
ATOM     18  C   LIG    1        1.359   3.404   0.017  0.00  0.00    +0.020 A 
ATOM     19  C   LIG    1        1.252   2.028   0.151  0.00  0.00    +0.050 A 
ATOM     20  O   LIG    1        0.018   1.455   0.192  0.00  0.00    -0.310 OA
ATOM     21  C   LIG    1       -0.044   0.044  -0.048  0.00  0.00    +0.220 C 
ATOM     22  C   LIG    1        1.054  -0.633   0.782  0.00  0.00    +0.220 C 
ATOM     23  O   LIG    1        2.319  -0.101   0.372  0.00  0.00    -0.310 OA
ATOM     24  C   LIG    1        2.401   1.251   0.244  0.00  0.00    +0.050 A 
ATOM     25  C   LIG    1        3.648   1.857   0.206  0.00  0.00    +0.040 A 
ENDBRANCH  15  16
ENDBRANCH   1  15
TORSDOF 5
