REMARK  Name = ZINCrH000004jBCG.0
REMARK                            x       y       z     vdW  Elec       q    Type
REMARK                         _______ _______ _______ _____ _____    ______ ____
ROOT
ATOM      1  N   LIG    1        2.380   0.066  -0.141  0.00  0.00    -0.660 N 
ATOM      2  H   LIG    1        2.336   1.032  -0.069  0.00  0.00    +0.410 HD
ATOM      3  C   LIG    1        3.567  -0.544  -0.329  0.00  0.00    +0.570 C 
ATOM      4  O   LIG    1        3.638  -1.757  -0.307  0.00  0.00    -0.510 OA
ENDROOT
BRANCH   1  11
ATOM      5  C   LIG    1        0.099  -0.189   0.636  0.00  0.00    -0.140 A 
ATOM      6  C   LIG    1       -1.062  -0.960   0.727  0.00  0.00    +0.040 A 
ATOM      7  C   LIG    1       -1.108  -2.206   0.134  0.00  0.00    +0.080 A 
ATOM      8  C   LIG    1       -0.002  -2.700  -0.542  0.00  0.00    +0.040 A 
ATOM      9  C   LIG    1        1.153  -1.949  -0.634  0.00  0.00    +0.060 A 
ATOM     10  F   LIG    1       -2.233  -2.949   0.217  0.00  0.00    -0.130 F 
ATOM     11  C   LIG    1        1.215  -0.692  -0.049  0.00  0.00    +0.190 A 
BRANCH   5  14
ATOM     12  C   LIG    1       -0.536   3.480   1.378  0.00  0.00    +0.300 C 
ATOM     13  N   LIG    1       -0.662   2.128   0.829  0.00  0.00    -0.610 N 
ATOM     14  C   LIG    1        0.153   1.146   1.263  0.00  0.00    +0.560 C 
ATOM     15  O   LIG    1        0.937   1.361   2.167  0.00  0.00    -0.520 OA
ATOM     16  C   LIG    1       -1.674   1.842  -0.191  0.00  0.00    +0.290 C 
ENDBRANCH   5  14
ENDBRANCH   1  11
BRANCH   3  17
ATOM     17  C   LIG    1        4.781   0.262  -0.560  0.00  0.00    -0.170 A 
ATOM     18  C   LIG    1        4.702   1.657  -0.590  0.00  0.00    +0.090 A 
ATOM     19  C   LIG    1        5.838   2.405  -0.800  0.00  0.00    -0.070 A 
ATOM     20  C   LIG    1        7.062   1.775  -0.994  0.00  0.00    +0.160 A 
ATOM     21  C   LIG    1        7.144   0.388  -0.970  0.00  0.00    +0.000 A 
ATOM     22  C   LIG    1        6.014  -0.368  -0.755  0.00  0.00    +0.140 A 
BRANCH  20  23
ATOM     23  O   LIG    1        8.179   2.516  -1.207  0.00  0.00    -0.290 OA
BRANCH  23  24
ATOM     24  C   LIG    1        8.022   3.936  -1.219  0.00  0.00    +0.230 C 
BRANCH  24  25
ATOM     25  C   LIG    1        9.379   4.596  -1.471  0.00  0.00    +0.470 C 
ATOM     26  F   LIG    1       10.270   4.234  -0.455  0.00  0.00    -0.170 F 
ATOM     27  F   LIG    1        9.226   5.987  -1.482  0.00  0.00    -0.170 F 
ATOM     28  F   LIG    1        9.882   4.172  -2.706  0.00  0.00    -0.170 F 
ENDBRANCH  24  25
ENDBRANCH  23  24
ENDBRANCH  20  23
ENDBRANCH   3  17
TORSDOF 6
