REMARK  Name = ZINCrH00000tj14Y.0
REMARK                            x       y       z     vdW  Elec       q    Type
REMARK                         _______ _______ _______ _____ _____    ______ ____
ROOT
ATOM      1  C   LIG    1       -1.967  -1.113   0.898  0.00  0.00    +0.570 C 
ATOM      2  N   LIG    1       -2.438  -0.114   0.126  0.00  0.00    -0.560 N 
ATOM      3  O   LIG    1       -1.078  -0.895   1.699  0.00  0.00    -0.490 OA
ENDROOT
BRANCH   2   4
ATOM      4  C   LIG    1       -3.579  -0.350  -0.762  0.00  0.00    +0.280 C 
ATOM      5  C   LIG    1       -4.739   0.482  -0.313  0.00  0.00    +0.080 C 
ATOM      6  C   LIG    1       -5.015   1.584  -0.952  0.00  0.00    -0.450 C 
ATOM      7  S   LIG    1       -3.831   1.753  -2.267  0.00  0.00    +2.430 S 
ATOM      8  O   LIG    1       -2.867   2.685  -1.795  0.00  0.00    -0.900 OA
ATOM      9  O   LIG    1       -4.595   1.990  -3.441  0.00  0.00    -0.930 OA
ATOM     10  C   LIG    1       -3.191   0.032  -2.213  0.00  0.00    -0.280 C 
ENDBRANCH   2   4
BRANCH   1  16
ATOM     11  C   LIG    1       -2.690  -3.275   1.910  0.00  0.00    +0.180 A 
ATOM     12  C   LIG    1       -3.221  -4.549   1.780  0.00  0.00    -0.070 A 
ATOM     13  C   LIG    1       -3.591  -5.022   0.536  0.00  0.00    +0.080 A 
ATOM     14  C   LIG    1       -3.435  -4.230  -0.589  0.00  0.00    -0.020 A 
ATOM     15  C   LIG    1       -2.909  -2.961  -0.479  0.00  0.00    +0.070 A 
ATOM     16  C   LIG    1       -2.530  -2.470   0.773  0.00  0.00    -0.170 A 
BRANCH  11  18
ATOM     17  C   LIG    1       -2.517  -3.686   4.243  0.00  0.00    +0.250 C 
ATOM     18  O   LIG    1       -2.326  -2.809   3.131  0.00  0.00    -0.290 OA
ENDBRANCH  11  18
ENDBRANCH   1  16
BRANCH   2  19
ATOM     19  C   LIG    1       -1.837   1.148   0.171  0.00  0.00    +0.100 A 
ATOM     20  C   LIG    1       -0.534   1.315  -0.281  0.00  0.00    +0.020 A 
ATOM     21  C   LIG    1        0.055   2.564  -0.240  0.00  0.00    +0.020 A 
ATOM     22  C   LIG    1       -0.647   3.645   0.261  0.00  0.00    -0.050 A 
ATOM     23  C   LIG    1       -1.942   3.481   0.716  0.00  0.00    +0.040 A 
ATOM     24  C   LIG    1       -2.539   2.236   0.673  0.00  0.00    +0.020 A 
BRANCH  22  25
ATOM     25  C   LIG    1        0.001   5.004   0.310  0.00  0.00    +0.020 C 
ATOM     26  C   LIG    1        0.388   5.437  -1.106  0.00  0.00    +0.040 C 
ATOM     27  C   LIG    1        1.255   4.940   1.184  0.00  0.00    +0.030 C 
ENDBRANCH  22  25
ENDBRANCH   2  19
TORSDOF 5
