REMARK  Name = ZINCpk00000e1wvW.0
REMARK                            x       y       z     vdW  Elec       q    Type
REMARK                         _______ _______ _______ _____ _____    ______ ____
ROOT
ATOM      1  C   LIG    1       -2.974   3.077  -1.308  0.00  0.00    +0.280 C 
ATOM      2  C   LIG    1       -2.945   4.561  -0.934  0.00  0.00    +0.030 C 
ATOM      3  C   LIG    1       -4.087   5.285  -1.650  0.00  0.00    +0.180 C 
ATOM      4  N   LIG    1       -5.370   4.687  -1.259  0.00  0.00    -0.530 NA
ATOM      5  C   LIG    1       -5.439   3.274  -1.651  0.00  0.00    +0.190 C 
ATOM      6  C   LIG    1       -4.338   2.490  -0.934  0.00  0.00    +0.030 C 
ENDROOT
BRANCH   1  11
ATOM      7  C   LIG    1       -0.392   1.345   2.576  0.00  0.00    +0.320 C 
ATOM      8  N   LIG    1       -0.752   1.586   1.177  0.00  0.00    -0.640 N 
ATOM      9  C   LIG    1       -0.013   1.086   0.008  0.00  0.00    +0.250 C 
ATOM     10  C   LIG    1       -0.811   1.623  -1.196  0.00  0.00    +0.250 C 
ATOM     11  N   LIG    1       -1.919   2.368  -0.580  0.00  0.00    -0.630 N 
ATOM     12  C   LIG    1       -1.811   2.295   0.753  0.00  0.00    +0.700 C 
ATOM     13  O   LIG    1       -2.599   2.825   1.512  0.00  0.00    -0.570 OA
ENDBRANCH   1  11
BRANCH   4  14
ATOM     14  C   LIG    1       -6.497   5.445  -1.819  0.00  0.00    +0.350 C 
BRANCH  14  15
ATOM     15  C   LIG    1       -6.266   6.919  -1.607  0.00  0.00    +0.200 A 
ATOM     16  N   LIG    1       -5.649   7.736  -2.424  0.00  0.00    -0.470 NA
ATOM     17  C   LIG    1       -5.684   8.946  -1.823  0.00  0.00    +0.210 A 
ATOM     18  N   LIG    1       -6.314   8.795  -0.687  0.00  0.00    -0.370 NA
ATOM     19  O   LIG    1       -6.659   7.640  -0.552  0.00  0.00    +0.100 OA
BRANCH  17  20
ATOM     20  C   LIG    1       -5.113  10.210  -2.352  0.00  0.00    -0.080 A 
ATOM     21  C   LIG    1       -5.220  11.397  -1.624  0.00  0.00    +0.100 A 
ATOM     22  C   LIG    1       -4.670  12.549  -2.161  0.00  0.00    -0.020 A 
ATOM     23  C   LIG    1       -4.040  12.488  -3.390  0.00  0.00    +0.280 A 
ATOM     24  N   LIG    1       -3.955  11.352  -4.055  0.00  0.00    -0.480 NA
ATOM     25  C   LIG    1       -4.458  10.230  -3.582  0.00  0.00    +0.320 A 
ENDBRANCH  17  20
ENDBRANCH  14  15
ENDBRANCH   4  14
TORSDOF 4
