REMARK  Name = ZINCkj000005hx9B.0
REMARK                            x       y       z     vdW  Elec       q    Type
REMARK                         _______ _______ _______ _____ _____    ______ ____
ROOT
ATOM      1  C   LIG    1        0.914   4.811  -1.534  0.00  0.00    +0.520 C 
ATOM      2  N   LIG    1        0.952   3.546  -1.069  0.00  0.00    -0.600 N 
ATOM      3  C   LIG    1        2.188   2.989  -0.498  0.00  0.00    +0.290 C 
ATOM      4  C   LIG    1        2.476   1.647  -1.179  0.00  0.00    +0.190 C 
ATOM      5  N   LIG    1        1.295   0.781  -1.068  0.00  0.00    -0.500 N 
ATOM      6  C   LIG    1        0.143   1.357  -1.774  0.00  0.00    +0.200 C 
ATOM      7  C   LIG    1       -0.241   2.688  -1.118  0.00  0.00    +0.310 C 
ATOM      8  O   LIG    1       -0.082   5.223  -2.090  0.00  0.00    -0.530 OA
ENDROOT
BRANCH   5   9
ATOM      9  C   LIG    1        1.573  -0.509  -1.532  0.00  0.00    +0.040 A 
ATOM     10  C   LIG    1        1.974  -0.704  -2.847  0.00  0.00    +0.010 A 
ATOM     11  C   LIG    1        2.254  -1.978  -3.301  0.00  0.00    +0.010 A 
ATOM     12  C   LIG    1        2.125  -3.061  -2.451  0.00  0.00    +0.060 A 
ATOM     13  C   LIG    1        1.720  -2.873  -1.142  0.00  0.00    -0.010 A 
ATOM     14  C   LIG    1        1.444  -1.600  -0.679  0.00  0.00    +0.130 A 
ATOM     15  F   LIG    1        1.049  -1.416   0.600  0.00  0.00    -0.130 F 
ENDBRANCH   5   9
BRANCH   1  16
ATOM     16  C   LIG    1        2.109   5.712  -1.364  0.00  0.00    -0.020 C 
ATOM     17  C   LIG    1        2.196   6.176   0.091  0.00  0.00    +0.070 C 
BRANCH  16  18
ATOM     18  C   LIG    1        1.964   6.929  -2.280  0.00  0.00    +0.290 C 
BRANCH  18  20
ATOM     19  C   LIG    1        3.043   8.916  -3.083  0.00  0.00    +0.340 C 
ATOM     20  N   LIG    1        3.182   7.747  -2.204  0.00  0.00    -0.510 N 
ATOM     21  H   LIG    1        3.975   7.197  -2.499  0.00  0.00    +0.430 HD
ATOM     22  H   LIG    1        3.322   8.056  -1.253  0.00  0.00    +0.430 HD
ENDBRANCH  18  20
ENDBRANCH  16  18
ENDBRANCH   1  16
TORSDOF 4
