REMARK  Name = ZINCvU000000069F.0
REMARK                            x       y       z     vdW  Elec       q    Type
REMARK                         _______ _______ _______ _____ _____    ______ ____
ROOT
ATOM      1  C   LIG    1       -2.553   3.869   0.047  0.00  0.00    +0.310 C 
ATOM      2  N   LIG    1       -3.508   3.184  -0.830  0.00  0.00    -0.680 N 
ATOM      3  H   LIG    1       -3.626   3.487  -1.744  0.00  0.00    +0.430 HD
ATOM      4  C   LIG    1       -4.221   2.141  -0.373  0.00  0.00    +0.490 C 
ATOM      5  N   LIG    1       -4.155   1.757   0.913  0.00  0.00    -0.490 NA
ATOM      6  C   LIG    1       -3.627   2.522   1.828  0.00  0.00    +0.310 C 
ATOM      7  S   LIG    1       -5.236   1.283  -1.452  0.00  0.00    -0.470 S 
ATOM      8  C   LIG    1       -3.108   3.892   1.474  0.00  0.00    +0.120 C 
ENDROOT
BRANCH   8   9
ATOM      9  C   LIG    1       -4.230   4.894   1.560  0.00  0.00    +0.070 A 
ATOM     10  N   LIG    1       -4.229   5.911   2.336  0.00  0.00    -0.430 NA
ATOM     11  C   LIG    1       -5.303   6.724   2.309  0.00  0.00    +0.070 A 
ATOM     12  C   LIG    1       -5.562   7.896   3.046  0.00  0.00    +0.080 A 
ATOM     13  C   LIG    1       -6.726   8.581   2.866  0.00  0.00    +0.040 A 
ATOM     14  C   LIG    1       -7.676   8.139   1.956  0.00  0.00    +0.050 A 
ATOM     15  C   LIG    1       -7.449   6.997   1.222  0.00  0.00    +0.060 A 
ATOM     16  C   LIG    1       -6.265   6.284   1.393  0.00  0.00    -0.170 A 
ATOM     17  S   LIG    1       -5.659   4.817   0.630  0.00  0.00    +0.130 S 
ENDBRANCH   8   9
BRANCH   1  21
ATOM     18  C   LIG    1        1.175   1.783   0.000  0.00  0.00    -0.030 A 
ATOM     19  C   LIG    1       -0.013   1.076   0.008  0.00  0.00    +0.120 A 
ATOM     20  C   LIG    1       -1.219   1.751   0.017  0.00  0.00    +0.040 A 
ATOM     21  C   LIG    1       -1.238   3.133   0.030  0.00  0.00    -0.070 A 
ATOM     22  C   LIG    1       -0.050   3.840   0.022  0.00  0.00    +0.070 A 
ATOM     23  C   LIG    1        1.156   3.165   0.008  0.00  0.00    +0.110 A 
BRANCH  18  25
ATOM     24  O   LIG    1        2.483  -0.157  -0.023  0.00  0.00    -0.150 OA
ATOM     25  N   LIG    1        2.467   1.061  -0.016  0.00  0.00    +0.020 N 
ATOM     26  O   LIG    1        3.513   1.684  -0.022  0.00  0.00    -0.150 OA
ENDBRANCH  18  25
ENDBRANCH   1  21
BRANCH   6  27
ATOM     27  C   LIG    1       -3.538   2.045   3.215  0.00  0.00    -0.100 A 
ATOM     28  C   LIG    1       -2.969   2.857   4.204  0.00  0.00    +0.060 A 
ATOM     29  C   LIG    1       -2.894   2.404   5.503  0.00  0.00    +0.000 A 
ATOM     30  C   LIG    1       -3.370   1.146   5.830  0.00  0.00    +0.060 A 
ATOM     31  C   LIG    1       -3.930   0.335   4.858  0.00  0.00    +0.010 A 
ATOM     32  C   LIG    1       -4.017   0.775   3.555  0.00  0.00    +0.110 A 
ENDBRANCH   6  27
TORSDOF 4
