REMARK  Name = ZINCpk00000y6z9r.0
REMARK                            x       y       z     vdW  Elec       q    Type
REMARK                         _______ _______ _______ _____ _____    ______ ____
ROOT
ATOM      1  N   LIG    1        2.892  -0.405  -0.198  0.00  0.00    -1.110 NA
ATOM      2  H   LIG    1        2.463  -0.551   0.660  0.00  0.00    +0.420 HD
ENDROOT
BRANCH   1   3
ATOM      3  C   LIG    1        2.108   0.087  -1.334  0.00  0.00    +0.260 C 
ATOM      4  C   LIG    1        2.022   1.615  -1.273  0.00  0.00    -0.010 C 
ATOM      5  C   LIG    1        1.279   2.026   0.001  0.00  0.00    +0.220 C 
ATOM      6  O   LIG    1       -0.017   1.425   0.010  0.00  0.00    -0.380 OA
ATOM      7  C   LIG    1        0.002  -0.004   0.002  0.00  0.00    +0.250 C 
ATOM      8  C   LIG    1        0.693  -0.497  -1.272  0.00  0.00    +0.030 C 
BRANCH   7   9
ATOM      9  C   LIG    1       -1.411  -0.526   0.041  0.00  0.00    -0.020 A 
ATOM     10  C   LIG    1       -1.811  -1.726   0.504  0.00  0.00    +0.160 A 
ATOM     11  N   LIG    1       -3.143  -1.802   0.363  0.00  0.00    -0.490 NA
ATOM     12  C   LIG    1       -3.583  -0.695  -0.170  0.00  0.00    +0.390 A 
ATOM     13  N   LIG    1       -2.535   0.130  -0.382  0.00  0.00    -0.440 N 
ATOM     14  C   LIG    1       -2.591   1.476  -0.960  0.00  0.00    +0.320 C 
ENDBRANCH   7   9
ENDBRANCH   1   3
BRANCH   1  15
ATOM     15  S   LIG    1        4.509  -0.713  -0.379  0.00  0.00    +2.710 S 
ATOM     16  O   LIG    1        4.639  -1.496  -1.557  0.00  0.00    -0.950 OA
ATOM     17  O   LIG    1        4.981  -1.137   0.893  0.00  0.00    -0.950 OA
BRANCH  15  21
ATOM     18  C   LIG    1        6.506   3.191  -1.313  0.00  0.00    +0.380 A 
ATOM     19  C   LIG    1        6.390   2.813   0.018  0.00  0.00    -0.060 A 
ATOM     20  C   LIG    1        5.776   1.611   0.326  0.00  0.00    +0.220 A 
ATOM     21  C   LIG    1        5.298   0.827  -0.714  0.00  0.00    -0.780 A 
ATOM     22  C   LIG    1        5.453   1.262  -2.015  0.00  0.00    +0.430 A 
ATOM     23  N   LIG    1        6.038   2.416  -2.277  0.00  0.00    -0.550 NA
BRANCH  18  24
ATOM     24  O   LIG    1        7.105   4.367  -1.628  0.00  0.00    -0.300 OA
BRANCH  24  26
ATOM     25  C   LIG    1        7.895   6.050  -3.172  0.00  0.00    +0.060 C 
ATOM     26  C   LIG    1        7.194   4.699  -3.015  0.00  0.00    +0.200 C 
ENDBRANCH  24  26
ENDBRANCH  18  24
ENDBRANCH  15  21
ENDBRANCH   1  15
TORSDOF 6
