REMARK  Name = ZINCrD0000073vlJ.0
REMARK                            x       y       z     vdW  Elec       q    Type
REMARK                         _______ _______ _______ _____ _____    ______ ____
ROOT
ATOM      1  C   LIG    1        1.454  -0.640  -0.146  0.00  0.00    +0.200 C 
ATOM      2  C   LIG    1        2.297  -0.314   1.088  0.00  0.00    +0.080 C 
ENDROOT
BRANCH   1   5
ATOM      3  N   LIG    1       -0.016   1.344   0.009  0.00  0.00    -0.650 N 
ATOM      4  H   LIG    1        0.780   1.897   0.015  0.00  0.00    +0.420 HD
ATOM      5  C   LIG    1        0.096   0.001  -0.010  0.00  0.00    +0.520 C 
ATOM      6  O   LIG    1       -0.895  -0.692   0.081  0.00  0.00    -0.490 OA
BRANCH   3  11
ATOM      7  C   LIG    1       -3.629   1.850  -0.489  0.00  0.00    +0.120 A 
ATOM      8  C   LIG    1       -3.791   3.126   0.030  0.00  0.00    -0.060 A 
ATOM      9  C   LIG    1       -2.703   3.810   0.541  0.00  0.00    -0.010 A 
ATOM     10  C   LIG    1       -1.449   3.222   0.536  0.00  0.00    +0.070 A 
ATOM     11  C   LIG    1       -1.284   1.940   0.016  0.00  0.00    +0.160 A 
ATOM     12  C   LIG    1       -2.375   1.258  -0.500  0.00  0.00    +0.030 A 
BRANCH   7  14
ATOM     13  C   LIG    1       -5.962   1.852  -0.952  0.00  0.00    +0.250 C 
ATOM     14  O   LIG    1       -4.701   1.181  -0.991  0.00  0.00    -0.310 OA
ENDBRANCH   7  14
BRANCH  10  15
ATOM     15  O   LIG    1       -0.379   3.896   1.038  0.00  0.00    -0.320 OA
ATOM     16  C   LIG    1       -0.622   5.206   1.555  0.00  0.00    +0.250 C 
ENDBRANCH  10  15
ENDBRANCH   3  11
ENDBRANCH   1   5
BRANCH   1  17
ATOM     17  O   LIG    1        1.300  -2.079  -0.261  0.00  0.00    -0.330 OA
BRANCH  17  18
ATOM     18  C   LIG    1        2.233  -2.739  -0.977  0.00  0.00    +0.540 C 
ATOM     19  O   LIG    1        3.150  -2.128  -1.491  0.00  0.00    -0.490 OA
BRANCH  18  20
ATOM     20  C   LIG    1        2.142  -4.197  -1.135  0.00  0.00    +0.030 A 
ATOM     21  C   LIG    1        3.018  -4.970  -1.830  0.00  0.00    +0.070 A 
ATOM     22  C   LIG    1        2.575  -6.311  -1.738  0.00  0.00    -0.130 A 
ATOM     23  C   LIG    1        3.064  -7.523  -2.243  0.00  0.00    +0.070 A 
ATOM     24  C   LIG    1        2.401  -8.686  -1.979  0.00  0.00    -0.020 A 
ATOM     25  C   LIG    1        1.243  -8.682  -1.212  0.00  0.00    +0.050 A 
ATOM     26  C   LIG    1        0.742  -7.504  -0.704  0.00  0.00    +0.000 A 
ATOM     27  C   LIG    1        1.400  -6.304  -0.960  0.00  0.00    +0.120 A 
ATOM     28  N   LIG    1        1.156  -5.001  -0.596  0.00  0.00    -0.570 N 
ATOM     29  H   LIG    1        0.413  -4.696  -0.052  0.00  0.00    +0.430 HD
ENDBRANCH  18  20
ENDBRANCH  17  18
ENDBRANCH   1  17
TORSDOF 7
