REMARK  Name = ZINCpe00000MydDX.0
REMARK                            x       y       z     vdW  Elec       q    Type
REMARK                         _______ _______ _______ _____ _____    ______ ____
ROOT
ATOM      1  N   LIG    1       -3.996   3.792   1.819  0.00  0.00    -0.560 N 
ATOM      2  C   LIG    1       -3.335   4.954   1.870  0.00  0.00    +0.710 C 
ATOM      3  N   LIG    1       -2.457   5.090   0.860  0.00  0.00    -0.720 N 
ATOM      4  H   LIG    1       -1.873   5.848   0.699  0.00  0.00    +0.440 HD
ATOM      5  C   LIG    1       -2.556   3.866   0.047  0.00  0.00    +0.170 C 
ATOM      6  C   LIG    1       -3.004   4.197  -1.378  0.00  0.00    +0.110 C 
ATOM      7  O   LIG    1       -3.508   5.792   2.733  0.00  0.00    -0.530 OA
ATOM      8  C   LIG    1       -3.613   3.048   0.763  0.00  0.00    +0.540 C 
ATOM      9  O   LIG    1       -4.027   1.952   0.450  0.00  0.00    -0.450 OA
ENDROOT
BRANCH   5  10
ATOM     10  C   LIG    1       -1.240   3.133   0.031  0.00  0.00    -0.080 A 
ATOM     11  C   LIG    1       -1.219   1.751   0.017  0.00  0.00    +0.080 A 
ATOM     12  C   LIG    1       -0.013   1.076   0.008  0.00  0.00    +0.030 A 
ATOM     13  C   LIG    1        1.176   1.784   0.000  0.00  0.00    +0.080 A 
ATOM     14  C   LIG    1        1.156   3.171   0.008  0.00  0.00    +0.070 A 
ATOM     15  F   LIG    1        2.315   3.864   0.000  0.00  0.00    -0.120 F 
ATOM     16  F   LIG    1        2.356   1.125  -0.014  0.00  0.00    -0.120 F 
ATOM     17  C   LIG    1       -0.053   3.843   0.023  0.00  0.00    +0.050 A 
ENDBRANCH   5  10
BRANCH   1  18
ATOM     18  C   LIG    1       -5.011   3.379   2.792  0.00  0.00    +0.360 C 
BRANCH  18  21
ATOM     19  N   LIG    1       -5.092   2.150   4.937  0.00  0.00    -0.720 N 
ATOM     20  H   LIG    1       -6.052   2.287   4.943  0.00  0.00    +0.410 HD
ATOM     21  C   LIG    1       -4.349   2.629   3.920  0.00  0.00    +0.500 C 
ATOM     22  O   LIG    1       -3.149   2.457   3.911  0.00  0.00    -0.530 OA
BRANCH  19  23
ATOM     23  C   LIG    1       -4.449   1.421   6.033  0.00  0.00    +0.250 C 
ATOM     24  C   LIG    1       -3.932   2.416   7.073  0.00  0.00    +0.040 C 
BRANCH  23  25
ATOM     25  C   LIG    1       -5.466   0.482   6.687  0.00  0.00    +0.180 C 
BRANCH  25  27
ATOM     26  C   LIG    1       -7.506   0.469   7.944  0.00  0.00    +0.200 C 
ATOM     27  O   LIG    1       -6.500   1.254   7.301  0.00  0.00    -0.390 OA
ENDBRANCH  25  27
ENDBRANCH  23  25
ENDBRANCH  19  23
ENDBRANCH  18  21
ENDBRANCH   1  18
TORSDOF 6
