REMARK  Name = ZINCrH000004p1Pw.2
REMARK                            x       y       z     vdW  Elec       q    Type
REMARK                         _______ _______ _______ _____ _____    ______ ____
ROOT
ATOM      1  C   LIG    1        3.047  -0.765  -3.091  0.00  0.00    +0.520 C 
ATOM      2  N   LIG    1        3.427  -0.676  -4.381  0.00  0.00    -0.670 N 
ATOM      3  H   LIG    1        3.590   0.193  -4.779  0.00  0.00    +0.410 HD
ATOM      4  O   LIG    1        2.763  -1.845  -2.615  0.00  0.00    -0.500 OA
ENDROOT
BRANCH   2   5
ATOM      5  C   LIG    1        3.587  -1.839  -5.146  0.00  0.00    +0.120 A 
ATOM      6  C   LIG    1        4.581  -1.903  -6.114  0.00  0.00    +0.010 A 
ATOM      7  C   LIG    1        4.742  -3.050  -6.864  0.00  0.00    -0.020 A 
ATOM      8  C   LIG    1        3.903  -4.138  -6.659  0.00  0.00    +0.100 A 
ATOM      9  C   LIG    1        2.905  -4.072  -5.695  0.00  0.00    +0.010 A 
ATOM     10  C   LIG    1        2.748  -2.926  -4.941  0.00  0.00    +0.050 A 
BRANCH   8  11
ATOM     11  N   LIG    1        4.062  -5.299  -7.423  0.00  0.00    -0.490 N 
ATOM     12  C   LIG    1        4.268  -6.472  -6.561  0.00  0.00    +0.160 C 
ATOM     13  C   LIG    1        4.378  -7.726  -7.433  0.00  0.00    +0.220 C 
ATOM     14  O   LIG    1        5.440  -7.553  -8.376  0.00  0.00    -0.380 OA
ATOM     15  C   LIG    1        5.271  -6.419  -9.231  0.00  0.00    +0.220 C 
ATOM     16  C   LIG    1        5.171  -5.153  -8.378  0.00  0.00    +0.160 C 
ENDBRANCH   8  11
ENDBRANCH   2   5
BRANCH   1  18
ATOM     17  C   LIG    1        1.976   1.458  -2.851  0.00  0.00    +0.070 C 
ATOM     18  C   LIG    1        2.976   0.475  -2.239  0.00  0.00    +0.140 C 
BRANCH  18  19
ATOM     19  N   LIG    1        2.540   0.115  -0.883  0.00  0.00    -0.500 NA
ATOM     20  C   LIG    1        3.471  -0.849  -0.267  0.00  0.00    +0.200 C 
ATOM     21  C   LIG    1        3.967  -0.224   1.054  0.00  0.00    +0.000 C 
ATOM     22  C   LIG    1        2.858   0.808   1.393  0.00  0.00    +0.040 C 
ATOM     23  C   LIG    1        2.458   1.310  -0.017  0.00  0.00    +0.200 C 
BRANCH  23  24
ATOM     24  C   LIG    1        1.052   1.851  -0.001  0.00  0.00    -0.100 A 
ATOM     25  C   LIG    1       -0.022   1.060   0.007  0.00  0.00    +0.000 A 
ATOM     26  S   LIG    1       -1.480   2.043   0.018  0.00  0.00    +0.090 S 
ATOM     27  C   LIG    1       -0.521   3.518   0.019  0.00  0.00    -0.050 A 
ATOM     28  C   LIG    1        0.776   3.208   0.005  0.00  0.00    +0.010 A 
ENDBRANCH  23  24
ENDBRANCH  18  19
ENDBRANCH   1  18
TORSDOF 5
