REMARK  Name = ZINCpe00000gMGn9.0
REMARK                            x       y       z     vdW  Elec       q    Type
REMARK                         _______ _______ _______ _____ _____    ______ ____
ROOT
ATOM      1  C   LIG    1        0.166   7.081  -1.450  0.00  0.00    +0.070 C 
ATOM      2  C   LIG    1       -1.086   6.381  -1.983  0.00  0.00    +0.190 C 
ENDROOT
BRANCH   2   3
ATOM      3  C   LIG    1       -2.179   7.397  -2.191  0.00  0.00    +0.520 C 
ATOM      4  N   LIG    1       -2.033   8.365  -3.118  0.00  0.00    -0.670 N 
ATOM      5  H   LIG    1       -1.194   8.454  -3.597  0.00  0.00    +0.420 HD
ATOM      6  O   LIG    1       -3.192   7.344  -1.525  0.00  0.00    -0.490 OA
BRANCH   4   7
ATOM      7  C   LIG    1       -3.090   9.240  -3.389  0.00  0.00    +0.150 A 
ATOM      8  C   LIG    1       -2.828  10.558  -3.744  0.00  0.00    +0.030 A 
ATOM      9  C   LIG    1       -3.869  11.427  -4.013  0.00  0.00    +0.040 A 
ATOM     10  C   LIG    1       -5.176  10.992  -3.931  0.00  0.00    +0.060 A 
ATOM     11  C   LIG    1       -5.450   9.670  -3.574  0.00  0.00    -0.010 A 
ATOM     12  C   LIG    1       -4.399   8.792  -3.308  0.00  0.00    +0.060 A 
BRANCH  11  13
ATOM     13  C   LIG    1       -6.806   9.215  -3.487  0.00  0.00    +0.250 C 
ATOM     14  N   LIG    1       -7.881   8.855  -3.419  0.00  0.00    -0.410 NA
ENDBRANCH  11  13
ENDBRANCH   4   7
ENDBRANCH   2   3
BRANCH   2  15
ATOM     15  O   LIG    1       -1.528   5.384  -1.024  0.00  0.00    -0.330 OA
BRANCH  15  16
ATOM     16  C   LIG    1       -1.027   4.146  -1.158  0.00  0.00    +0.440 C 
ATOM     17  O   LIG    1       -0.245   3.904  -2.046  0.00  0.00    -0.470 OA
BRANCH  16  18
ATOM     18  C   LIG    1       -1.439   3.059  -0.200  0.00  0.00    +0.290 C 
ATOM     19  C   LIG    1       -1.006   3.430   1.234  0.00  0.00    +0.060 C 
ATOM     20  C   LIG    1       -0.549   2.069   1.825  0.00  0.00    +0.040 C 
ATOM     21  C   LIG    1        0.087   1.391   0.586  0.00  0.00    +0.280 C 
ATOM     22  N   LIG    1       -0.762   1.802  -0.548  0.00  0.00    -1.000 NA
BRANCH  22  23
ATOM     23  S   LIG    1       -0.924   0.982  -1.978  0.00  0.00    +2.620 S 
ATOM     24  O   LIG    1        0.293   0.259  -2.108  0.00  0.00    -0.940 OA
ATOM     25  O   LIG    1       -1.285   1.985  -2.918  0.00  0.00    -0.930 OA
ATOM     26  C   LIG    1       -2.311  -0.153  -1.694  0.00  0.00    -0.290 C 
ENDBRANCH  22  23
ENDBRANCH  16  18
ENDBRANCH  15  16
ENDBRANCH   2  15
TORSDOF 7
