REMARK  Name = ZINCah0000003Yqb.0
REMARK                            x       y       z     vdW  Elec       q    Type
REMARK                         _______ _______ _______ _____ _____    ______ ____
ROOT
ATOM      1  C   LIG    1       -1.328   1.812   0.018  0.00  0.00    -0.220 C 
ATOM      2  C   LIG    1       -2.488   1.174   0.786  0.00  0.00    +0.080 C 
ATOM      3  C   LIG    1       -2.495   1.182  -0.745  0.00  0.00    +0.070 C 
ENDROOT
BRANCH   1   4
ATOM      4  C   LIG    1       -1.230   3.338   0.026  0.00  0.00    +0.200 C 
ATOM      5  C   LIG    1       -0.064   3.806   0.934  0.00  0.00    +0.020 C 
ATOM      6  C   LIG    1       -0.506   5.239   1.318  0.00  0.00    +0.000 C 
ATOM      7  C   LIG    1       -2.028   5.242   1.076  0.00  0.00    +0.190 C 
ATOM      8  O   LIG    1       -2.395   3.919   0.649  0.00  0.00    -0.370 OA
ENDBRANCH   1   4
BRANCH   1  10
ATOM      9  O   LIG    1        1.025   1.694   0.001  0.00  0.00    -0.450 OA
ATOM     10  C   LIG    1       -0.013   1.076   0.008  0.00  0.00    +0.490 C 
ENDBRANCH   1  10
TORSDOF 2
