REMARK  Name = ZINCqH0000002TU6.0
REMARK                            x       y       z     vdW  Elec       q    Type
REMARK                         _______ _______ _______ _____ _____    ______ ____
ROOT
ATOM      1  C   LIG    1        2.877  -2.481   5.251  0.00  0.00    +0.160 A 
ATOM      2  N   LIG    1        3.865  -3.054   5.869  0.00  0.00    -0.270 NA
ATOM      3  O   LIG    1        5.051  -2.316   5.657  0.00  0.00    -0.080 OA
ATOM      4  C   LIG    1        4.783  -1.248   4.880  0.00  0.00    +0.300 A 
ATOM      5  N   LIG    1        5.532  -0.266   4.401  0.00  0.00    -0.460 NA
ATOM      6  C   LIG    1        5.033   0.688   3.645  0.00  0.00    +0.240 A 
ATOM      7  C   LIG    1        3.691   0.716   3.302  0.00  0.00    -0.030 A 
ATOM      8  C   LIG    1        2.845  -0.287   3.777  0.00  0.00    -0.000 A 
ATOM      9  C   LIG    1        3.410  -1.294   4.584  0.00  0.00    -0.200 A 
ENDROOT
BRANCH   8  10
ATOM     10  C   LIG    1        1.404  -0.295   3.441  0.00  0.00    +0.560 C 
ATOM     11  N   LIG    1        0.864   0.739   2.767  0.00  0.00    -0.710 N 
ATOM     12  H   LIG    1        1.419   1.489   2.502  0.00  0.00    +0.400 HD
ATOM     13  O   LIG    1        0.708  -1.234   3.773  0.00  0.00    -0.500 OA
BRANCH  11  14
ATOM     14  C   LIG    1       -0.563   0.731   2.434  0.00  0.00    +0.250 C 
BRANCH  14  15
ATOM     15  C   LIG    1       -0.805   1.612   1.206  0.00  0.00    +0.150 C 
ATOM     16  C   LIG    1       -0.003   1.086  -0.011  0.00  0.00    +0.010 C 
ATOM     17  C   LIG    1       -0.821   1.638  -1.203  0.00  0.00    +0.000 C 
ATOM     18  C   LIG    1       -2.213   1.921  -0.607  0.00  0.00    +0.200 C 
ATOM     19  O   LIG    1       -2.179   1.513   0.771  0.00  0.00    -0.360 OA
ENDBRANCH  14  15
BRANCH  14  20
ATOM     20  C   LIG    1       -1.366   1.274   3.618  0.00  0.00    +0.010 C 
ATOM     21  C   LIG    1       -1.223   0.324   4.809  0.00  0.00    +0.010 C 
ENDBRANCH  14  20
ENDBRANCH  11  14
ENDBRANCH   8  10
BRANCH   6  22
ATOM     22  C   LIG    1        5.944   1.774   3.135  0.00  0.00    +0.010 C 
ATOM     23  C   LIG    1        5.439   2.634   1.975  0.00  0.00    +0.040 C 
ATOM     24  C   LIG    1        6.540   1.598   1.737  0.00  0.00    +0.060 C 
ENDBRANCH   6  22
BRANCH   1  25
ATOM     25  C   LIG    1        1.446  -2.951   5.227  0.00  0.00    +0.180 C 
BRANCH  25  27
ATOM     26  C   LIG    1       -0.160  -4.646   6.117  0.00  0.00    +0.030 C 
ATOM     27  C   LIG    1        1.293  -4.168   6.142  0.00  0.00    +0.010 C 
ENDBRANCH  25  27
ENDBRANCH   1  25
TORSDOF 7
