REMARK  Name = ZINCpk00000KfLGf.0
REMARK                            x       y       z     vdW  Elec       q    Type
REMARK                         _______ _______ _______ _____ _____    ______ ____
ROOT
ATOM      1  N   LIG    1        5.567   1.829  -1.746  0.00  0.00    -0.530 NA
ATOM      2  C   LIG    1        5.565   1.709  -0.281  0.00  0.00    +0.190 C 
ATOM      3  C   LIG    1        7.005   1.565   0.217  0.00  0.00    +0.180 C 
ATOM      4  N   LIG    1        7.789   2.731  -0.213  0.00  0.00    -0.520 NA
ATOM      5  C   LIG    1        7.791   2.850  -1.677  0.00  0.00    +0.180 C 
ATOM      6  C   LIG    1        6.351   2.995  -2.176  0.00  0.00    +0.190 C 
ENDROOT
BRANCH   4   7
ATOM      7  C   LIG    1        9.160   2.666   0.312  0.00  0.00    +0.130 C 
ATOM      8  C   LIG    1        9.117   2.475   1.829  0.00  0.00    +0.060 C 
BRANCH   7   9
ATOM      9  C   LIG    1        9.883   3.947  -0.013  0.00  0.00    +0.520 C 
ATOM     10  N   LIG    1       11.225   3.949  -0.147  0.00  0.00    -0.710 N 
ATOM     11  H   LIG    1       11.724   3.125  -0.033  0.00  0.00    +0.400 HD
ATOM     12  O   LIG    1        9.259   4.977  -0.155  0.00  0.00    -0.510 OA
BRANCH  10  13
ATOM     13  C   LIG    1       11.928   5.194  -0.463  0.00  0.00    +0.220 C 
ATOM     14  C   LIG    1       13.033   5.133  -1.519  0.00  0.00    +0.010 C 
ATOM     15  C   LIG    1       13.395   5.304  -0.042  0.00  0.00    +0.010 C 
ENDBRANCH  10  13
ENDBRANCH   7   9
ENDBRANCH   4   7
BRANCH   1  16
ATOM     16  C   LIG    1        4.196   1.894  -2.270  0.00  0.00    +0.170 C 
BRANCH  16  17
ATOM     17  C   LIG    1        3.678   0.476  -2.521  0.00  0.00    +0.180 C 
ATOM     18  C   LIG    1        2.335   0.545  -3.250  0.00  0.00    +0.070 C 
BRANCH  17  23
ATOM     19  C   LIG    1        7.484  -2.417  -5.767  0.00  0.00    +0.080 C 
ATOM     20  C   LIG    1        6.491  -1.663  -4.921  0.00  0.00    -0.090 A 
ATOM     21  C   LIG    1        5.705  -2.341  -4.009  0.00  0.00    +0.000 A 
ATOM     22  C   LIG    1        4.790  -1.649  -3.236  0.00  0.00    +0.010 A 
ATOM     23  C   LIG    1        4.670  -0.279  -3.368  0.00  0.00    -0.100 A 
ATOM     24  C   LIG    1        5.461   0.400  -4.277  0.00  0.00    +0.040 A 
ATOM     25  C   LIG    1        6.371  -0.292  -5.053  0.00  0.00    +0.000 A 
ENDBRANCH  17  23
BRANCH  17  26
ATOM     26  O   LIG    1        3.509  -0.197  -1.272  0.00  0.00    -0.550 OA
ATOM     27  H   LIG    1        4.334  -0.516  -0.882  0.00  0.00    +0.380 HD
ENDBRANCH  17  26
ENDBRANCH  16  17
ENDBRANCH   1  16
TORSDOF 7
