REMARK  Name = ZINCvU00000008dN.0
REMARK                            x       y       z     vdW  Elec       q    Type
REMARK                         _______ _______ _______ _____ _____    ______ ____
ROOT
ATOM      1  O   LIG    1       -0.745  -0.399   0.101  0.00  0.00    -0.490 OA
ATOM      2  C   LIG    1       -0.346   0.736  -0.048  0.00  0.00    +0.530 C 
ATOM      3  N   LIG    1       -1.212   1.767   0.003  0.00  0.00    -0.500 N 
ENDROOT
BRANCH   3   4
ATOM      4  C   LIG    1       -2.543   1.541   0.333  0.00  0.00    +0.250 A 
ATOM      5  N   LIG    1       -3.452   2.457   0.416  0.00  0.00    -0.500 NA
ATOM      6  C   LIG    1       -4.682   2.077   0.739  0.00  0.00    +0.090 A 
ATOM      7  C   LIG    1       -4.791   0.753   0.947  0.00  0.00    -0.270 A 
ATOM      8  C   LIG    1       -6.062   0.034   1.333  0.00  0.00    +0.120 C 
ATOM      9  C   LIG    1       -7.076   1.068   1.834  0.00  0.00    +0.020 C 
ATOM     10  C   LIG    1       -7.157   2.216   0.824  0.00  0.00    +0.020 C 
ATOM     11  C   LIG    1       -5.862   3.029   0.871  0.00  0.00    +0.120 C 
ATOM     12  S   LIG    1       -3.216   0.012   0.696  0.00  0.00    +0.230 S 
ENDBRANCH   3   4
BRANCH   3  13
ATOM     13  C   LIG    1       -0.751   3.127  -0.289  0.00  0.00    +0.360 C 
BRANCH  13  14
ATOM     14  C   LIG    1       -0.402   3.826   0.999  0.00  0.00    -0.120 A 
ATOM     15  C   LIG    1       -1.388   4.463   1.729  0.00  0.00    +0.050 A 
ATOM     16  C   LIG    1       -1.069   5.101   2.913  0.00  0.00    +0.000 A 
ATOM     17  C   LIG    1        0.238   5.111   3.362  0.00  0.00    +0.010 A 
ATOM     18  C   LIG    1        1.225   4.478   2.630  0.00  0.00    +0.000 A 
ATOM     19  C   LIG    1        0.905   3.836   1.448  0.00  0.00    +0.010 A 
ENDBRANCH  13  14
ENDBRANCH   3  13
BRANCH   2  20
ATOM     20  C   LIG    1        1.118   0.994  -0.298  0.00  0.00    +0.130 C 
BRANCH  20  21
ATOM     21  S   LIG    1        2.011  -0.580  -0.325  0.00  0.00    +0.070 S 
BRANCH  21  22
ATOM     22  C   LIG    1        3.647   0.001  -0.625  0.00  0.00    +0.180 A 
ATOM     23  N   LIG    1        3.895   1.298  -0.764  0.00  0.00    -0.540 NA
ATOM     24  C   LIG    1        5.120   1.747  -0.986  0.00  0.00    +0.510 A 
ATOM     25  N   LIG    1        6.162   0.958  -1.093  0.00  0.00    -0.510 NA
ATOM     26  C   LIG    1        6.024  -0.372  -0.974  0.00  0.00    +0.170 A 
ATOM     27  C   LIG    1        7.114  -1.244  -1.083  0.00  0.00    +0.040 A 
ATOM     28  C   LIG    1        6.918  -2.587  -0.954  0.00  0.00    +0.070 A 
ATOM     29  C   LIG    1        5.649  -3.107  -0.715  0.00  0.00    +0.030 A 
ATOM     30  C   LIG    1        4.566  -2.285  -0.603  0.00  0.00    +0.060 A 
ATOM     31  C   LIG    1        4.733  -0.903  -0.731  0.00  0.00    -0.140 A 
ENDBRANCH  21  22
ENDBRANCH  20  21
ENDBRANCH   2  20
TORSDOF 6
