REMARK  Name = ZINCpk000000nPch.0
REMARK                            x       y       z     vdW  Elec       q    Type
REMARK                         _______ _______ _______ _____ _____    ______ ____
ROOT
ATOM      1  C   LIG    1       -2.334   2.581   5.475  0.00  0.00    +0.610 C 
ATOM      2  N   LIG    1       -1.583   3.508   4.848  0.00  0.00    -0.710 N 
ATOM      3  H   LIG    1       -1.526   4.408   5.205  0.00  0.00    +0.410 HD
ATOM      4  O   LIG    1       -2.405   1.453   5.028  0.00  0.00    -0.530 OA
ENDROOT
BRANCH   2   5
ATOM      5  C   LIG    1       -0.851   3.156   3.629  0.00  0.00    +0.230 C 
ATOM      6  C   LIG    1        0.351   4.089   3.466  0.00  0.00    +0.030 C 
ATOM      7  C   LIG    1        1.076   3.756   2.159  0.00  0.00    +0.180 C 
ATOM      8  N   LIG    1        0.151   3.918   1.030  0.00  0.00    -0.520 NA
ATOM      9  C   LIG    1       -0.989   2.998   1.141  0.00  0.00    +0.180 C 
ATOM     10  C   LIG    1       -1.774   3.309   2.417  0.00  0.00    +0.030 C 
BRANCH   8  11
ATOM     11  C   LIG    1        0.848   3.741  -0.251  0.00  0.00    +0.200 C 
BRANCH  11  12
ATOM     12  C   LIG    1        1.809   4.883  -0.461  0.00  0.00    +0.510 C 
ATOM     13  O   LIG    1        1.811   5.823   0.304  0.00  0.00    -0.520 OA
ATOM     14  N   LIG    1        2.668   4.857  -1.500  0.00  0.00    -0.860 N 
ATOM     15  H   LIG    1        3.287   5.592  -1.635  0.00  0.00    +0.400 HD
ATOM     16  H   LIG    1        2.666   4.105  -2.112  0.00  0.00    +0.400 HD
ENDBRANCH  11  12
ENDBRANCH   8  11
ENDBRANCH   2   5
BRANCH   1  19
ATOM     17  C   LIG    1       -4.354   2.835   8.495  0.00  0.00    +0.020 A 
ATOM     18  C   LIG    1       -3.896   2.078   7.470  0.00  0.00    -0.010 A 
ATOM     19  C   LIG    1       -3.071   2.937   6.705  0.00  0.00    -0.020 A 
ATOM     20  N   LIG    1       -3.081   4.112   7.301  0.00  0.00    -0.260 NA
ATOM     21  N   LIG    1       -3.829   4.070   8.345  0.00  0.00    -0.270 N 
BRANCH  21  22
ATOM     22  C   LIG    1       -4.075   5.199   9.246  0.00  0.00    +0.170 C 
ATOM     23  C   LIG    1       -5.542   5.621   9.147  0.00  0.00    +0.060 C 
ATOM     24  C   LIG    1       -3.179   6.374   8.847  0.00  0.00    +0.070 C 
ATOM     25  C   LIG    1       -3.760   4.782  10.684  0.00  0.00    +0.060 C 
ENDBRANCH  21  22
BRANCH  17  27
ATOM     26  C   LIG    1       -6.333   1.438   9.023  0.00  0.00    +0.040 C 
ATOM     27  C   LIG    1       -5.276   2.383   9.598  0.00  0.00    +0.060 C 
ATOM     28  C   LIG    1       -4.467   1.650  10.670  0.00  0.00    +0.040 C 
ENDBRANCH  17  27
ENDBRANCH   1  19
TORSDOF 6
