REMARK  Name = ZINCqH0000001PDY.0
REMARK                            x       y       z     vdW  Elec       q    Type
REMARK                         _______ _______ _______ _____ _____    ______ ____
ROOT
ATOM      1  C   LIG    1       -5.821   3.801   4.041  0.00  0.00    +0.240 A 
ATOM      2  C   LIG    1       -7.123   3.392   4.392  0.00  0.00    -0.260 A 
ATOM      3  C   LIG    1       -7.826   2.169   4.345  0.00  0.00    +0.330 A 
ATOM      4  N   LIG    1       -9.030   2.366   4.804  0.00  0.00    -0.230 NA
ATOM      5  N   LIG    1       -9.181   3.709   5.172  0.00  0.00    -0.330 N 
ATOM      6  C   LIG    1       -8.005   4.356   4.921  0.00  0.00    +0.360 A 
ATOM      7  N   LIG    1       -7.575   5.608   5.067  0.00  0.00    -0.530 NA
ATOM      8  C   LIG    1       -6.350   5.942   4.726  0.00  0.00    +0.580 A 
ATOM      9  N   LIG    1       -5.486   5.074   4.231  0.00  0.00    -0.550 NA
ENDROOT
BRANCH   5  10
ATOM     10  C   LIG    1      -10.340   4.289   5.706  0.00  0.00    +0.140 A 
ATOM     11  C   LIG    1      -10.238   5.293   6.660  0.00  0.00    +0.070 A 
ATOM     12  C   LIG    1      -11.381   5.868   7.181  0.00  0.00    +0.020 A 
ATOM     13  C   LIG    1      -12.628   5.435   6.761  0.00  0.00    +0.100 A 
ATOM     14  C   LIG    1      -12.731   4.430   5.814  0.00  0.00    +0.010 A 
ATOM     15  F   LIG    1      -13.745   5.994   7.276  0.00  0.00    -0.130 F 
ATOM     16  C   LIG    1      -11.591   3.857   5.287  0.00  0.00    +0.070 A 
ENDBRANCH   5  10
BRANCH   1  17
ATOM     17  S   LIG    1       -4.664   2.652   3.374  0.00  0.00    +0.030 S 
BRANCH  17  18
ATOM     18  C   LIG    1       -3.238   3.743   3.140  0.00  0.00    +0.270 C 
BRANCH  18  22
ATOM     19  C   LIG    1       -0.724   2.012   1.250  0.00  0.00    +0.180 A 
ATOM     20  N   LIG    1       -0.373   1.773   2.478  0.00  0.00    -0.370 NA
ATOM     21  O   LIG    1       -1.146   2.305   3.247  0.00  0.00    +0.090 OA
ATOM     22  C   LIG    1       -2.092   2.954   2.562  0.00  0.00    +0.180 A 
ATOM     23  N   LIG    1       -1.829   2.777   1.289  0.00  0.00    -0.460 NA
BRANCH  19  25
ATOM     24  C   LIG    1        0.002  -0.004   0.002  0.00  0.00    +0.040 C 
ATOM     25  C   LIG    1       -0.019   1.526   0.010  0.00  0.00    +0.090 C 
ATOM     26  C   LIG    1        1.417   2.055  -0.000  0.00  0.00    +0.040 C 
ENDBRANCH  19  25
ENDBRANCH  18  22
ENDBRANCH  17  18
ENDBRANCH   1  17
TORSDOF 5
