REMARK  Name = ZINCrD00000eDqe3.1
REMARK                            x       y       z     vdW  Elec       q    Type
REMARK                         _______ _______ _______ _____ _____    ______ ____
ROOT
ATOM      1  C   LIG    1        0.911   4.594   2.127  0.00  0.00    +0.610 C 
ATOM      2  N   LIG    1        1.734   4.167   1.149  0.00  0.00    -0.590 N 
ATOM      3  C   LIG    1        1.177   3.678  -0.116  0.00  0.00    +0.360 C 
ATOM      4  C   LIG    1        1.149   2.165  -0.095  0.00  0.00    -0.130 A 
ATOM      5  C   LIG    1       -0.049   1.485  -0.128  0.00  0.00    +0.050 A 
ATOM      6  C   LIG    1       -0.054   0.102  -0.191  0.00  0.00    -0.010 A 
ATOM      7  C   LIG    1        1.140  -0.594  -0.217  0.00  0.00    +0.030 A 
ATOM      8  C   LIG    1        2.343   0.085  -0.162  0.00  0.00    +0.000 A 
ATOM      9  C   LIG    1        2.351   1.469  -0.090  0.00  0.00    +0.110 A 
ATOM     10  O   LIG    1        3.523   2.147   0.016  0.00  0.00    -0.300 OA
ATOM     11  C   LIG    1        3.754   2.783   1.277  0.00  0.00    +0.080 C 
ATOM     12  C   LIG    1        5.211   2.677   1.749  0.00  0.00    +0.060 C 
ATOM     13  C   LIG    1        4.811   1.353   2.423  0.00  0.00    +0.010 C 
ATOM     14  C   LIG    1        3.375   1.903   2.476  0.00  0.00    +0.010 C 
ATOM     15  C   LIG    1        3.188   4.194   1.350  0.00  0.00    +0.290 C 
ATOM     16  O   LIG    1        1.369   4.943   3.198  0.00  0.00    -0.520 OA
ENDROOT
BRANCH   1  23
ATOM     17  C   LIG    1       -4.861   6.147   1.684  0.00  0.00    +0.070 C 
ATOM     18  C   LIG    1       -4.018   5.434   2.743  0.00  0.00    +0.240 C 
ATOM     19  O   LIG    1       -3.725   6.336   3.819  0.00  0.00    -0.360 OA
ATOM     20  C   LIG    1       -2.767   5.846   4.761  0.00  0.00    +0.150 C 
ATOM     21  C   LIG    1       -1.374   5.814   4.112  0.00  0.00    +0.120 C 
ATOM     22  C   LIG    1       -1.516   5.162   2.765  0.00  0.00    -0.140 A 
ATOM     23  C   LIG    1       -0.547   4.637   1.898  0.00  0.00    +0.010 A 
ATOM     24  N   LIG    1       -1.195   4.183   0.838  0.00  0.00    -0.260 NA
ATOM     25  N   LIG    1       -2.462   4.385   0.970  0.00  0.00    -0.360 N 
ATOM     26  H   LIG    1       -3.136   4.134   0.320  0.00  0.00    +0.450 HD
ATOM     27  C   LIG    1       -2.739   6.766   5.983  0.00  0.00    +0.080 C 
ATOM     28  C   LIG    1       -2.710   4.990   2.140  0.00  0.00    -0.020 A 
ENDBRANCH   1  23
TORSDOF 1
