REMARK  Name = ZINCrD00000eDqe3.0
REMARK                            x       y       z     vdW  Elec       q    Type
REMARK                         _______ _______ _______ _____ _____    ______ ____
ROOT
ATOM      1  C   LIG    1        0.371   4.111  -2.284  0.00  0.00    +0.600 C 
ATOM      2  N   LIG    1       -0.677   3.600  -1.608  0.00  0.00    -0.600 N 
ATOM      3  C   LIG    1       -1.549   4.484  -0.830  0.00  0.00    +0.330 C 
ATOM      4  C   LIG    1       -1.150   4.424   0.628  0.00  0.00    -0.150 A 
ATOM      5  C   LIG    1       -0.617   5.527   1.258  0.00  0.00    +0.010 A 
ATOM      6  C   LIG    1       -0.290   5.461   2.602  0.00  0.00    +0.020 A 
ATOM      7  C   LIG    1       -0.503   4.292   3.309  0.00  0.00    +0.050 A 
ATOM      8  C   LIG    1       -1.027   3.181   2.677  0.00  0.00    +0.020 A 
ATOM      9  C   LIG    1       -1.338   3.237   1.327  0.00  0.00    +0.120 A 
ATOM     10  O   LIG    1       -1.767   2.128   0.673  0.00  0.00    -0.300 OA
ATOM     11  C   LIG    1       -0.836   1.561  -0.255  0.00  0.00    +0.080 C 
ATOM     12  C   LIG    1        0.600   1.509   0.284  0.00  0.00    +0.010 C 
ATOM     13  C   LIG    1        0.246   0.128   0.863  0.00  0.00    +0.020 C 
ATOM     14  C   LIG    1       -0.824   0.027  -0.238  0.00  0.00    +0.070 C 
ATOM     15  C   LIG    1       -0.943   2.157  -1.651  0.00  0.00    +0.300 C 
ATOM     16  O   LIG    1        1.176   3.368  -2.812  0.00  0.00    -0.510 OA
ENDROOT
BRANCH   1  23
ATOM     17  C   LIG    1        0.634   9.849  -4.039  0.00  0.00    +0.070 C 
ATOM     18  C   LIG    1        1.647   8.711  -3.901  0.00  0.00    +0.260 C 
ATOM     19  O   LIG    1        1.937   8.146  -5.186  0.00  0.00    -0.370 OA
ATOM     20  C   LIG    1        2.717   6.949  -5.158  0.00  0.00    +0.150 C 
ATOM     21  C   LIG    1        1.867   5.783  -4.629  0.00  0.00    +0.110 C 
ATOM     22  C   LIG    1        1.174   6.260  -3.381  0.00  0.00    -0.120 A 
ATOM     23  C   LIG    1        0.542   5.570  -2.383  0.00  0.00    -0.030 A 
ATOM     24  N   LIG    1        0.104   6.515  -1.492  0.00  0.00    -0.410 N 
ATOM     25  H   LIG    1       -0.379   6.328  -0.672  0.00  0.00    +0.440 HD
ATOM     26  N   LIG    1        0.434   7.690  -1.908  0.00  0.00    -0.250 NA
ATOM     27  C   LIG    1        3.200   6.625  -6.573  0.00  0.00    +0.070 C 
ATOM     28  C   LIG    1        1.073   7.617  -3.035  0.00  0.00    +0.000 A 
ENDBRANCH   1  23
TORSDOF 1
