REMARK  Name = ZINCpe00000gMbr8.0
REMARK                            x       y       z     vdW  Elec       q    Type
REMARK                         _______ _______ _______ _____ _____    ______ ____
ROOT
ATOM      1  C   LIG    1       -9.562  -3.828   1.974  0.00  0.00    +0.200 C 
ATOM      2  N   LIG    1       -8.395  -2.945   1.843  0.00  0.00    -0.520 NA
ATOM      3  C   LIG    1       -8.380  -2.284   0.531  0.00  0.00    +0.180 C 
ATOM      4  C   LIG    1       -7.069  -1.517   0.363  0.00  0.00    +0.300 C 
ATOM      5  N   LIG    1       -6.896  -0.620   1.515  0.00  0.00    -1.000 NA
ATOM      6  C   LIG    1       -7.034  -1.185   2.866  0.00  0.00    +0.330 C 
ATOM      7  C   LIG    1       -8.352  -1.964   2.935  0.00  0.00    +0.230 C 
ENDROOT
BRANCH   7   8
ATOM      8  C   LIG    1       -8.445  -2.679   4.258  0.00  0.00    +0.210 A 
ATOM      9  N   LIG    1       -7.562  -3.513   4.736  0.00  0.00    -0.460 NA
ATOM     10  C   LIG    1       -7.972  -3.953   5.934  0.00  0.00    +0.140 A 
ATOM     11  C   LIG    1       -9.159  -3.377   6.206  0.00  0.00    +0.130 A 
ATOM     12  N   LIG    1       -9.459  -2.569   5.143  0.00  0.00    -0.570 N 
ATOM     13  H   LIG    1      -10.252  -2.019   5.044  0.00  0.00    +0.420 HD
ENDBRANCH   7   8
BRANCH   5  14
ATOM     14  S   LIG    1       -6.560   0.987   1.298  0.00  0.00    +2.700 S 
ATOM     15  O   LIG    1       -7.026   1.322  -0.002  0.00  0.00    -0.950 OA
ATOM     16  O   LIG    1       -6.997   1.652   2.475  0.00  0.00    -0.950 OA
BRANCH  14  17
ATOM     17  C   LIG    1       -4.806   1.153   1.255  0.00  0.00    -0.680 A 
ATOM     18  C   LIG    1       -4.105   1.375   2.425  0.00  0.00    +0.140 A 
ATOM     19  C   LIG    1       -2.730   1.506   2.396  0.00  0.00    +0.020 A 
ATOM     20  C   LIG    1       -2.049   1.415   1.191  0.00  0.00    +0.110 A 
ATOM     21  O   LIG    1       -0.694   1.553   1.177  0.00  0.00    -0.300 OA
ATOM     22  C   LIG    1       -0.013   1.086   0.008  0.00  0.00    +0.230 C 
ATOM     23  C   LIG    1       -0.767   1.600  -1.226  0.00  0.00    +0.230 C 
ATOM     24  O   LIG    1       -2.104   1.091  -1.178  0.00  0.00    -0.300 OA
ATOM     25  C   LIG    1       -2.753   1.189   0.014  0.00  0.00    +0.030 A 
ATOM     26  C   LIG    1       -4.133   1.059   0.051  0.00  0.00    +0.140 A 
ENDBRANCH  14  17
ENDBRANCH   5  14
TORSDOF 3
