REMARK  Name = ZINCtj00001UqOma.1
REMARK                            x       y       z     vdW  Elec       q    Type
REMARK                         _______ _______ _______ _____ _____    ______ ____
ROOT
ATOM      1  C   LIG    1       -2.486   6.952   3.779  0.00  0.00    +0.030 C 
ENDROOT
BRANCH   1   2
ATOM      2  C   LIG    1       -2.995   7.489   5.119  0.00  0.00    +0.240 C 
ATOM      3  C   LIG    1       -3.118   9.012   5.044  0.00  0.00    +0.030 C 
BRANCH   2   4
ATOM      4  N   LIG    1       -4.307   6.907   5.412  0.00  0.00    -0.710 N 
ATOM      5  H   LIG    1       -4.871   6.594   4.688  0.00  0.00    +0.410 HD
ATOM      6  C   LIG    1       -4.729   6.806   6.688  0.00  0.00    +0.570 C 
ATOM      7  O   LIG    1       -4.022   7.198   7.595  0.00  0.00    -0.520 OA
BRANCH   6   8
ATOM      8  C   LIG    1       -6.057   6.217   6.984  0.00  0.00    +0.180 A 
ATOM      9  N   LIG    1       -6.804   5.800   5.984  0.00  0.00    -0.450 NA
ATOM     10  C   LIG    1       -8.009   5.261   6.197  0.00  0.00    +0.260 A 
ATOM     11  N   LIG    1       -8.954   4.769   5.413  0.00  0.00    -0.290 NA
ATOM     12  N   LIG    1      -10.023   4.334   6.204  0.00  0.00    -0.400 N 
ATOM     13  H   LIG    1      -10.838   3.933   5.864  0.00  0.00    +0.450 HD
ATOM     14  C   LIG    1       -9.755   4.552   7.497  0.00  0.00    +0.310 A 
ATOM     15  C   LIG    1       -8.504   5.134   7.579  0.00  0.00    -0.250 A 
ATOM     16  C   LIG    1       -7.685   5.588   8.635  0.00  0.00    +0.170 A 
ATOM     17  C   LIG    1       -6.470   6.119   8.323  0.00  0.00    -0.030 A 
ENDBRANCH   6   8
ENDBRANCH   2   4
ENDBRANCH   1   2
BRANCH   1  18
ATOM     18  C   LIG    1       -2.245   5.446   3.892  0.00  0.00    +0.270 C 
BRANCH  18  20
ATOM     19  C   LIG    1       -1.476   3.621   2.472  0.00  0.00    +0.520 C 
ATOM     20  N   LIG    1       -1.758   4.931   2.609  0.00  0.00    -0.720 N 
ATOM     21  H   LIG    1       -1.639   5.534   1.859  0.00  0.00    +0.400 HD
ATOM     22  O   LIG    1       -1.625   2.867   3.410  0.00  0.00    -0.510 OA
BRANCH  19  29
ATOM     23  C   LIG    1        0.255   0.002  -2.949  0.00  0.00    +0.200 C 
ATOM     24  C   LIG    1       -0.626   1.120  -2.456  0.00  0.00    +0.060 C 
ATOM     25  C   LIG    1       -1.469   1.868  -3.198  0.00  0.00    +0.230 C 
ATOM     26  N   LIG    1       -2.066   2.754  -2.385  0.00  0.00    -0.470 N 
ATOM     27  C   LIG    1       -1.626   2.586  -1.172  0.00  0.00    +0.310 C 
ATOM     28  C   LIG    1       -2.021   3.361   0.063  0.00  0.00    +0.200 C 
ATOM     29  C   LIG    1       -0.975   3.092   1.153  0.00  0.00    +0.010 C 
ATOM     30  C   LIG    1       -0.736   1.583   1.265  0.00  0.00    +0.100 C 
ATOM     31  C   LIG    1       -0.013   1.086   0.008  0.00  0.00    +0.340 C 
ATOM     32  H   LIG    1       -2.720   3.416  -2.658  0.00  0.00    +0.460 HD
ATOM     33  N   LIG    1       -0.726   1.574  -1.174  0.00  0.00    -0.400 N 
ENDBRANCH  19  29
ENDBRANCH  18  20
ENDBRANCH   1  18
TORSDOF 6
