REMARK  Name = ZINCqH0000038uoY.0
REMARK                            x       y       z     vdW  Elec       q    Type
REMARK                         _______ _______ _______ _____ _____    ______ ____
ROOT
ATOM      1  C   LIG    1        2.012   1.781   1.306  0.00  0.00    +0.350 C 
ENDROOT
BRANCH   1   2
ATOM      2  N   LIG    1        1.372   1.987  -0.000  0.00  0.00    -0.520 NA
ATOM      3  C   LIG    1        2.150   1.351  -1.073  0.00  0.00    +0.240 C 
ATOM      4  C   LIG    1        2.404  -0.120  -0.722  0.00  0.00    +0.110 C 
ATOM      5  C   LIG    1        1.085  -0.741  -0.322  0.00  0.00    +0.030 A 
ATOM      6  C   LIG    1        0.002  -0.004   0.002  0.00  0.00    -0.220 A 
ATOM      7  C   LIG    1       -1.054  -0.944   0.314  0.00  0.00    -0.120 A 
ATOM      8  C   LIG    1       -2.385  -0.791   0.707  0.00  0.00    +0.070 A 
ATOM      9  C   LIG    1       -3.111  -1.950   0.919  0.00  0.00    -0.010 A 
ATOM     10  C   LIG    1       -2.548  -3.204   0.752  0.00  0.00    +0.030 A 
ATOM     11  C   LIG    1       -1.230  -3.377   0.364  0.00  0.00    +0.030 A 
ATOM     12  C   LIG    1       -0.477  -2.228   0.143  0.00  0.00    +0.050 A 
ATOM     13  O   LIG    1        0.794  -2.050  -0.233  0.00  0.00    -0.180 OA
ATOM     14  C   LIG    1       -0.018   1.502   0.010  0.00  0.00    +0.330 C 
ENDBRANCH   1   2
BRANCH   1  18
ATOM     15  C   LIG    1        5.397   2.980   1.168  0.00  0.00    +0.220 A 
ATOM     16  N   LIG    1        5.525   1.713   0.873  0.00  0.00    -0.360 NA
ATOM     17  O   LIG    1        4.441   1.171   0.883  0.00  0.00    +0.080 OA
ATOM     18  C   LIG    1        3.489   2.057   1.191  0.00  0.00    +0.180 A 
ATOM     19  N   LIG    1        4.080   3.212   1.370  0.00  0.00    -0.420 NA
BRANCH  15  25
ATOM     20  C   LIG    1       10.251   4.149   0.846  0.00  0.00    +0.110 C 
ATOM     21  C   LIG    1        8.816   4.531   1.102  0.00  0.00    -0.040 A 
ATOM     22  C   LIG    1        8.477   5.835   1.429  0.00  0.00    -0.020 A 
ATOM     23  C   LIG    1        7.150   6.155   1.658  0.00  0.00    +0.280 A 
ATOM     24  N   LIG    1        6.210   5.238   1.568  0.00  0.00    -0.450 NA
ATOM     25  C   LIG    1        6.492   3.979   1.258  0.00  0.00    +0.200 A 
ATOM     26  C   LIG    1        7.806   3.587   1.020  0.00  0.00    +0.000 A 
ENDBRANCH  15  25
ENDBRANCH   1  18
TORSDOF 3
