REMARK  Name = ZINCrD000000fASE.0
REMARK                            x       y       z     vdW  Elec       q    Type
REMARK                         _______ _______ _______ _____ _____    ______ ____
ROOT
ATOM      1  C   LIG    1       -0.220   1.229   2.467  0.00  0.00    +0.480 A 
ATOM      2  N   LIG    1        0.867   0.484   2.594  0.00  0.00    -0.590 NA
ATOM      3  C   LIG    1        1.350   0.159   3.792  0.00  0.00    +0.420 A 
ATOM      4  N   LIG    1        0.780   0.541   4.919  0.00  0.00    -0.540 NA
ATOM      5  C   LIG    1       -0.329   1.293   4.897  0.00  0.00    +0.190 A 
ATOM      6  C   LIG    1       -0.960   1.716   6.075  0.00  0.00    +0.030 A 
ATOM      7  C   LIG    1       -2.087   2.480   5.998  0.00  0.00    +0.060 A 
ATOM      8  C   LIG    1       -2.621   2.848   4.767  0.00  0.00    +0.000 A 
ATOM      9  C   LIG    1       -2.032   2.453   3.601  0.00  0.00    +0.060 A 
ATOM     10  C   LIG    1       -0.875   1.669   3.645  0.00  0.00    -0.200 A 
ENDROOT
BRANCH   3  11
ATOM     11  C   LIG    1        2.576  -0.672   3.862  0.00  0.00    -0.100 A 
ATOM     12  C   LIG    1        3.117  -1.037   5.098  0.00  0.00    +0.120 A 
ATOM     13  C   LIG    1        4.260  -1.818   5.109  0.00  0.00    -0.040 A 
ATOM     14  C   LIG    1        4.830  -2.200   3.909  0.00  0.00    +0.270 A 
ATOM     15  N   LIG    1        4.300  -1.837   2.757  0.00  0.00    -0.490 NA
ATOM     16  C   LIG    1        3.211  -1.098   2.696  0.00  0.00    +0.320 A 
ENDBRANCH   3  11
BRANCH   1  17
ATOM     17  N   LIG    1       -0.706   1.564   1.221  0.00  0.00    -0.700 N 
ATOM     18  H   LIG    1       -1.506   2.107   1.142  0.00  0.00    +0.410 HD
BRANCH  17  19
ATOM     19  C   LIG    1       -0.015   1.100   0.016  0.00  0.00    +0.290 C 
BRANCH  19  26
ATOM     20  C   LIG    1       -4.615   2.429  -3.831  0.00  0.00    +0.100 C 
ATOM     21  C   LIG    1       -4.013   1.930  -2.543  0.00  0.00    +0.510 C 
ATOM     22  N   LIG    1       -2.791   1.362  -2.546  0.00  0.00    -0.610 N 
ATOM     23  C   LIG    1       -2.079   1.125  -3.809  0.00  0.00    +0.270 C 
ATOM     24  C   LIG    1       -0.688   1.763  -3.719  0.00  0.00    +0.010 C 
ATOM     25  C   LIG    1        0.034   1.228  -2.480  0.00  0.00    +0.030 C 
ATOM     26  C   LIG    1       -0.754   1.607  -1.224  0.00  0.00    -0.040 C 
ATOM     27  C   LIG    1       -2.146   0.969  -1.286  0.00  0.00    +0.270 C 
ATOM     28  O   LIG    1       -4.629   2.038  -1.504  0.00  0.00    -0.550 OA
ENDBRANCH  19  26
ENDBRANCH  17  19
ENDBRANCH   1  17
TORSDOF 4
