REMARK  Name = ZINCvU0000000Ae1.1
REMARK                            x       y       z     vdW  Elec       q    Type
REMARK                         _______ _______ _______ _____ _____    ______ ____
ROOT
ATOM      1  N   LIG    1        4.440   5.741   1.194  0.00  0.00    -0.720 N 
ATOM      2  H   LIG    1        4.760   6.456   1.766  0.00  0.00    +0.400 HD
ATOM      3  C   LIG    1        4.803   4.466   1.441  0.00  0.00    +0.560 C 
ATOM      4  O   LIG    1        4.402   3.570   0.724  0.00  0.00    -0.510 OA
ENDROOT
BRANCH   3   5
ATOM      5  C   LIG    1        5.686   4.159   2.581  0.00  0.00    -0.130 A 
ATOM      6  C   LIG    1        6.149   5.185   3.407  0.00  0.00    +0.070 A 
ATOM      7  C   LIG    1        6.975   4.891   4.471  0.00  0.00    -0.010 A 
ATOM      8  C   LIG    1        7.344   3.581   4.730  0.00  0.00    +0.060 A 
ATOM      9  C   LIG    1        6.900   2.557   3.920  0.00  0.00    -0.020 A 
ATOM     10  C   LIG    1        6.066   2.833   2.842  0.00  0.00    -0.050 A 
BRANCH  10  11
ATOM     11  S   LIG    1        5.490   1.526   1.810  0.00  0.00    +0.020 S 
BRANCH  11  12
ATOM     12  C   LIG    1        6.247   0.054   2.555  0.00  0.00    +0.110 C 
BRANCH  12  13
ATOM     13  C   LIG    1        5.843  -1.168   1.772  0.00  0.00    -0.170 A 
ATOM     14  C   LIG    1        6.508  -1.669   0.730  0.00  0.00    +0.020 A 
ATOM     15  C   LIG    1        5.946  -2.803   0.169  0.00  0.00    +0.000 A 
ATOM     16  C   LIG    1        4.823  -3.222   0.755  0.00  0.00    -0.040 A 
ATOM     17  S   LIG    1        4.425  -2.158   2.098  0.00  0.00    +0.120 S 
ENDBRANCH  12  13
ENDBRANCH  11  12
ENDBRANCH  10  11
ENDBRANCH   3   5
BRANCH   1  18
ATOM     18  C   LIG    1        3.563   6.046   0.061  0.00  0.00    +0.290 C 
BRANCH  18  19
ATOM     19  C   LIG    1        3.214   7.536   0.074  0.00  0.00    +0.170 C 
BRANCH  19  23
ATOM     20  C   LIG    1        6.750   9.834  -0.615  0.00  0.00    +0.130 A 
ATOM     21  C   LIG    1        6.266   9.673   0.676  0.00  0.00    -0.020 A 
ATOM     22  C   LIG    1        5.122   8.930   0.895  0.00  0.00    +0.040 A 
ATOM     23  C   LIG    1        4.461   8.346  -0.169  0.00  0.00    -0.120 A 
ATOM     24  C   LIG    1        4.944   8.500  -1.455  0.00  0.00    +0.080 A 
ATOM     25  C   LIG    1        6.084   9.247  -1.681  0.00  0.00    -0.080 A 
BRANCH  20  27
ATOM     26  C   LIG    1        8.316  10.687  -2.187  0.00  0.00    +0.250 C 
ATOM     27  O   LIG    1        7.875  10.564  -0.834  0.00  0.00    -0.320 OA
ENDBRANCH  20  27
ENDBRANCH  19  23
BRANCH  19  28
ATOM     28  N   LIG    1        2.233   7.818  -0.983  0.00  0.00    -0.510 NA
ATOM     29  C   LIG    1        0.999   7.014  -0.792  0.00  0.00    +0.170 C 
ATOM     30  C   LIG    1       -0.061   7.789  -1.615  0.00  0.00    +0.030 C 
ATOM     31  C   LIG    1        0.323   9.266  -1.366  0.00  0.00    +0.010 C 
ATOM     32  C   LIG    1        1.803   9.232  -0.943  0.00  0.00    +0.170 C 
ENDBRANCH  19  28
ENDBRANCH  18  19
ENDBRANCH   1  18
TORSDOF 9
