REMARK  Name = ZINCkj000005kl22.0
REMARK                            x       y       z     vdW  Elec       q    Type
REMARK                         _______ _______ _______ _____ _____    ______ ____
ROOT
ATOM      1  S   LIG    1       -0.892  -0.928  -1.199  0.00  0.00    +2.690 S 
ATOM      2  O   LIG    1       -0.273  -2.208  -1.183  0.00  0.00    -0.920 OA
ATOM      3  O   LIG    1       -0.907  -0.087  -2.344  0.00  0.00    -0.960 OA
ENDROOT
BRANCH   1  10
ATOM      4  C   LIG    1       -1.777  -2.483   1.235  0.00  0.00    +0.120 C 
ATOM      5  C   LIG    1       -2.884  -1.913   0.387  0.00  0.00    +0.060 A 
ATOM      6  C   LIG    1       -4.204  -2.118   0.748  0.00  0.00    +0.020 A 
ATOM      7  C   LIG    1       -5.223  -1.599  -0.024  0.00  0.00    +0.140 A 
ATOM      8  C   LIG    1       -4.919  -0.864  -1.172  0.00  0.00    -0.040 A 
ATOM      9  C   LIG    1       -3.585  -0.655  -1.527  0.00  0.00    +0.160 A 
ATOM     10  C   LIG    1       -2.577  -1.185  -0.749  0.00  0.00    -0.700 A 
BRANCH   8  11
ATOM     11  C   LIG    1       -5.971  -0.322  -1.978  0.00  0.00    +0.230 C 
ATOM     12  N   LIG    1       -6.806   0.107  -2.618  0.00  0.00    -0.380 NA
ENDBRANCH   8  11
ENDBRANCH   1  10
BRANCH   1  13
ATOM     13  N   LIG    1       -0.188  -0.052   0.016  0.00  0.00    -0.990 NA
ATOM     14  C   LIG    1        0.682  -0.706   1.003  0.00  0.00    +0.300 C 
ATOM     15  C   LIG    1        2.023   0.033   1.044  0.00  0.00    +0.030 C 
ATOM     16  C   LIG    1        1.775   1.520   1.312  0.00  0.00    +0.030 C 
ATOM     17  C   LIG    1        0.932   2.110   0.179  0.00  0.00    +0.020 C 
ATOM     18  C   LIG    1       -0.422   1.394   0.128  0.00  0.00    +0.230 C 
BRANCH  18  19
ATOM     19  C   LIG    1       -1.214   1.881  -1.086  0.00  0.00    +0.260 C 
BRANCH  19  20
ATOM     20  N   LIG    1       -1.596   3.287  -0.890  0.00  0.00    -0.630 N 
ATOM     21  H   LIG    1       -0.767   3.860  -0.868  0.00  0.00    +0.440 HD
ATOM     22  H   LIG    1       -2.094   3.381  -0.018  0.00  0.00    +0.430 HD
ATOM     23  H   LIG    1       -2.190   3.583  -1.650  0.00  0.00    +0.450 HD
ENDBRANCH  19  20
ENDBRANCH  18  19
ENDBRANCH   1  13
TORSDOF 5
