REMARK  Name = ZINCrH000004rkJD.0
REMARK                            x       y       z     vdW  Elec       q    Type
REMARK                         _______ _______ _______ _____ _____    ______ ____
ROOT
ATOM      1  N   LIG    1       -2.181   1.316   1.211  0.00  0.00    -0.560 N 
ATOM      2  C   LIG    1       -2.866   1.290   0.067  0.00  0.00    +0.520 C 
ATOM      3  C   LIG    1       -2.219   1.198  -1.285  0.00  0.00    +0.090 C 
ATOM      4  C   LIG    1       -0.739   1.576  -1.181  0.00  0.00    +0.060 C 
ATOM      5  C   LIG    1       -0.120   0.795  -0.016  0.00  0.00    +0.000 C 
ATOM      6  O   LIG    1       -4.076   1.344   0.122  0.00  0.00    -0.530 OA
ATOM      7  C   LIG    1       -0.722   1.305   1.294  0.00  0.00    +0.350 C 
ENDROOT
BRANCH   1  12
ATOM      8  C   LIG    1       -5.112   1.479   6.065  0.00  0.00    +0.090 C 
ATOM      9  C   LIG    1       -4.334   1.436   4.776  0.00  0.00    -0.080 A 
ATOM     10  C   LIG    1       -3.562   2.520   4.399  0.00  0.00    +0.020 A 
ATOM     11  C   LIG    1       -2.847   2.483   3.218  0.00  0.00    +0.010 A 
ATOM     12  C   LIG    1       -2.904   1.357   2.408  0.00  0.00    +0.130 A 
ATOM     13  C   LIG    1       -3.685   0.272   2.786  0.00  0.00    +0.030 A 
ATOM     14  C   LIG    1       -4.393   0.313   3.971  0.00  0.00    +0.020 A 
ENDBRANCH   1  12
BRANCH   7  15
ATOM     15  C   LIG    1       -0.289   0.406   2.424  0.00  0.00    -0.210 A 
ATOM     16  C   LIG    1        0.595   0.729   3.368  0.00  0.00    +0.060 A 
ATOM     17  C   LIG    1        0.833  -0.259   4.308  0.00  0.00    +0.000 A 
ATOM     18  C   LIG    1        0.149  -1.389   4.120  0.00  0.00    -0.040 A 
ATOM     19  S   LIG    1       -0.868  -1.233   2.694  0.00  0.00    +0.100 S 
ENDBRANCH   7  15
BRANCH   5  20
ATOM     20  C   LIG    1        1.372   1.006  -0.003  0.00  0.00    +0.520 C 
ATOM     21  N   LIG    1        2.115   0.635  -1.065  0.00  0.00    -0.630 N 
ATOM     22  H   LIG    1        1.688   0.232  -1.838  0.00  0.00    +0.420 HD
ATOM     23  O   LIG    1        1.905   1.509   0.963  0.00  0.00    -0.450 OA
BRANCH  21  24
ATOM     24  C   LIG    1        3.483   0.828  -1.052  0.00  0.00    +0.400 C 
ATOM     25  N   LIG    1        4.144   1.354  -0.087  0.00  0.00    -0.520 NA
ATOM     26  C   LIG    1        5.579   1.499  -0.190  0.00  0.00    +0.250 C 
ATOM     27  C   LIG    1        6.096   0.970  -1.537  0.00  0.00    +0.110 C 
ATOM     28  S   LIG    1        4.580   0.393  -2.368  0.00  0.00    -0.190 S 
ENDBRANCH  21  24
ENDBRANCH   5  20
TORSDOF 4
