REMARK  Name = ZINC9u0000000C63.0
REMARK                            x       y       z     vdW  Elec       q    Type
REMARK                         _______ _______ _______ _____ _____    ______ ____
ROOT
ATOM      1  C   LIG    1        2.458   3.932  -0.001  0.00  0.00    +0.110 C 
ATOM      2  C   LIG    1        1.161   3.165   0.007  0.00  0.00    -0.040 A 
ATOM      3  C   LIG    1        1.176   1.783   0.000  0.00  0.00    +0.000 A 
ATOM      4  C   LIG    1       -0.013   1.076   0.008  0.00  0.00    +0.060 A 
ATOM      5  C   LIG    1       -1.219   1.749   0.017  0.00  0.00    -0.010 A 
ATOM      6  C   LIG    1       -1.237   3.136   0.030  0.00  0.00    +0.140 A 
ATOM      7  C   LIG    1       -0.043   3.844   0.022  0.00  0.00    -0.130 A 
ATOM      8 BR   LIG    1       -0.064   5.735   0.030  0.00  0.00    -0.030 Br
ENDROOT
BRANCH   6   9
ATOM      9  O   LIG    1       -2.422   3.801   0.045  0.00  0.00    -0.490 OA
ATOM     10  H   LIG    1       -2.774   3.998  -0.834  0.00  0.00    +0.400 HD
ENDBRANCH   6   9
TORSDOF 1
