REMARK  Name = ZINCvU0000000CTH.0
REMARK                            x       y       z     vdW  Elec       q    Type
REMARK                         _______ _______ _______ _____ _____    ______ ____
ROOT
ATOM      1  C   LIG    1       -9.302   1.633  -1.091  0.00  0.00    +0.030 C 
ATOM      2  C   LIG    1       -8.614   1.789   0.266  0.00  0.00    +0.290 C 
ENDROOT
BRANCH   2   3
ATOM      3  C   LIG    1       -7.319   1.019   0.265  0.00  0.00    -0.070 A 
ATOM      4  C   LIG    1       -7.335  -0.359   0.146  0.00  0.00    +0.000 A 
ATOM      5  C   LIG    1       -6.149  -1.069   0.143  0.00  0.00    +0.030 A 
ATOM      6  C   LIG    1       -4.943  -0.405   0.254  0.00  0.00    -0.010 A 
ATOM      7  C   LIG    1       -4.924   0.979   0.380  0.00  0.00    +0.150 A 
ATOM      8  C   LIG    1       -6.117   1.689   0.382  0.00  0.00    +0.030 A 
BRANCH   7   9
ATOM      9  N   LIG    1       -3.706   1.655   0.498  0.00  0.00    -0.670 N 
ATOM     10  H   LIG    1       -2.970   1.248   0.982  0.00  0.00    +0.410 HD
ATOM     11  C   LIG    1       -3.553   2.872  -0.061  0.00  0.00    +0.560 C 
ATOM     12  O   LIG    1       -4.440   3.341  -0.747  0.00  0.00    -0.510 OA
BRANCH  11  13
ATOM     13  C   LIG    1       -2.307   3.636   0.161  0.00  0.00    -0.140 A 
ATOM     14  C   LIG    1       -2.146   4.896  -0.417  0.00  0.00    +0.080 A 
ATOM     15  C   LIG    1       -0.983   5.607  -0.201  0.00  0.00    +0.000 A 
ATOM     16  C   LIG    1        0.024   5.070   0.580  0.00  0.00    +0.040 A 
ATOM     17  C   LIG    1       -0.127   3.818   1.151  0.00  0.00    +0.000 A 
ATOM     18  C   LIG    1       -1.284   3.097   0.943  0.00  0.00    +0.040 A 
ENDBRANCH  11  13
ENDBRANCH   7   9
ENDBRANCH   2   3
BRANCH   2  19
ATOM     19  N   LIG    1       -9.490   1.270   1.320  0.00  0.00    -0.610 N 
ATOM     20  C   LIG    1       -9.812   2.048   2.373  0.00  0.00    +0.510 C 
ATOM     21  O   LIG    1       -9.377   3.178   2.447  0.00  0.00    -0.520 OA
ATOM     22  C   LIG    1      -10.015  -0.094   1.230  0.00  0.00    +0.280 C 
BRANCH  20  23
ATOM     23  C   LIG    1      -10.712   1.515   3.457  0.00  0.00    +0.140 C 
BRANCH  23  24
ATOM     24  C   LIG    1      -10.914   2.574   4.509  0.00  0.00    -0.160 A 
ATOM     25  C   LIG    1      -10.218   2.712   5.648  0.00  0.00    +0.240 A 
ATOM     26  N   LIG    1      -10.684   3.788   6.353  0.00  0.00    -0.590 N 
ATOM     27  H   LIG    1      -10.337   4.086   7.209  0.00  0.00    +0.420 HD
ATOM     28  C   LIG    1      -11.718   4.384   5.668  0.00  0.00    +0.100 A 
ATOM     29  C   LIG    1      -12.529   5.485   5.925  0.00  0.00    -0.010 A 
ATOM     30  C   LIG    1      -13.504   5.843   5.020  0.00  0.00    +0.020 A 
ATOM     31  C   LIG    1      -13.688   5.116   3.852  0.00  0.00    -0.030 A 
ATOM     32  C   LIG    1      -12.903   4.031   3.580  0.00  0.00    +0.050 A 
ATOM     33  C   LIG    1      -11.904   3.654   4.479  0.00  0.00    -0.090 A 
ENDBRANCH  23  24
ENDBRANCH  20  23
ENDBRANCH   2  19
TORSDOF 6
