REMARK  Name = ZINCrD00000rWlEX.0
REMARK                            x       y       z     vdW  Elec       q    Type
REMARK                         _______ _______ _______ _____ _____    ______ ____
ROOT
ATOM      1  C   LIG    1        0.342   4.097   2.900  0.00  0.00    +0.080 A 
ATOM      2  C   LIG    1        0.680   4.784   1.769  0.00  0.00    -0.030 A 
ATOM      3  C   LIG    1        0.297   6.111   1.594  0.00  0.00    -0.060 A 
ATOM      4  C   LIG    1       -0.428   6.770   2.562  0.00  0.00    +0.200 A 
ATOM      5  C   LIG    1       -0.789   6.088   3.744  0.00  0.00    -0.060 A 
ATOM      6  C   LIG    1       -1.527   6.724   4.755  0.00  0.00    +0.020 A 
ATOM      7  C   LIG    1       -1.858   6.036   5.882  0.00  0.00    +0.010 A 
ATOM      8  C   LIG    1       -1.474   4.707   6.049  0.00  0.00    +0.000 A 
ATOM      9  C   LIG    1       -0.757   4.059   5.090  0.00  0.00    +0.040 A 
ATOM     10  C   LIG    1       -0.398   4.737   3.914  0.00  0.00    -0.020 A 
ENDROOT
BRANCH   4  11
ATOM     11  N   LIG    1       -0.803   8.102   2.376  0.00  0.00    -0.730 N 
ATOM     12  H   LIG    1       -1.313   8.563   3.061  0.00  0.00    +0.410 HD
BRANCH  11  13
ATOM     13  C   LIG    1       -0.426   8.805   1.147  0.00  0.00    +0.260 C 
ATOM     14  C   LIG    1        0.975   9.400   1.309  0.00  0.00    +0.020 C 
BRANCH  13  15
ATOM     15  C   LIG    1       -1.428   9.927   0.873  0.00  0.00    +0.140 C 
ATOM     16  O   LIG    1       -1.512  10.783   2.016  0.00  0.00    -0.370 OA
ATOM     17  C   LIG    1       -2.466  11.840   1.872  0.00  0.00    +0.200 C 
ATOM     18  C   LIG    1       -3.846  11.237   1.593  0.00  0.00    +0.180 C 
ATOM     19  O   LIG    1       -3.762  10.381   0.449  0.00  0.00    -0.370 OA
ATOM     20  C   LIG    1       -2.808   9.324   0.594  0.00  0.00    +0.090 C 
ATOM     21  C   LIG    1       -3.217   8.423   1.760  0.00  0.00    +0.030 C 
ATOM     22  C   LIG    1       -2.756   8.503  -0.696  0.00  0.00    +0.080 C 
ENDBRANCH  13  15
ENDBRANCH  11  13
ENDBRANCH   4  11
BRANCH   1  23
ATOM     23  O   LIG    1        0.724   2.801   3.049  0.00  0.00    -0.290 OA
BRANCH  23  24
ATOM     24  C   LIG    1        1.472   2.218   1.980  0.00  0.00    +0.290 C 
BRANCH  24  25
ATOM     25  C   LIG    1        1.804   0.788   2.321  0.00  0.00    +0.460 C 
ATOM     26  O   LIG    1        1.437   0.316   3.372  0.00  0.00    -0.480 OA
BRANCH  25  28
ATOM     27  C   LIG    1        2.789  -1.331   1.853  0.00  0.00    +0.290 C 
ATOM     28  O   LIG    1        2.506   0.037   1.458  0.00  0.00    -0.360 OA
ENDBRANCH  25  28
ENDBRANCH  24  25
ENDBRANCH  23  24
ENDBRANCH   1  23
TORSDOF 7
