REMARK  Name = ZINCkj00000haBrr.0
REMARK                            x       y       z     vdW  Elec       q    Type
REMARK                         _______ _______ _______ _____ _____    ______ ____
ROOT
ATOM      1  N   LIG    1       -3.063   1.559  -0.743  0.00  0.00    -0.390 N 
ATOM      2  C   LIG    1       -1.700   2.038  -1.000  0.00  0.00    +0.270 C 
ATOM      3  C   LIG    1       -0.738   1.421   0.018  0.00  0.00    +0.060 C 
ATOM      4  C   LIG    1       -1.166   1.830   1.431  0.00  0.00    +0.240 C 
ATOM      5  C   LIG    1       -2.616   1.390   1.661  0.00  0.00    +0.060 C 
ATOM      6  C   LIG    1       -3.508   2.008   0.582  0.00  0.00    +0.260 C 
ATOM      7  H   LIG    1       -3.076   0.550  -0.776  0.00  0.00    +0.420 HD
ENDROOT
BRANCH   4   8
ATOM      8  N   LIG    1       -0.294   1.181   2.414  0.00  0.00    -1.110 NA
ATOM      9  H   LIG    1        0.030   0.281   2.255  0.00  0.00    +0.420 HD
BRANCH   8  10
ATOM     10  S   LIG    1        0.137   1.984   3.796  0.00  0.00    +2.610 S 
ATOM     11  O   LIG    1        0.938   1.052   4.508  0.00  0.00    -0.940 OA
ATOM     12  O   LIG    1       -1.096   2.449   4.330  0.00  0.00    -0.950 OA
BRANCH  10  13
ATOM     13  C   LIG    1        1.144   3.377   3.215  0.00  0.00    -0.460 C 
ATOM     14  C   LIG    1        2.367   2.845   2.462  0.00  0.00    +0.050 C 
ATOM     15  C   LIG    1        3.251   4.023   2.044  0.00  0.00    +0.220 C 
ATOM     16  O   LIG    1        3.630   4.767   3.204  0.00  0.00    -0.370 OA
ATOM     17  C   LIG    1        2.529   5.329   3.922  0.00  0.00    +0.240 C 
ATOM     18  C   LIG    1        1.616   4.203   4.415  0.00  0.00    +0.030 C 
ENDBRANCH  10  13
ENDBRANCH   8  10
ENDBRANCH   4   8
BRANCH   1  19
ATOM     19  C   LIG    1       -3.969   2.092  -1.769  0.00  0.00    +0.250 C 
BRANCH  19  20
ATOM     20  C   LIG    1       -5.409   1.696  -1.433  0.00  0.00    +0.030 C 
BRANCH  20  22
ATOM     21  C   LIG    1       -7.792   1.856  -2.166  0.00  0.00    +0.030 C 
ATOM     22  C   LIG    1       -6.352   2.252  -2.502  0.00  0.00    +0.020 C 
ENDBRANCH  20  22
ENDBRANCH  19  20
ENDBRANCH   1  19
TORSDOF 6
