REMARK  Name = ZINCrH000004tT5c.0
REMARK                            x       y       z     vdW  Elec       q    Type
REMARK                         _______ _______ _______ _____ _____    ______ ____
ROOT
ATOM      1  O   LIG    1        4.224   7.136  -2.312  0.00  0.00    -0.490 OA
ATOM      2  C   LIG    1        3.530   6.142  -2.294  0.00  0.00    +0.520 C 
ATOM      3  N   LIG    1        2.534   6.032  -1.393  0.00  0.00    -0.550 N 
ATOM      4  C   LIG    1        1.638   4.867  -1.411  0.00  0.00    +0.280 C 
ATOM      5  C   LIG    1        1.463   4.388   0.035  0.00  0.00    +0.260 C 
ATOM      6  C   LIG    1        0.786   5.492   0.847  0.00  0.00    +0.100 C 
ATOM      7  C   LIG    1        1.510   6.800   0.666  0.00  0.00    -0.120 A 
ATOM      8  C   LIG    1        1.341   7.795   1.613  0.00  0.00    +0.040 A 
ATOM      9  C   LIG    1        1.990   9.007   1.473  0.00  0.00    -0.020 A 
ATOM     10  C   LIG    1        2.812   9.234   0.385  0.00  0.00    +0.030 A 
ATOM     11  C   LIG    1        2.986   8.246  -0.563  0.00  0.00    +0.030 A 
ATOM     12  C   LIG    1        2.337   7.025  -0.424  0.00  0.00    +0.150 A 
ENDROOT
BRANCH   5  13
ATOM     13  N   LIG    1        0.631   3.182   0.056  0.00  0.00    -0.370 N 
ATOM     14  C   LIG    1       -0.718   3.150   0.065  0.00  0.00    +0.220 A 
ATOM     15  C   LIG    1       -1.099   1.851   0.078  0.00  0.00    -0.120 A 
ATOM     16  C   LIG    1        0.057   1.064   0.086  0.00  0.00    +0.240 A 
ATOM     17  N   LIG    1        1.094   1.861   0.069  0.00  0.00    -0.290 NA
ENDBRANCH   5  13
BRANCH   2  18
ATOM     18  C   LIG    1        3.782   5.029  -3.278  0.00  0.00    +0.090 C 
BRANCH  18  19
ATOM     19  C   LIG    1        5.034   5.347  -4.098  0.00  0.00    +0.280 C 
ATOM     20  O   LIG    1        4.803   6.512  -4.899  0.00  0.00    -0.350 OA
ATOM     21  C   LIG    1        5.829   6.761  -5.865  0.00  0.00    +0.220 C 
ATOM     22  C   LIG    1        5.749   5.711  -6.978  0.00  0.00    +0.090 C 
ATOM     23  C   LIG    1        5.669   4.337  -6.325  0.00  0.00    -0.090 A 
ATOM     24  C   LIG    1        5.913   3.136  -6.979  0.00  0.00    +0.010 A 
ATOM     25  C   LIG    1        5.792   2.041  -6.233  0.00  0.00    -0.040 A 
ATOM     26  S   LIG    1        5.344   2.489  -4.594  0.00  0.00    +0.120 S 
ATOM     27  C   LIG    1        5.345   4.191  -5.024  0.00  0.00    -0.240 A 
ENDBRANCH  18  19
ENDBRANCH   2  18
TORSDOF 3
