REMARK  Name = ZINCpk00000y6xDG.0
REMARK                            x       y       z     vdW  Elec       q    Type
REMARK                         _______ _______ _______ _____ _____    ______ ____
ROOT
ATOM      1  C   LIG    1        2.085  -0.001   1.173  0.00  0.00    +0.270 C 
ATOM      2  C   LIG    1        2.096   1.530   1.179  0.00  0.00    +0.190 C 
ATOM      3  N   LIG    1        1.346   2.025   0.016  0.00  0.00    -0.510 NA
ATOM      4  C   LIG    1       -0.038   1.531   0.039  0.00  0.00    +0.140 C 
ATOM      5  C   LIG    1       -0.028   0.000   0.044  0.00  0.00    +0.250 C 
ATOM      6  O   LIG    1        0.731  -0.463   1.164  0.00  0.00    -0.360 OA
ENDROOT
BRANCH   3   7
ATOM      7  C   LIG    1        1.380   3.493  -0.047  0.00  0.00    +0.190 C 
ATOM      8  C   LIG    1        0.807   4.103   1.253  0.00  0.00    +0.020 C 
ATOM      9  C   LIG    1        0.066   5.348   0.717  0.00  0.00    +0.280 C 
ATOM     10  N   LIG    1       -0.271   5.032  -0.676  0.00  0.00    -0.560 N 
ATOM     11  C   LIG    1        0.456   3.998  -1.133  0.00  0.00    +0.520 C 
ATOM     12  O   LIG    1        0.383   3.537  -2.252  0.00  0.00    -0.490 OA
BRANCH  10  13
ATOM     13  C   LIG    1       -1.226   5.720  -1.433  0.00  0.00    +0.160 A 
ATOM     14  C   LIG    1       -1.387   5.429  -2.781  0.00  0.00    -0.010 A 
ATOM     15  C   LIG    1       -2.335   6.106  -3.524  0.00  0.00    +0.040 A 
ATOM     16  C   LIG    1       -3.115   7.080  -2.928  0.00  0.00    -0.020 A 
ATOM     17  C   LIG    1       -2.954   7.376  -1.587  0.00  0.00    +0.040 A 
ATOM     18  C   LIG    1       -2.011   6.699  -0.838  0.00  0.00    -0.040 A 
ENDBRANCH  10  13
ENDBRANCH   3   7
BRANCH   1  23
ATOM     19  N   LIG    1        4.022  -1.063   2.455  0.00  0.00    -0.470 N 
ATOM     20  C   LIG    1        4.239  -1.379   3.755  0.00  0.00    +0.380 A 
ATOM     21  N   LIG    1        3.174  -1.030   4.422  0.00  0.00    -0.300 NA
ATOM     22  N   LIG    1        2.311  -0.511   3.621  0.00  0.00    -0.260 NA
ATOM     23  C   LIG    1        2.784  -0.516   2.404  0.00  0.00    +0.170 A 
BRANCH  19  25
ATOM     24  C   LIG    1        5.742   0.009   1.086  0.00  0.00    +0.040 C 
ATOM     25  C   LIG    1        4.941  -1.271   1.332  0.00  0.00    +0.300 C 
ENDBRANCH  19  25
ENDBRANCH   1  23
TORSDOF 4
