REMARK  Name = ZINCpk000000n26i.0
REMARK                            x       y       z     vdW  Elec       q    Type
REMARK                         _______ _______ _______ _____ _____    ______ ____
ROOT
ATOM      1  C   LIG    1       -3.575  -0.884   0.033  0.00  0.00    +0.200 C 
ENDROOT
BRANCH   1   2
ATOM      2  O   LIG    1       -3.609  -1.620  -1.192  0.00  0.00    -0.540 OA
ATOM      3  H   LIG    1       -3.687  -1.066  -1.981  0.00  0.00    +0.380 HD
ENDBRANCH   1   2
BRANCH   1   4
ATOM      4  C   LIG    1       -2.374   0.064   0.026  0.00  0.00    +0.180 C 
BRANCH   4   5
ATOM      5  O   LIG    1       -1.166  -0.699   0.010  0.00  0.00    -0.300 OA
BRANCH   5  10
ATOM      6  C   LIG    1        2.408   0.038  -0.021  0.00  0.00    -0.130 A 
ATOM      7  C   LIG    1        2.378   1.436  -0.013  0.00  0.00    +0.030 A 
ATOM      8  C   LIG    1        1.168   2.099   0.002  0.00  0.00    +0.040 A 
ATOM      9  C   LIG    1       -0.017   1.385   0.010  0.00  0.00    -0.050 A 
ATOM     10  C   LIG    1        0.002  -0.004   0.002  0.00  0.00    +0.120 A 
ATOM     11  C   LIG    1        1.209  -0.681  -0.013  0.00  0.00    +0.050 A 
BRANCH   6  13
ATOM     12  C   LIG    1        4.987   0.105  -0.046  0.00  0.00    +0.080 C 
ATOM     13  C   LIG    1        3.696  -0.673  -0.037  0.00  0.00    +0.390 C 
ATOM     14  O   LIG    1        3.720  -1.885  -0.045  0.00  0.00    -0.450 OA
ENDBRANCH   6  13
ENDBRANCH   5  10
ENDBRANCH   4   5
ENDBRANCH   1   4
BRANCH   1  15
ATOM     15  C   LIG    1       -4.865  -0.073   0.176  0.00  0.00    +0.300 C 
BRANCH  15  16
ATOM     16  N   LIG    1       -6.004  -0.985   0.302  0.00  0.00    -0.570 N 
ATOM     17  C   LIG    1       -6.471  -1.457   1.478  0.00  0.00    +0.530 C 
ATOM     18  C   LIG    1       -7.597  -2.400   1.120  0.00  0.00    +0.220 C 
ATOM     19  C   LIG    1       -8.910  -1.951   1.768  0.00  0.00    +0.040 C 
ATOM     20  C   LIG    1      -10.070  -2.687   1.090  0.00  0.00    +0.030 C 
ATOM     21  C   LIG    1      -10.158  -2.303  -0.388  0.00  0.00    +0.020 C 
ATOM     22  C   LIG    1       -8.872  -2.730  -1.111  0.00  0.00    +0.330 C 
ATOM     23  N   LIG    1       -7.742  -2.207  -0.339  0.00  0.00    -0.620 N 
ATOM     24  O   LIG    1       -6.071  -1.181   2.589  0.00  0.00    -0.460 OA
ATOM     25  C   LIG    1       -6.716  -1.450  -0.735  0.00  0.00    +0.710 C 
ATOM     26  O   LIG    1       -6.457  -1.212  -1.899  0.00  0.00    -0.540 OA
ENDBRANCH  15  16
ENDBRANCH   1  15
TORSDOF 7
