REMARK  Name = ZINCvU0000000AiY.0
REMARK                            x       y       z     vdW  Elec       q    Type
REMARK                         _______ _______ _______ _____ _____    ______ ____
ROOT
ATOM      1  O   LIG    1        0.232  -3.665   0.398  0.00  0.00    -0.500 OA
ATOM      2  C   LIG    1       -0.832  -3.319   0.868  0.00  0.00    +0.540 C 
ATOM      3  N   LIG    1       -1.040  -3.402   2.197  0.00  0.00    -0.610 N 
ATOM      4  C   LIG    1       -2.283  -2.893   2.793  0.00  0.00    +0.270 C 
ATOM      5  C   LIG    1       -1.932  -1.917   3.915  0.00  0.00    +0.010 C 
ATOM      6  C   LIG    1       -0.993  -2.602   4.909  0.00  0.00    +0.020 C 
ATOM      7  C   LIG    1        0.300  -3.006   4.197  0.00  0.00    +0.050 C 
ATOM      8  C   LIG    1       -0.027  -3.999   3.078  0.00  0.00    +0.320 C 
ENDROOT
BRANCH   8   9
ATOM      9  C   LIG    1        1.220  -4.296   2.285  0.00  0.00    +0.240 A 
ATOM     10  N   LIG    1        2.055  -3.406   1.826  0.00  0.00    -0.450 NA
ATOM     11  C   LIG    1        3.051  -4.032   1.167  0.00  0.00    +0.050 A 
ATOM     12  C   LIG    1        2.811  -5.368   1.228  0.00  0.00    +0.150 A 
ATOM     13  N   LIG    1        1.656  -5.528   1.940  0.00  0.00    -0.560 N 
ATOM     14  H   LIG    1        1.226  -6.370   2.157  0.00  0.00    +0.420 HD
BRANCH  11  15
ATOM     15  C   LIG    1        4.202  -3.379   0.497  0.00  0.00    +0.040 A 
ATOM     16  C   LIG    1        5.167  -4.152  -0.146  0.00  0.00    +0.000 A 
ATOM     17  C   LIG    1        6.234  -3.541  -0.774  0.00  0.00    +0.040 A 
ATOM     18  C   LIG    1        6.352  -2.163  -0.757  0.00  0.00    -0.030 A 
ATOM     19  C   LIG    1        5.400  -1.389  -0.115  0.00  0.00    +0.100 A 
ATOM     20  F   LIG    1        5.521  -0.043  -0.101  0.00  0.00    -0.140 F 
ATOM     21  C   LIG    1        4.325  -1.992   0.512  0.00  0.00    +0.010 A 
ENDBRANCH  11  15
ENDBRANCH   8   9
BRANCH   2  22
ATOM     22  C   LIG    1       -1.919  -2.795  -0.034  0.00  0.00    -0.050 C 
ATOM     23  C   LIG    1       -2.581  -3.787  -0.993  0.00  0.00    +0.080 C 
ATOM     24  C   LIG    1       -1.621  -2.725  -1.533  0.00  0.00    +0.050 C 
BRANCH  24  25
ATOM     25  C   LIG    1       -2.217  -1.578  -2.308  0.00  0.00    -0.040 A 
ATOM     26  C   LIG    1       -1.391  -0.689  -2.970  0.00  0.00    +0.050 A 
ATOM     27  C   LIG    1       -1.936   0.364  -3.681  0.00  0.00    +0.030 A 
ATOM     28  C   LIG    1       -3.309   0.528  -3.732  0.00  0.00    +0.070 A 
ATOM     29  C   LIG    1       -4.138  -0.364  -3.068  0.00  0.00    +0.070 A 
ATOM     30  F   LIG    1       -5.479  -0.206  -3.117  0.00  0.00    -0.130 F 
ATOM     31  F   LIG    1       -3.842   1.556  -4.428  0.00  0.00    -0.130 F 
ATOM     32  C   LIG    1       -3.590  -1.420  -2.362  0.00  0.00    +0.020 A 
ENDBRANCH  24  25
ENDBRANCH   2  22
TORSDOF 4
