REMARK  Name = ZINCrH000004nb79.0
REMARK                            x       y       z     vdW  Elec       q    Type
REMARK                         _______ _______ _______ _____ _____    ______ ____
ROOT
ATOM      1  C   LIG    1        2.215   2.733  -2.373  0.00  0.00    +0.130 A 
ATOM      2  C   LIG    1        1.382   1.820  -3.004  0.00  0.00    -0.080 A 
ATOM      3  C   LIG    1        0.242   1.381  -2.365  0.00  0.00    +0.060 A 
ATOM      4  C   LIG    1       -0.080   1.844  -1.096  0.00  0.00    -0.130 A 
ATOM      5  C   LIG    1        0.750   2.743  -0.462  0.00  0.00    -0.020 A 
ATOM      6  C   LIG    1        0.481   3.264   0.926  0.00  0.00    +0.080 C 
ATOM      7  C   LIG    1       -0.989   3.084   1.300  0.00  0.00    +0.230 C 
ATOM      8  N   LIG    1       -1.378   1.706   0.956  0.00  0.00    -0.600 N 
ATOM      9  C   LIG    1       -1.748   0.825   1.907  0.00  0.00    +0.570 C 
ATOM     10  O   LIG    1       -1.887   1.194   3.057  0.00  0.00    -0.520 OA
ATOM     11  C   LIG    1       -1.173   3.315   2.801  0.00  0.00    +0.060 C 
ATOM     12  C   LIG    1       -1.348   1.331  -0.461  0.00  0.00    +0.280 C 
ATOM     13  C   LIG    1       -2.557   1.941  -1.174  0.00  0.00    +0.030 C 
ATOM     14  C   LIG    1        1.895   3.191  -1.106  0.00  0.00    -0.020 A 
ENDROOT
BRANCH   9  15
ATOM     15  C   LIG    1       -1.982  -0.589   1.552  0.00  0.00    -0.150 A 
ATOM     16  C   LIG    1       -1.225  -1.193   0.544  0.00  0.00    +0.080 A 
ATOM     17  C   LIG    1       -1.447  -2.511   0.215  0.00  0.00    -0.020 A 
ATOM     18  C   LIG    1       -2.423  -3.242   0.884  0.00  0.00    +0.190 A 
ATOM     19  N   LIG    1       -2.646  -4.577   0.549  0.00  0.00    -0.660 N 
ATOM     20  H   LIG    1       -1.968  -5.070   0.061  0.00  0.00    +0.410 HD
ATOM     21  C   LIG    1       -3.794  -5.187   0.897  0.00  0.00    +0.520 C 
ATOM     22  C   LIG    1       -4.869  -4.440   1.639  0.00  0.00    +0.080 C 
ATOM     23  C   LIG    1       -4.234  -3.442   2.608  0.00  0.00    +0.110 C 
ATOM     24  O   LIG    1       -3.964  -6.352   0.609  0.00  0.00    -0.520 OA
ATOM     25  C   LIG    1       -3.179  -2.643   1.888  0.00  0.00    -0.130 A 
ATOM     26  C   LIG    1       -2.959  -1.328   2.225  0.00  0.00    +0.120 A 
ENDBRANCH   9  15
BRANCH   1  28
ATOM     27  C   LIG    1        3.603   2.659  -4.301  0.00  0.00    +0.250 C 
ATOM     28  O   LIG    1        3.338   3.176  -2.995  0.00  0.00    -0.320 OA
ENDBRANCH   1  28
TORSDOF 2
