REMARK  Name = ZINCkj00000y7JNJ.1
REMARK                            x       y       z     vdW  Elec       q    Type
REMARK                         _______ _______ _______ _____ _____    ______ ____
ROOT
ATOM      1  C   LIG    1       -3.921   2.641  -4.299  0.00  0.00    +0.140 C 
ATOM      2  C   LIG    1       -3.380   1.613  -3.616  0.00  0.00    +0.040 C 
ENDROOT
BRANCH   1   6
ATOM      3  C   LIG    1       -6.825   1.897  -7.300  0.00  0.00    -0.110 A 
ATOM      4  C   LIG    1       -6.431   3.208  -7.020  0.00  0.00    +0.090 A 
ATOM      5  C   LIG    1       -5.492   3.449  -6.050  0.00  0.00    +0.050 A 
ATOM      6  C   LIG    1       -4.929   2.383  -5.340  0.00  0.00    -0.070 A 
ATOM      7  C   LIG    1       -5.321   1.070  -5.626  0.00  0.00    +0.040 A 
ATOM      8  C   LIG    1       -6.263   0.831  -6.592  0.00  0.00    +0.050 A 
BRANCH   3  12
ATOM      9  N   LIG    1       -8.218   0.373  -8.615  0.00  0.00    -0.850 N 
ATOM     10  H   LIG    1       -8.882   0.203  -9.301  0.00  0.00    +0.410 HD
ATOM     11  H   LIG    1       -7.827  -0.366  -8.124  0.00  0.00    +0.400 HD
ATOM     12  C   LIG    1       -7.837   1.638  -8.345  0.00  0.00    +0.560 C 
ATOM     13  O   LIG    1       -8.326   2.565  -8.961  0.00  0.00    -0.530 OA
ENDBRANCH   3  12
ENDBRANCH   1   6
BRANCH   2  14
ATOM     14  C   LIG    1       -2.376   1.870  -2.579  0.00  0.00    +0.260 A 
ATOM     15  N   LIG    1       -1.757   0.966  -1.835  0.00  0.00    -0.460 NA
ATOM     16  C   LIG    1       -0.938   1.662  -1.033  0.00  0.00    +0.130 A 
ATOM     17  N   LIG    1       -1.082   2.923  -1.318  0.00  0.00    -0.370 NA
ATOM     18  O   LIG    1       -1.900   3.069  -2.201  0.00  0.00    +0.100 OA
BRANCH  16  19
ATOM     19  C   LIG    1       -0.013   1.086   0.008  0.00  0.00    +0.330 C 
ATOM     20  C   LIG    1       -0.213   1.687   1.406  0.00  0.00    +0.120 C 
ATOM     21  C   LIG    1        1.319   1.608   1.471  0.00  0.00    +0.320 C 
ATOM     22  N   LIG    1        1.332   1.692  -0.002  0.00  0.00    -0.530 N 
ATOM     23  H   LIG    1        1.343   2.638  -0.351  0.00  0.00    +0.440 HD
ATOM     24  H   LIG    1        2.033   1.106  -0.430  0.00  0.00    +0.430 HD
ENDBRANCH  16  19
ENDBRANCH   2  14
TORSDOF 4
