REMARK  Name = ZINCrD00000bGMMv.0
REMARK                            x       y       z     vdW  Elec       q    Type
REMARK                         _______ _______ _______ _____ _____    ______ ____
ROOT
ATOM      1  C   LIG    1       -2.982  -3.201   4.590  0.00  0.00    +0.520 C 
ATOM      2  N   LIG    1       -2.705  -2.163   3.776  0.00  0.00    -0.610 N 
ATOM      3  C   LIG    1       -3.729  -1.631   2.867  0.00  0.00    +0.280 C 
ATOM      4  C   LIG    1       -3.161  -1.610   1.444  0.00  0.00    +0.030 C 
ATOM      5  C   LIG    1       -1.846  -0.828   1.436  0.00  0.00    -0.030 C 
ATOM      6  C   LIG    1       -0.833  -1.521   2.350  0.00  0.00    +0.020 C 
ATOM      7  C   LIG    1       -1.374  -1.542   3.783  0.00  0.00    +0.270 C 
ATOM      8  O   LIG    1       -4.085  -3.706   4.576  0.00  0.00    -0.540 OA
ENDROOT
BRANCH   1   9
ATOM      9  C   LIG    1       -1.922  -3.736   5.518  0.00  0.00    +0.050 C 
BRANCH   9  10
ATOM     10  C   LIG    1       -2.491  -4.904   6.324  0.00  0.00    +0.130 C 
BRANCH  10  11
ATOM     11  C   LIG    1       -1.414  -5.447   7.266  0.00  0.00    +0.040 C 
ATOM     12  N   LIG    1       -0.312  -4.563   7.654  0.00  0.00    -0.120 NA
ATOM     13  N   LIG    1       -0.019  -5.431   6.819  0.00  0.00    -0.120 NA
BRANCH  11  14
ATOM     14  C   LIG    1       -1.858  -6.537   8.243  0.00  0.00    +0.120 C 
BRANCH  14  15
ATOM     15  C   LIG    1       -0.668  -6.964   9.105  0.00  0.00    +0.160 C 
BRANCH  15  17
ATOM     16  C   LIG    1       -1.435  -8.850  10.795  0.00  0.00    +0.030 C 
ATOM     17  C   LIG    1       -1.095  -8.014  10.045  0.00  0.00    -0.190 C 
ENDBRANCH  15  17
ENDBRANCH  14  15
ENDBRANCH  11  14
ENDBRANCH  10  11
ENDBRANCH   9  10
ENDBRANCH   1   9
BRANCH   5  18
ATOM     18  C   LIG    1       -1.293  -0.775   0.010  0.00  0.00    +0.260 C 
BRANCH  18  19
ATOM     19  C   LIG    1        0.002  -0.004   0.002  0.00  0.00    -0.070 A 
ATOM     20  C   LIG    1       -0.017   1.378   0.010  0.00  0.00    -0.030 A 
ATOM     21  C   LIG    1        1.170   2.088   0.002  0.00  0.00    +0.060 A 
ATOM     22  C   LIG    1        2.377   1.417  -0.013  0.00  0.00    -0.080 A 
ATOM     23  C   LIG    1        2.399   0.030  -0.021  0.00  0.00    +0.130 A 
ATOM     24  C   LIG    1        1.207  -0.680  -0.014  0.00  0.00    -0.010 A 
BRANCH  23  25
ATOM     25  O   LIG    1        3.586  -0.632  -0.037  0.00  0.00    -0.320 OA
ATOM     26  C   LIG    1        4.772   0.164  -0.044  0.00  0.00    +0.250 C 
ENDBRANCH  23  25
ENDBRANCH  18  19
BRANCH  18  27
ATOM     27  O   LIG    1       -2.238  -0.127  -0.843  0.00  0.00    -0.550 OA
ATOM     28  H   LIG    1       -2.445   0.782  -0.583  0.00  0.00    +0.370 HD
ENDBRANCH  18  27
ENDBRANCH   5  18
TORSDOF 10
