REMARK  Name = ZINCpk000000n24N.1
REMARK                            x       y       z     vdW  Elec       q    Type
REMARK                         _______ _______ _______ _____ _____    ______ ____
ROOT
ATOM      1  C   LIG    1        3.569   6.341   0.001  0.00  0.00    +0.060 C 
ENDROOT
BRANCH   1   2
ATOM      2  C   LIG    1        3.356   7.832   0.011  0.00  0.00    +0.510 C 
ATOM      3  N   LIG    1        4.417   8.664   0.005  0.00  0.00    -0.730 N 
ATOM      4  H   LIG    1        5.317   8.302  -0.005  0.00  0.00    +0.400 HD
ATOM      5  O   LIG    1        2.231   8.285   0.023  0.00  0.00    -0.530 OA
BRANCH   3   6
ATOM      6  C   LIG    1        4.210  10.114   0.014  0.00  0.00    +0.270 C 
BRANCH   6   7
ATOM      7  C   LIG    1        5.567  10.823   0.005  0.00  0.00    +0.170 C 
BRANCH   7   8
ATOM      8  N   LIG    1        5.360  12.277   0.014  0.00  0.00    -0.540 NA
ATOM      9  C   LIG    1        4.726  12.727  -1.233  0.00  0.00    +0.180 C 
ATOM     10  C   LIG    1        4.455  14.231  -1.151  0.00  0.00    +0.180 C 
ATOM     11  N   LIG    1        5.721  14.942  -0.921  0.00  0.00    -0.550 NA
ATOM     12  C   LIG    1        6.355  14.492   0.326  0.00  0.00    +0.180 C 
ATOM     13  C   LIG    1        5.514  16.396  -0.912  0.00  0.00    +0.190 C 
ATOM     14  C   LIG    1        6.625  12.988   0.244  0.00  0.00    +0.190 C 
ENDBRANCH   7   8
ENDBRANCH   6   7
ENDBRANCH   3   6
ENDBRANCH   1   2
BRANCH   1  15
ATOM     15  C   LIG    1        2.212   5.632   0.010  0.00  0.00    +0.050 C 
BRANCH  15  16
ATOM     16  C   LIG    1        2.428   4.118   0.001  0.00  0.00    +0.190 C 
BRANCH  16  17
ATOM     17  O   LIG    1        1.161   3.456   0.009  0.00  0.00    -0.310 OA
BRANCH  17  22
ATOM     18  C   LIG    1        0.002  -0.004   0.002  0.00  0.00    -0.130 A 
ATOM     19  C   LIG    1        1.226  -0.680  -0.013  0.00  0.00    +0.030 A 
ATOM     20  C   LIG    1        2.406   0.033  -0.021  0.00  0.00    +0.040 A 
ATOM     21  C   LIG    1        2.385   1.415  -0.014  0.00  0.00    -0.050 A 
ATOM     22  C   LIG    1        1.175   2.097   0.002  0.00  0.00    +0.120 A 
ATOM     23  C   LIG    1       -0.017   1.394   0.010  0.00  0.00    +0.040 A 
BRANCH  18  25
ATOM     24  C   LIG    1       -1.236  -2.267   0.002  0.00  0.00    +0.090 C 
ATOM     25  C   LIG    1       -1.260  -0.760   0.011  0.00  0.00    +0.390 C 
ATOM     26  O   LIG    1       -2.320  -0.171   0.024  0.00  0.00    -0.450 OA
ENDBRANCH  18  25
ENDBRANCH  17  22
ENDBRANCH  16  17
ENDBRANCH  15  16
ENDBRANCH   1  15
TORSDOF 9
