REMARK  Name = ZINCvU0000000FyP.0
REMARK                            x       y       z     vdW  Elec       q    Type
REMARK                         _______ _______ _______ _____ _____    ______ ____
ROOT
ATOM      1  C   LIG    1        3.989  -9.318  -2.267  0.00  0.00    +0.130 C 
ATOM      2  C   LIG    1        2.755  -8.696  -1.666  0.00  0.00    +0.020 A 
ATOM      3  C   LIG    1        2.651  -7.428  -1.237  0.00  0.00    +0.010 A 
ATOM      4  C   LIG    1        1.280  -7.269  -0.735  0.00  0.00    -0.260 A 
ATOM      5  C   LIG    1        0.668  -8.497  -0.910  0.00  0.00    +0.130 A 
ATOM      6  C   LIG    1       -0.752  -8.838  -0.540  0.00  0.00    +0.150 C 
ATOM      7  N   LIG    1        1.561  -9.334  -1.472  0.00  0.00    -0.390 N 
ENDROOT
BRANCH   7   8
ATOM      8  C   LIG    1        1.305 -10.673  -1.804  0.00  0.00    +0.080 A 
ATOM      9  C   LIG    1        0.371 -10.979  -2.784  0.00  0.00    +0.070 A 
ATOM     10  C   LIG    1        0.123 -12.296  -3.115  0.00  0.00    -0.040 A 
ATOM     11  C   LIG    1        0.800 -13.315  -2.459  0.00  0.00    +0.120 A 
ATOM     12  C   LIG    1        1.729 -13.010  -1.475  0.00  0.00    +0.030 A 
ATOM     13  C   LIG    1        1.982 -11.692  -1.148  0.00  0.00    +0.070 A 
BRANCH  11  14
ATOM     14  O   LIG    1        0.551 -14.612  -2.780  0.00  0.00    -0.320 OA
BRANCH  14  15
ATOM     15  C   LIG    1       -0.418 -14.853  -3.802  0.00  0.00    +0.600 C 
ATOM     16  F   LIG    1       -0.003 -14.244  -4.991  0.00  0.00    -0.200 F 
ATOM     17  F   LIG    1       -1.651 -14.320  -3.411  0.00  0.00    -0.200 F 
ENDBRANCH  14  15
ENDBRANCH  11  14
ENDBRANCH   7   8
BRANCH   4  18
ATOM     18  C   LIG    1        0.684  -6.061  -0.162  0.00  0.00    +0.450 C 
ATOM     19  O   LIG    1       -0.469  -6.073   0.215  0.00  0.00    -0.450 OA
BRANCH  18  20
ATOM     20  C   LIG    1        1.504  -4.802  -0.039  0.00  0.00    +0.020 C 
ATOM     21  C   LIG    1        2.311  -4.843   1.259  0.00  0.00    +0.090 C 
BRANCH  20  22
ATOM     22  S   LIG    1        0.400  -3.362  -0.020  0.00  0.00    +0.040 S 
BRANCH  22  23
ATOM     23  C   LIG    1        1.522  -2.003  -0.024  0.00  0.00    +0.120 A 
ATOM     24  N   LIG    1        2.834  -2.077  -0.037  0.00  0.00    -0.250 NA
ATOM     25  N   LIG    1        3.347  -0.897  -0.036  0.00  0.00    -0.280 NA
ATOM     26  C   LIG    1        2.385   0.007  -0.021  0.00  0.00    +0.200 A 
ATOM     27  C   LIG    1        2.377   1.416  -0.013  0.00  0.00    +0.080 A 
ATOM     28  C   LIG    1        1.187   2.073   0.002  0.00  0.00    +0.060 A 
ATOM     29  C   LIG    1       -0.016   1.344   0.009  0.00  0.00    +0.030 A 
ATOM     30  C   LIG    1        0.002  -0.004   0.002  0.00  0.00    +0.240 A 
ATOM     31  N   LIG    1        1.190  -0.681  -0.013  0.00  0.00    -0.380 N 
ENDBRANCH  22  23
ENDBRANCH  20  22
ENDBRANCH  18  20
ENDBRANCH   4  18
TORSDOF 7
