REMARK  Name = ZINCpe00000gN3pD.0
REMARK                            x       y       z     vdW  Elec       q    Type
REMARK                         _______ _______ _______ _____ _____    ______ ____
ROOT
ATOM      1  C   LIG    1       -1.656   4.382   0.040  0.00  0.00    +0.310 C 
ATOM      2  N   LIG    1       -0.958   5.509  -0.565  0.00  0.00    -0.720 N 
ATOM      3  H   LIG    1       -0.421   5.341  -1.354  0.00  0.00    +0.400 HD
ATOM      4  C   LIG    1       -1.012   6.758  -0.100  0.00  0.00    +0.520 C 
ATOM      5  C   LIG    1       -1.765   7.150   1.139  0.00  0.00    +0.090 C 
ATOM      6  C   LIG    1       -2.770   6.056   1.506  0.00  0.00    +0.030 C 
ATOM      7  O   LIG    1       -0.422   7.624  -0.711  0.00  0.00    -0.540 OA
ATOM      8  C   LIG    1       -2.046   4.705   1.483  0.00  0.00    +0.250 C 
ENDROOT
BRANCH   1  14
ATOM      9  C   LIG    1        1.444   4.379   0.011  0.00  0.00    +0.350 C 
ATOM     10  N   LIG    1        0.593   3.186   0.013  0.00  0.00    -0.360 N 
ATOM     11  N   LIG    1        1.037   1.857   0.002  0.00  0.00    -0.290 NA
ATOM     12  C   LIG    1       -0.013   1.076   0.008  0.00  0.00    +0.240 A 
ATOM     13  C   LIG    1       -1.157   1.881   0.017  0.00  0.00    -0.100 A 
ATOM     14  C   LIG    1       -0.756   3.173   0.025  0.00  0.00    +0.060 A 
ENDBRANCH   1  14
BRANCH   8  15
ATOM     15  N   LIG    1       -2.936   3.661   1.997  0.00  0.00    -0.720 N 
ATOM     16  H   LIG    1       -3.471   3.134   1.383  0.00  0.00    +0.400 HD
ATOM     17  C   LIG    1       -3.011   3.433   3.324  0.00  0.00    +0.610 C 
ATOM     18  O   LIG    1       -2.340   4.094   4.094  0.00  0.00    -0.550 OA
BRANCH  17  19
ATOM     19  C   LIG    1       -3.902   2.389   3.838  0.00  0.00    -0.320 A 
ATOM     20  C   LIG    1       -4.088   2.035   5.189  0.00  0.00    +0.170 A 
ATOM     21  C   LIG    1       -3.539   2.515   6.384  0.00  0.00    +0.050 A 
ATOM     22  C   LIG    1       -3.926   1.958   7.568  0.00  0.00    +0.080 A 
ATOM     23  C   LIG    1       -4.865   0.917   7.564  0.00  0.00    +0.000 A 
ATOM     24  C   LIG    1       -5.383   0.470   6.398  0.00  0.00    +0.290 A 
ATOM     25  N   LIG    1       -5.002   1.020   5.211  0.00  0.00    -0.260 N 
ATOM     26  N   LIG    1       -5.376   0.749   3.889  0.00  0.00    -0.320 NA
ATOM     27  C   LIG    1       -4.739   1.552   3.079  0.00  0.00    +0.320 A 
ENDBRANCH  17  19
ENDBRANCH   8  15
TORSDOF 3
