REMARK  Name = ZINCqH0000031I9Z.0
REMARK                            x       y       z     vdW  Elec       q    Type
REMARK                         _______ _______ _______ _____ _____    ______ ____
ROOT
ATOM      1  N   LIG    1       -1.197   1.875   0.035  0.00  0.00    -0.660 N 
ATOM      2  H   LIG    1       -1.216   2.842   0.117  0.00  0.00    +0.430 HD
ATOM      3  C   LIG    1       -0.018   1.222   0.030  0.00  0.00    +0.520 C 
ATOM      4  O   LIG    1        0.003   0.009   0.009  0.00  0.00    -0.510 OA
ENDROOT
BRANCH   1  13
ATOM      5  C   LIG    1       -3.478   1.714  -0.777  0.00  0.00    -0.200 A 
ATOM      6  C   LIG    1       -4.671   0.986  -0.888  0.00  0.00    +0.110 A 
ATOM      7  C   LIG    1       -4.777  -0.257  -0.303  0.00  0.00    +0.000 A 
ATOM      8  C   LIG    1       -3.694  -0.798   0.398  0.00  0.00    +0.100 A 
ATOM      9  O   LIG    1       -4.054  -2.024   0.874  0.00  0.00    -0.300 OA
ATOM     10  C   LIG    1       -5.217  -2.406   0.115  0.00  0.00    +0.440 C 
ATOM     11  C   LIG    1       -2.509  -0.088   0.507  0.00  0.00    +0.030 A 
ATOM     12  O   LIG    1       -5.810  -1.149  -0.261  0.00  0.00    -0.300 OA
ATOM     13  C   LIG    1       -2.389   1.163  -0.076  0.00  0.00    +0.230 A 
BRANCH   5  15
ATOM     14  C   LIG    1       -4.566   3.675  -2.040  0.00  0.00    +0.090 C 
ATOM     15  C   LIG    1       -3.363   3.038  -1.392  0.00  0.00    +0.410 C 
ATOM     16  O   LIG    1       -2.300   3.622  -1.381  0.00  0.00    -0.470 OA
ENDBRANCH   5  15
ENDBRANCH   1  13
BRANCH   3  17
ATOM     17  C   LIG    1        1.273   1.998   0.043  0.00  0.00    +0.070 C 
BRANCH  17  18
ATOM     18  C   LIG    1        2.453   1.024   0.026  0.00  0.00    +0.050 C 
BRANCH  18  19
ATOM     19  C   LIG    1        3.765   1.812   0.040  0.00  0.00    +0.180 C 
BRANCH  19  20
ATOM     20  O   LIG    1        4.867   0.902   0.024  0.00  0.00    -0.310 OA
BRANCH  20  21
ATOM     21  C   LIG    1        6.114   1.444   0.033  0.00  0.00    +0.130 A 
ATOM     22  C   LIG    1        6.273   2.821   0.057  0.00  0.00    -0.080 A 
ATOM     23  C   LIG    1        7.541   3.369   0.066  0.00  0.00    +0.030 A 
ATOM     24  C   LIG    1        8.651   2.545   0.052  0.00  0.00    -0.030 A 
ATOM     25  C   LIG    1        8.495   1.171   0.028  0.00  0.00    +0.050 A 
ATOM     26  C   LIG    1        7.229   0.619   0.025  0.00  0.00    -0.120 A 
ATOM     27  C   LIG    1        7.060  -0.879   0.006  0.00  0.00    +0.100 C 
ENDBRANCH  20  21
ENDBRANCH  19  20
ENDBRANCH  18  19
ENDBRANCH  17  18
ENDBRANCH   3  17
TORSDOF 7
