REMARK  Name = ZINCrD000000CwjA.0
REMARK                            x       y       z     vdW  Elec       q    Type
REMARK                         _______ _______ _______ _____ _____    ______ ____
ROOT
ATOM      1  O   LIG    1        4.102   7.282   0.987  0.00  0.00    -0.530 OA
ATOM      2  C   LIG    1        3.895   6.607   0.000  0.00  0.00    +0.520 C 
ATOM      3  N   LIG    1        3.068   5.546   0.071  0.00  0.00    -0.610 N 
ATOM      4  C   LIG    1        2.498   5.125   1.358  0.00  0.00    +0.280 C 
ATOM      5  C   LIG    1        2.807   3.639   1.571  0.00  0.00    +0.020 C 
ATOM      6  C   LIG    1        2.300   2.840   0.368  0.00  0.00    +0.100 C 
ATOM      7  C   LIG    1        3.023   3.307  -0.898  0.00  0.00    +0.030 C 
ATOM      8  C   LIG    1        2.717   4.788  -1.139  0.00  0.00    +0.280 C 
ENDROOT
BRANCH   2   9
ATOM      9  C   LIG    1        4.564   6.957  -1.304  0.00  0.00    -0.010 C 
ATOM     10  C   LIG    1        3.620   7.818  -2.149  0.00  0.00    +0.010 C 
ATOM     11  C   LIG    1        4.336   8.234  -3.437  0.00  0.00    +0.220 C 
ATOM     12  O   LIG    1        5.538   8.935  -3.108  0.00  0.00    -0.370 OA
ATOM     13  C   LIG    1        6.477   8.164  -2.358  0.00  0.00    +0.120 C 
ATOM     14  C   LIG    1        6.870   6.917  -3.155  0.00  0.00    -0.020 C 
ATOM     15  C   LIG    1        7.571   7.347  -4.446  0.00  0.00    +0.210 C 
ATOM     16  O   LIG    1        8.709   8.148  -4.125  0.00  0.00    -0.380 OA
ATOM     17  C   LIG    1        8.396   9.352  -3.422  0.00  0.00    +0.220 C 
ATOM     18  C   LIG    1        7.729   9.004  -2.089  0.00  0.00    +0.030 C 
ATOM     19  C   LIG    1        5.848   7.744  -1.028  0.00  0.00    +0.050 C 
ENDBRANCH   2   9
BRANCH   6  20
ATOM     20  C   LIG    1        2.571   1.374   0.589  0.00  0.00    +0.060 A 
ATOM     21  N   LIG    1        1.672   0.460   0.633  0.00  0.00    -0.460 NA
ATOM     22  C   LIG    1        2.071  -0.798   0.838  0.00  0.00    +0.040 A 
ATOM     23  C   LIG    1        3.398  -0.915   0.969  0.00  0.00    -0.250 A 
ATOM     24  C   LIG    1        3.793  -2.362   1.197  0.00  0.00    +0.130 C 
ATOM     25  C   LIG    1        2.564  -3.181   0.753  0.00  0.00    +0.050 C 
ATOM     26  C   LIG    1        1.419  -2.171   0.968  0.00  0.00    +0.130 C 
ATOM     27  S   LIG    1        4.119   0.690   0.816  0.00  0.00    +0.140 S 
ENDBRANCH   6  20
TORSDOF 2
