REMARK  Name = ZINCqH0000037qXt.0
REMARK                            x       y       z     vdW  Elec       q    Type
REMARK                         _______ _______ _______ _____ _____    ______ ____
ROOT
ATOM      1  C   LIG    1        0.021   4.193   0.024  0.00  0.00    +0.340 A 
ATOM      2  C   LIG    1       -1.208   3.535   0.031  0.00  0.00    -0.050 A 
ATOM      3  C   LIG    1       -1.237   2.166   0.020  0.00  0.00    +0.160 A 
ATOM      4  C   LIG    1       -0.018   1.471   0.010  0.00  0.00    -0.220 A 
ATOM      5  C   LIG    1        1.175   2.196   0.003  0.00  0.00    +0.330 A 
ATOM      6  N   LIG    1        1.159   3.512   0.009  0.00  0.00    -0.520 NA
ENDROOT
BRANCH   1  10
ATOM      7  C   LIG    1        0.804   8.050   1.410  0.00  0.00    +0.020 C 
ATOM      8  C   LIG    1        1.429   7.601   0.088  0.00  0.00    +0.200 C 
ATOM      9  C   LIG    1        1.438   6.071   0.020  0.00  0.00    +0.200 C 
ATOM     10  N   LIG    1        0.053   5.577   0.030  0.00  0.00    -0.470 N 
ATOM     11  C   LIG    1       -0.705   6.128  -1.103  0.00  0.00    +0.190 C 
ATOM     12  C   LIG    1       -0.692   7.657  -1.023  0.00  0.00    +0.160 C 
ATOM     13  C   LIG    1       -1.411   8.238  -2.242  0.00  0.00    +0.050 C 
ATOM     14  O   LIG    1        0.661   8.117  -1.003  0.00  0.00    -0.370 OA
ENDBRANCH   1  10
BRANCH   4  15
ATOM     15  C   LIG    1        0.002  -0.004   0.002  0.00  0.00    +0.570 C 
ATOM     16  N   LIG    1        1.178  -0.662  -0.013  0.00  0.00    -0.730 N 
ATOM     17  H   LIG    1        2.012  -0.166  -0.018  0.00  0.00    +0.400 HD
ATOM     18  O   LIG    1       -1.043  -0.626   0.009  0.00  0.00    -0.530 OA
BRANCH  16  19
ATOM     19  C   LIG    1        1.198  -2.127  -0.021  0.00  0.00    +0.260 C 
BRANCH  19  20
ATOM     20  C   LIG    1        2.647  -2.617  -0.037  0.00  0.00    -0.020 C 
ATOM     21  C   LIG    1        3.313  -2.196  -1.349  0.00  0.00    +0.010 C 
ATOM     22  C   LIG    1        4.832  -2.323  -1.213  0.00  0.00    +0.000 C 
ATOM     23  C   LIG    1        5.274  -1.753   0.136  0.00  0.00    +0.000 C 
ATOM     24  C   LIG    1        5.806  -2.884   1.018  0.00  0.00    +0.000 C 
ATOM     25  C   LIG    1        4.631  -3.699   1.565  0.00  0.00    +0.000 C 
ATOM     26  C   LIG    1        4.080  -4.603   0.460  0.00  0.00    +0.000 C 
ATOM     27  C   LIG    1        2.671  -4.143   0.080  0.00  0.00    +0.020 C 
ENDBRANCH  19  20
ENDBRANCH  16  19
ENDBRANCH   4  15
TORSDOF 4
