REMARK  Name = ZINCtV00000L6k0h.0
REMARK                            x       y       z     vdW  Elec       q    Type
REMARK                         _______ _______ _______ _____ _____    ______ ____
ROOT
ATOM      1  C   LIG    1        0.920   2.368  -0.004  0.00  0.00    +0.160 A 
ATOM      2  C   LIG    1       -0.151   1.562  -0.143  0.00  0.00    -0.070 A 
ATOM      3  S   LIG    1       -1.583   2.575  -0.314  0.00  0.00    +0.090 S 
ATOM      4  C   LIG    1       -0.580   4.016  -0.170  0.00  0.00    +0.120 A 
ATOM      5  N   LIG    1        0.663   3.663  -0.023  0.00  0.00    -0.460 NA
ENDROOT
BRANCH   1   9
ATOM      6  C   LIG    1        4.842  -0.831   0.440  0.00  0.00    +0.130 C 
ATOM      7  C   LIG    1        4.008   0.422   0.351  0.00  0.00    +0.020 A 
ATOM      8  C   LIG    1        2.672   0.468   0.190  0.00  0.00    -0.040 A 
ATOM      9  C   LIG    1        2.297   1.835   0.158  0.00  0.00    -0.120 A 
ATOM     10  C   LIG    1        3.434   2.565   0.297  0.00  0.00    +0.070 A 
ATOM     11  C   LIG    1        3.524   4.070   0.316  0.00  0.00    +0.140 C 
ATOM     12  N   LIG    1        4.481   1.699   0.421  0.00  0.00    -0.420 N 
BRANCH  12  13
ATOM     13  C   LIG    1        5.884   2.080   0.596  0.00  0.00    +0.180 C 
ATOM     14  C   LIG    1        6.457   3.127  -0.361  0.00  0.00    +0.050 C 
ATOM     15  C   LIG    1        6.871   1.659  -0.495  0.00  0.00    +0.040 C 
ENDBRANCH  12  13
ENDBRANCH   1   9
BRANCH   4  16
ATOM     16  C   LIG    1       -1.073   5.409  -0.216  0.00  0.00    -0.040 A 
ATOM     17  C   LIG    1       -0.177   6.473  -0.091  0.00  0.00    +0.090 A 
ATOM     18  C   LIG    1       -0.639   7.770  -0.140  0.00  0.00    -0.010 A 
ATOM     19  C   LIG    1       -1.997   8.020  -0.302  0.00  0.00    +0.160 A 
ATOM     20  C   LIG    1       -2.893   6.963  -0.421  0.00  0.00    +0.020 A 
ATOM     21  C   LIG    1       -2.437   5.663  -0.379  0.00  0.00    +0.060 A 
BRANCH  19  22
ATOM     22  N   LIG    1       -2.463   9.336  -0.345  0.00  0.00    -0.660 N 
ATOM     23  H   LIG    1       -1.913  10.032  -0.737  0.00  0.00    +0.420 HD
ATOM     24  C   LIG    1       -3.677   9.638   0.157  0.00  0.00    +0.610 C 
ATOM     25  O   LIG    1       -4.327   8.785   0.732  0.00  0.00    -0.500 OA
BRANCH  24  26
ATOM     26  C   LIG    1       -4.213  10.995   0.011  0.00  0.00    -0.090 A 
ATOM     27  C   LIG    1       -5.423  11.433   0.470  0.00  0.00    +0.050 A 
ATOM     28  C   LIG    1       -5.523  12.787   0.113  0.00  0.00    -0.070 A 
ATOM     29  C   LIG    1       -4.386  13.111  -0.540  0.00  0.00    +0.210 A 
ATOM     30  O   LIG    1       -3.597  12.030  -0.595  0.00  0.00    -0.170 OA
ENDBRANCH  24  26
ENDBRANCH  19  22
ENDBRANCH   4  16
TORSDOF 5
