REMARK  Name = ZINCrH000004qful.0
REMARK                            x       y       z     vdW  Elec       q    Type
REMARK                         _______ _______ _______ _____ _____    ______ ____
ROOT
ATOM      1  N   LIG    1        1.157   3.486   0.009  0.00  0.00    -0.740 N 
ATOM      2  H   LIG    1        1.990   3.983   0.004  0.00  0.00    +0.400 HD
ENDROOT
BRANCH   1   5
ATOM      3  C   LIG    1        3.683   2.181  -0.023  0.00  0.00    +0.090 C 
ATOM      4  C   LIG    1        2.387   1.412  -0.014  0.00  0.00    -0.150 A 
ATOM      5  C   LIG    1        1.177   2.090   0.002  0.00  0.00    +0.230 A 
ATOM      6  C   LIG    1       -0.017   1.377   0.010  0.00  0.00    -0.050 A 
ATOM      7  C   LIG    1        0.002  -0.004   0.002  0.00  0.00    +0.060 A 
ATOM      8  C   LIG    1        1.206  -0.682  -0.013  0.00  0.00    -0.040 A 
ATOM      9  C   LIG    1        2.402   0.025  -0.021  0.00  0.00    +0.200 A 
BRANCH   9  10
ATOM     10  N   LIG    1        3.622  -0.663  -0.035  0.00  0.00    -0.590 N 
ATOM     11  C   LIG    1        4.355  -1.077  -1.241  0.00  0.00    +0.260 C 
ATOM     12  C   LIG    1        5.607  -1.782  -0.685  0.00  0.00    +0.260 C 
ATOM     13  O   LIG    1        5.450  -1.691   0.761  0.00  0.00    -0.320 OA
ATOM     14  C   LIG    1        4.314  -1.045   1.046  0.00  0.00    +0.650 C 
ATOM     15  O   LIG    1        3.942  -0.828   2.183  0.00  0.00    -0.510 OA
ENDBRANCH   9  10
ENDBRANCH   1   5
BRANCH   1  16
ATOM     16  C   LIG    1       -0.122   4.201   0.025  0.00  0.00    +0.370 C 
BRANCH  16  17
ATOM     17  C   LIG    1        0.133   5.686   0.030  0.00  0.00    -0.030 A 
ATOM     18  C   LIG    1        0.172   6.505  -1.048  0.00  0.00    +0.180 A 
ATOM     19  N   LIG    1        0.427   7.751  -0.565  0.00  0.00    -0.240 N 
ATOM     20  N   LIG    1        0.540   7.669   0.715  0.00  0.00    -0.070 NA
ATOM     21  N   LIG    1        0.371   6.453   1.100  0.00  0.00    -0.240 NA
BRANCH  19  22
ATOM     22  C   LIG    1        0.551   8.921  -1.329  0.00  0.00    +0.120 A 
ATOM     23  C   LIG    1        0.410   8.868  -2.708  0.00  0.00    +0.050 A 
ATOM     24  C   LIG    1        0.528  10.022  -3.458  0.00  0.00    +0.060 A 
ATOM     25  C   LIG    1        0.797  11.228  -2.836  0.00  0.00    -0.030 A 
ATOM     26  C   LIG    1        0.943  11.283  -1.461  0.00  0.00    +0.060 A 
ATOM     27 CL   LIG    1        0.951  12.676  -3.782  0.00  0.00    -0.050 Cl
ATOM     28  C   LIG    1        0.821  10.132  -0.706  0.00  0.00    +0.060 A 
ENDBRANCH  19  22
ENDBRANCH  16  17
ENDBRANCH   1  16
TORSDOF 5
