REMARK  Name = ZINCvl0000000Lzw.0
REMARK                            x       y       z     vdW  Elec       q    Type
REMARK                         _______ _______ _______ _____ _____    ______ ____
ROOT
ATOM      1  C   LIG    1       -1.234   3.159   7.389  0.00  0.00    +0.510 C 
ATOM      2  N   LIG    1       -0.786   2.860   6.154  0.00  0.00    -0.710 N 
ATOM      3  H   LIG    1       -0.028   2.264   6.044  0.00  0.00    +0.420 HD
ATOM      4  O   LIG    1       -2.182   3.905   7.527  0.00  0.00    -0.490 OA
ENDROOT
BRANCH   1   7
ATOM      5  N   LIG    1       -1.012   2.874   9.825  0.00  0.00    -0.640 N 
ATOM      6  H   LIG    1       -1.726   3.521   9.938  0.00  0.00    +0.430 HD
ATOM      7  C   LIG    1       -0.564   2.574   8.589  0.00  0.00    +0.510 C 
ATOM      8  O   LIG    1        0.384   1.829   8.452  0.00  0.00    -0.500 OA
BRANCH   5  12
ATOM      9  C   LIG    1        0.668   1.023  13.155  0.00  0.00    -0.140 A 
ATOM     10  C   LIG    1        1.460   1.331  12.064  0.00  0.00    +0.010 A 
ATOM     11  C   LIG    1        0.906   1.945  10.958  0.00  0.00    +0.040 A 
ATOM     12  C   LIG    1       -0.449   2.252  10.942  0.00  0.00    +0.160 A 
ATOM     13  C   LIG    1       -1.240   1.946  12.041  0.00  0.00    +0.030 A 
ATOM     14  C   LIG    1       -0.681   1.328  13.143  0.00  0.00    +0.080 A 
BRANCH   9  16
ATOM     15  C   LIG    1        0.509   0.772  15.617  0.00  0.00    +0.110 C 
ATOM     16  C   LIG    1        1.276   0.354  14.361  0.00  0.00    +0.120 C 
ATOM     17  C   LIG    1        1.195  -1.165  14.196  0.00  0.00    +0.110 C 
BRANCH  16  18
ATOM     18  N   LIG    1        2.682   0.758  14.488  0.00  0.00    -0.640 N 
ATOM     19  H   LIG    1        3.188   0.483  13.660  0.00  0.00    +0.430 HD
ATOM     20  H   LIG    1        3.089   0.310  15.295  0.00  0.00    +0.440 HD
ATOM     21  H   LIG    1        2.736   1.760  14.597  0.00  0.00    +0.440 HD
ENDBRANCH  16  18
ENDBRANCH   9  16
ENDBRANCH   5  12
ENDBRANCH   1   7
BRANCH   2  22
ATOM     22  C   LIG    1       -1.443   3.434   4.977  0.00  0.00    +0.300 C 
BRANCH  22  23
ATOM     23  C   LIG    1       -0.745   2.937   3.710  0.00  0.00    +0.030 C 
BRANCH  23  24
ATOM     24  C   LIG    1       -1.431   3.536   2.481  0.00  0.00    +0.270 C 
BRANCH  24  25
ATOM     25  N   LIG    1       -0.760   3.059   1.264  0.00  0.00    -0.390 N 
ATOM     26  C   LIG    1       -0.733   1.591   1.264  0.00  0.00    +0.290 C 
ATOM     27  C   LIG    1       -0.019   1.093   0.006  0.00  0.00    +0.240 C 
ATOM     28  N   LIG    1       -0.726   1.588  -1.184  0.00  0.00    -0.480 NA
ATOM     29  C   LIG    1       -0.782   3.057  -1.185  0.00  0.00    +0.250 C 
ATOM     30  C   LIG    1       -1.491   3.538   0.083  0.00  0.00    +0.300 C 
ATOM     31  H   LIG    1        0.184   3.413   1.241  0.00  0.00    +0.430 HD
BRANCH  28  32
ATOM     32  C   LIG    1       -0.135   1.111  -2.350  0.00  0.00    +0.220 C 
ATOM     33  C   LIG    1        0.985   0.281  -2.296  0.00  0.00    -0.010 C 
ATOM     34  C   LIG    1        1.537  -0.176  -3.474  0.00  0.00    +0.390 C 
ATOM     35  N   LIG    1        1.027   0.172  -4.641  0.00  0.00    -0.460 NA
ATOM     36  C   LIG    1       -0.028   0.960  -4.733  0.00  0.00    +0.390 C 
ATOM     37  H   LIG    1        1.438  -0.161  -5.453  0.00  0.00    +0.460 HD
ATOM     38  C   LIG    1       -0.643   1.454  -3.602  0.00  0.00    +0.040 C 
ENDBRANCH  28  32
ENDBRANCH  24  25
ENDBRANCH  23  24
ENDBRANCH  22  23
ENDBRANCH   2  22
TORSDOF 9
