REMARK  Name = ZINCtV00000L6jPW.0
REMARK                            x       y       z     vdW  Elec       q    Type
REMARK                         _______ _______ _______ _____ _____    ______ ____
ROOT
ATOM      1  C   LIG    1        1.236   3.502   0.035  0.00  0.00    +0.080 C 
ENDROOT
BRANCH   1   4
ATOM      2  C   LIG    1        0.565  -0.217  -0.022  0.00  0.00    +0.160 A 
ATOM      3  C   LIG    1        0.369   1.156   0.017  0.00  0.00    -0.080 A 
ATOM      4  C   LIG    1        1.454   2.012  -0.009  0.00  0.00    -0.020 A 
ATOM      5  C   LIG    1        2.738   1.504  -0.075  0.00  0.00    -0.070 A 
ATOM      6  C   LIG    1        2.942   0.133  -0.115  0.00  0.00    +0.150 A 
ATOM      7  C   LIG    1        1.854  -0.731  -0.089  0.00  0.00    +0.030 A 
BRANCH   2   9
ATOM      8  C   LIG    1       -1.799  -0.460   0.071  0.00  0.00    +0.250 C 
ATOM      9  O   LIG    1       -0.503  -1.058   0.003  0.00  0.00    -0.300 OA
ENDBRANCH   2   9
BRANCH   6  10
ATOM     10  O   LIG    1        4.206  -0.365  -0.179  0.00  0.00    -0.300 OA
ATOM     11  C   LIG    1        5.276   0.582  -0.203  0.00  0.00    +0.240 C 
ENDBRANCH   6  10
BRANCH   7  12
ATOM     12  O   LIG    1        2.051  -2.077  -0.127  0.00  0.00    -0.310 OA
ATOM     13  C   LIG    1        2.091  -2.690  -1.418  0.00  0.00    +0.210 C 
ENDBRANCH   7  12
ENDBRANCH   1   4
BRANCH   1  14
ATOM     14  S   LIG    1        2.090   4.279  -1.365  0.00  0.00    -0.070 S 
BRANCH  14  15
ATOM     15  C   LIG    1        1.126   3.770  -2.749  0.00  0.00    -0.080 A 
ATOM     16  C   LIG    1       -0.062   3.077  -2.553  0.00  0.00    +0.010 A 
ATOM     17  C   LIG    1       -0.818   2.684  -3.640  0.00  0.00    +0.040 A 
ATOM     18  C   LIG    1       -0.388   2.970  -4.924  0.00  0.00    -0.040 A 
ATOM     19  C   LIG    1        0.798   3.655  -5.122  0.00  0.00    +0.050 A 
ATOM     20 CL   LIG    1       -1.337   2.468  -6.288  0.00  0.00    -0.070 Cl
ATOM     21  C   LIG    1        1.555   4.056  -4.040  0.00  0.00    +0.050 A 
ENDBRANCH  14  15
ENDBRANCH   1  14
BRANCH   1  22
ATOM     22  C   LIG    1        1.793   4.061   1.345  0.00  0.00    +0.090 C 
BRANCH  22  23
ATOM     23  C   LIG    1        1.444   5.523   1.457  0.00  0.00    +0.430 C 
ATOM     24  O   LIG    1        0.885   6.085   0.537  0.00  0.00    -0.420 OA
BRANCH  23  25
ATOM     25  C   LIG    1        1.767   6.239   2.632  0.00  0.00    -0.120 A 
ATOM     26  C   LIG    1        1.507   7.574   2.868  0.00  0.00    +0.060 A 
ATOM     27  C   LIG    1        1.997   7.854   4.151  0.00  0.00    -0.070 A 
ATOM     28  C   LIG    1        2.524   6.707   4.638  0.00  0.00    +0.220 A 
ATOM     29  O   LIG    1        2.379   5.738   3.726  0.00  0.00    -0.150 OA
ENDBRANCH  23  25
ENDBRANCH  22  23
ENDBRANCH   1  22
TORSDOF 9
