REMARK  Name = ZINCrH00000tj14U.1
REMARK                            x       y       z     vdW  Elec       q    Type
REMARK                         _______ _______ _______ _____ _____    ______ ____
ROOT
ATOM      1  C   LIG    1       -1.406  -0.524   0.141  0.00  0.00    +0.420 C 
ATOM      2  O   LIG    1       -2.343   0.160  -0.212  0.00  0.00    -0.440 OA
ENDROOT
BRANCH   1  10
ATOM      3  C   LIG    1       -2.327  -7.835   3.328  0.00  0.00    +0.110 C 
ATOM      4  C   LIG    1       -1.731  -6.596   2.712  0.00  0.00    +0.520 C 
ATOM      5  N   LIG    1       -2.537  -5.622   2.244  0.00  0.00    -0.560 N 
ATOM      6  C   LIG    1       -3.999  -5.700   2.182  0.00  0.00    +0.280 C 
ATOM      7  C   LIG    1       -4.450  -4.360   1.580  0.00  0.00    +0.110 C 
ATOM      8  C   LIG    1       -3.164  -3.600   1.340  0.00  0.00    -0.150 A 
ATOM      9  C   LIG    1       -2.947  -2.352   0.828  0.00  0.00    +0.130 A 
ATOM     10  C   LIG    1       -1.642  -1.863   0.697  0.00  0.00    -0.190 A 
ATOM     11  C   LIG    1       -0.564  -2.657   1.107  0.00  0.00    +0.100 A 
ATOM     12  C   LIG    1       -0.793  -3.908   1.626  0.00  0.00    +0.000 A 
ATOM     13  C   LIG    1       -2.100  -4.395   1.749  0.00  0.00    +0.190 A 
ATOM     14  O   LIG    1       -0.527  -6.474   2.637  0.00  0.00    -0.510 OA
ENDBRANCH   1  10
BRANCH   1  15
ATOM     15  C   LIG    1        0.001  -0.001   0.009  0.00  0.00    +0.000 C 
ATOM     16  C   LIG    1        0.608  -0.494  -1.306  0.00  0.00    +0.090 C 
BRANCH  15  17
ATOM     17  S   LIG    1       -0.025   1.809   0.020  0.00  0.00    +0.060 S 
BRANCH  17  18
ATOM     18  C   LIG    1        1.706   2.140   0.009  0.00  0.00    +0.250 A 
ATOM     19  N   LIG    1        2.667   1.240   0.001  0.00  0.00    -0.540 NA
ATOM     20  C   LIG    1        3.853   1.850  -0.011  0.00  0.00    +0.250 A 
ATOM     21  N   LIG    1        3.670   3.143  -0.001  0.00  0.00    -0.300 NA
ATOM     22  N   LIG    1        2.282   3.361   0.012  0.00  0.00    -0.460 N 
ATOM     23  H   LIG    1        1.829   4.218   0.021  0.00  0.00    +0.450 HD
BRANCH  20  24
ATOM     24  C   LIG    1        5.191   1.158  -0.026  0.00  0.00    +0.100 C 
ATOM     25  C   LIG    1        6.025   1.592   1.198  0.00  0.00    +0.020 C 
ATOM     26  C   LIG    1        7.475   1.675   0.659  0.00  0.00    +0.020 C 
ATOM     27  C   LIG    1        7.279   2.255  -0.764  0.00  0.00    +0.020 C 
ATOM     28  C   LIG    1        5.988   1.579  -1.273  0.00  0.00    +0.030 C 
ENDBRANCH  20  24
ENDBRANCH  17  18
ENDBRANCH  15  17
ENDBRANCH   1  15
TORSDOF 5
