REMARK  Name = ZINCrH00000tj14U.2
REMARK                            x       y       z     vdW  Elec       q    Type
REMARK                         _______ _______ _______ _____ _____    ______ ____
ROOT
ATOM      1  C   LIG    1        4.275   5.028  -0.141  0.00  0.00    +0.430 C 
ATOM      2  O   LIG    1        3.954   6.136   0.234  0.00  0.00    -0.430 OA
ENDROOT
BRANCH   1  10
ATOM      3  C   LIG    1       11.429   3.467  -3.433  0.00  0.00    +0.110 C 
ATOM      4  C   LIG    1       10.068   3.317  -2.803  0.00  0.00    +0.520 C 
ATOM      5  N   LIG    1        9.431   4.397  -2.311  0.00  0.00    -0.560 N 
ATOM      6  C   LIG    1       10.001   5.744  -2.234  0.00  0.00    +0.280 C 
ATOM      7  C   LIG    1        8.900   6.614  -1.606  0.00  0.00    +0.110 C 
ATOM      8  C   LIG    1        7.752   5.658  -1.369  0.00  0.00    -0.150 A 
ATOM      9  C   LIG    1        6.512   5.868  -0.834  0.00  0.00    +0.130 A 
ATOM     10  C   LIG    1        5.608   4.806  -0.716  0.00  0.00    -0.190 A 
ATOM     11  C   LIG    1        5.987   3.527  -1.144  0.00  0.00    +0.100 A 
ATOM     12  C   LIG    1        7.234   3.328  -1.686  0.00  0.00    +0.000 A 
ATOM     13  C   LIG    1        8.134   4.394  -1.801  0.00  0.00    +0.180 A 
ATOM     14  O   LIG    1        9.546   2.224  -2.740  0.00  0.00    -0.510 OA
ENDBRANCH   1  10
BRANCH   1  15
ATOM     15  C   LIG    1        3.307   3.880  -0.016  0.00  0.00    -0.020 C 
ATOM     16  C   LIG    1        3.580   3.121   1.284  0.00  0.00    +0.080 C 
BRANCH  15  17
ATOM     17  S   LIG    1        1.610   4.519   0.002  0.00  0.00    +0.080 S 
BRANCH  17  18
ATOM     18  C   LIG    1        0.633   3.053   0.001  0.00  0.00    +0.200 A 
ATOM     19  N   LIG    1        1.098   1.825  -0.011  0.00  0.00    -0.320 NA
ATOM     20  N   LIG    1       -0.016   0.971  -0.007  0.00  0.00    -0.470 N 
ATOM     21  H   LIG    1       -0.004   0.001  -0.014  0.00  0.00    +0.440 HD
ATOM     22  C   LIG    1       -1.103   1.761   0.001  0.00  0.00    +0.310 A 
ATOM     23  N   LIG    1       -0.703   3.007   0.012  0.00  0.00    -0.510 NA
BRANCH  22  24
ATOM     24  C   LIG    1       -2.535   1.293   0.002  0.00  0.00    +0.090 C 
ATOM     25  C   LIG    1       -2.655  -0.043   0.764  0.00  0.00    +0.020 C 
ATOM     26  C   LIG    1       -3.714  -0.843  -0.034  0.00  0.00    +0.030 C 
ATOM     27  C   LIG    1       -3.387  -0.473  -1.502  0.00  0.00    +0.010 C 
ATOM     28  C   LIG    1       -3.001   1.020  -1.439  0.00  0.00    +0.030 C 
ENDBRANCH  22  24
ENDBRANCH  17  18
ENDBRANCH  15  17
ENDBRANCH   1  15
TORSDOF 5
