REMARK  Name = ZINCrH00000tj14U.0
REMARK                            x       y       z     vdW  Elec       q    Type
REMARK                         _______ _______ _______ _____ _____    ______ ____
ROOT
ATOM      1  C   LIG    1       -2.144   1.060   1.282  0.00  0.00    +0.430 C 
ATOM      2  O   LIG    1       -3.046   1.745   0.849  0.00  0.00    -0.440 OA
ENDROOT
BRANCH   1  10
ATOM      3  C   LIG    1       -3.342  -6.254   4.368  0.00  0.00    +0.110 C 
ATOM      4  C   LIG    1       -2.695  -5.014   3.807  0.00  0.00    +0.520 C 
ATOM      5  N   LIG    1       -3.456  -4.040   3.272  0.00  0.00    -0.560 N 
ATOM      6  C   LIG    1       -4.907  -4.117   3.083  0.00  0.00    +0.280 C 
ATOM      7  C   LIG    1       -5.304  -2.776   2.446  0.00  0.00    +0.110 C 
ATOM      8  C   LIG    1       -4.001  -2.017   2.319  0.00  0.00    -0.150 A 
ATOM      9  C   LIG    1       -3.740  -0.768   1.829  0.00  0.00    +0.130 A 
ATOM     10  C   LIG    1       -2.428  -0.279   1.814  0.00  0.00    -0.190 A 
ATOM     11  C   LIG    1       -1.390  -1.075   2.315  0.00  0.00    +0.100 A 
ATOM     12  C   LIG    1       -1.665  -2.326   2.810  0.00  0.00    +0.000 A 
ATOM     13  C   LIG    1       -2.977  -2.813   2.818  0.00  0.00    +0.190 A 
ATOM     14  O   LIG    1       -1.488  -4.894   3.837  0.00  0.00    -0.510 OA
ENDBRANCH   1  10
BRANCH   1  15
ATOM     15  C   LIG    1       -0.730   1.582   1.274  0.00  0.00    +0.000 C 
ATOM     16  C   LIG    1       -0.012   1.090   0.016  0.00  0.00    +0.090 C 
BRANCH  15  17
ATOM     17  S   LIG    1       -0.756   3.392   1.285  0.00  0.00    +0.050 S 
BRANCH  17  18
ATOM     18  C   LIG    1        0.969   3.722   1.424  0.00  0.00    +0.150 A 
ATOM     19  N   LIG    1        1.930   2.832   1.500  0.00  0.00    -0.290 NA
ATOM     20  N   LIG    1        3.068   3.423   1.590  0.00  0.00    -0.280 NA
ATOM     21  C   LIG    1        2.901   4.716   1.586  0.00  0.00    +0.200 A 
ATOM     22  N   LIG    1        1.558   4.953   1.480  0.00  0.00    -0.570 N 
ATOM     23  H   LIG    1        1.116   5.816   1.451  0.00  0.00    +0.430 HD
BRANCH  21  24
ATOM     24  C   LIG    1        3.987   5.756   1.680  0.00  0.00    +0.100 C 
ATOM     25  C   LIG    1        3.461   7.003   2.421  0.00  0.00    +0.020 C 
ATOM     26  C   LIG    1        4.127   8.192   1.685  0.00  0.00    +0.030 C 
ATOM     27  C   LIG    1        4.102   7.735   0.205  0.00  0.00    +0.010 C 
ATOM     28  C   LIG    1        4.395   6.222   0.271  0.00  0.00    +0.030 C 
ENDBRANCH  21  24
ENDBRANCH  17  18
ENDBRANCH  15  17
ENDBRANCH   1  15
TORSDOF 5
