REMARK  Name = ZINCqH0000007GyE.0
REMARK                            x       y       z     vdW  Elec       q    Type
REMARK                         _______ _______ _______ _____ _____    ______ ____
ROOT
ATOM      1  N   LIG    1        2.884   1.375  -2.617  0.00  0.00    -0.490 N 
ATOM      2  C   LIG    1        4.134   1.451  -3.385  0.00  0.00    +0.210 C 
ATOM      3  C   LIG    1        5.251   0.751  -2.608  0.00  0.00    +0.200 C 
ATOM      4  N   LIG    1        4.872  -0.647  -2.362  0.00  0.00    -0.520 NA
ATOM      5  C   LIG    1        3.622  -0.723  -1.593  0.00  0.00    +0.190 C 
ATOM      6  C   LIG    1        2.504  -0.023  -2.371  0.00  0.00    +0.210 C 
ENDROOT
BRANCH   1  11
ATOM      7  C   LIG    1        0.995   4.090  -4.226  0.00  0.00    +0.150 A 
ATOM      8  C   LIG    1       -0.186   3.433  -4.543  0.00  0.00    -0.100 A 
ATOM      9  C   LIG    1       -0.342   2.096  -4.226  0.00  0.00    +0.080 A 
ATOM     10  C   LIG    1        0.672   1.414  -3.582  0.00  0.00    -0.080 A 
ATOM     11  C   LIG    1        1.857   2.067  -3.263  0.00  0.00    +0.150 A 
ATOM     12  C   LIG    1        2.017   3.407  -3.586  0.00  0.00    -0.050 A 
BRANCH   7  14
ATOM     13  C   LIG    1        0.054   6.043  -5.203  0.00  0.00    +0.250 C 
ATOM     14  O   LIG    1        1.149   5.402  -4.543  0.00  0.00    -0.320 OA
ENDBRANCH   7  14
ENDBRANCH   1  11
BRANCH   4  15
ATOM     15  C   LIG    1        5.952  -1.374  -1.683  0.00  0.00    +0.220 C 
BRANCH  15  16
ATOM     16  C   LIG    1        5.642  -2.849  -1.682  0.00  0.00    +0.510 C 
ATOM     17  N   LIG    1        6.431  -3.703  -1.000  0.00  0.00    -0.680 N 
ATOM     18  H   LIG    1        7.155  -3.362  -0.451  0.00  0.00    +0.410 HD
ATOM     19  O   LIG    1        4.683  -3.267  -2.295  0.00  0.00    -0.480 OA
BRANCH  17  20
ATOM     20  C   LIG    1        6.205  -5.082  -1.082  0.00  0.00    +0.160 A 
ATOM     21  C   LIG    1        4.937  -5.596  -0.838  0.00  0.00    -0.020 A 
ATOM     22  C   LIG    1        4.716  -6.958  -0.925  0.00  0.00    +0.050 A 
ATOM     23  C   LIG    1        5.758  -7.810  -1.244  0.00  0.00    +0.050 A 
ATOM     24  C   LIG    1        7.022  -7.302  -1.482  0.00  0.00    +0.050 A 
ATOM     25 CL   LIG    1        3.630  -4.528  -0.430  0.00  0.00    -0.030 Cl
ATOM     26  C   LIG    1        7.248  -5.941  -1.403  0.00  0.00    -0.040 A 
ATOM     27 CL   LIG    1        8.836  -5.306  -1.702  0.00  0.00    -0.050 Cl
ENDBRANCH  17  20
ENDBRANCH  15  16
ENDBRANCH   4  15
TORSDOF 5
