REMARK  Name = ZINCvU00000008iy.0
REMARK                            x       y       z     vdW  Elec       q    Type
REMARK                         _______ _______ _______ _____ _____    ______ ____
ROOT
ATOM      1  N   LIG    1       -0.127   4.772  -1.029  0.00  0.00    -0.650 N 
ATOM      2  H   LIG    1        0.385   3.981  -0.800  0.00  0.00    +0.410 HD
ATOM      3  C   LIG    1        0.354   5.996  -0.733  0.00  0.00    +0.510 C 
ATOM      4  O   LIG    1       -0.331   6.979  -0.920  0.00  0.00    -0.460 OA
ENDROOT
BRANCH   1   9
ATOM      5  C   LIG    1       -4.214   5.603  -3.884  0.00  0.00    +0.120 C 
ATOM      6  C   LIG    1       -3.213   4.989  -2.939  0.00  0.00    -0.110 A 
ATOM      7  C   LIG    1       -3.332   3.816  -2.296  0.00  0.00    +0.030 A 
ATOM      8  N   LIG    1       -2.217   3.604  -1.530  0.00  0.00    -0.440 N 
ATOM      9  C   LIG    1       -1.355   4.644  -1.662  0.00  0.00    +0.310 A 
ATOM     10  C   LIG    1       -4.509   2.880  -2.401  0.00  0.00    +0.150 C 
ATOM     11  C   LIG    1       -1.918   5.556  -2.544  0.00  0.00    -0.110 A 
BRANCH   8  12
ATOM     12  C   LIG    1       -1.990   2.428  -0.687  0.00  0.00    +0.240 C 
ATOM     13  C   LIG    1       -0.789   1.613  -1.209  0.00  0.00    +0.010 C 
ATOM     14  C   LIG    1       -0.038   1.093   0.030  0.00  0.00    +0.020 C 
ATOM     15  C   LIG    1       -0.808   1.611   1.262  0.00  0.00    +0.040 C 
ATOM     16  C   LIG    1       -1.566   2.857   0.740  0.00  0.00    +0.020 C 
ENDBRANCH   8  12
BRANCH  11  17
ATOM     17  C   LIG    1       -1.354   6.799  -2.976  0.00  0.00    +0.300 C 
ATOM     18  N   LIG    1       -0.906   7.785  -3.318  0.00  0.00    -0.430 NA
ENDBRANCH  11  17
ENDBRANCH   1   9
BRANCH   3  19
ATOM     19  C   LIG    1        1.744   6.143  -0.168  0.00  0.00    +0.280 C 
BRANCH  19  20
ATOM     20  O   LIG    1        2.070   7.552  -0.046  0.00  0.00    -0.320 OA
BRANCH  20  21
ATOM     21  C   LIG    1        3.286   7.858   0.447  0.00  0.00    +0.510 C 
ATOM     22  O   LIG    1        4.053   6.971   0.766  0.00  0.00    -0.480 OA
BRANCH  21  23
ATOM     23  C   LIG    1        3.686   9.267   0.599  0.00  0.00    -0.120 A 
ATOM     24  C   LIG    1        2.808  10.291   0.234  0.00  0.00    +0.110 A 
ATOM     25  C   LIG    1        3.188  11.607   0.378  0.00  0.00    +0.010 A 
ATOM     26  C   LIG    1        4.439  11.924   0.885  0.00  0.00    +0.080 A 
ATOM     27  C   LIG    1        5.318  10.925   1.251  0.00  0.00    +0.000 A 
ATOM     28  C   LIG    1        4.951   9.591   1.118  0.00  0.00    -0.050 A 
BRANCH  28  29
ATOM     29  S   LIG    1        6.069   8.314   1.592  0.00  0.00    +0.020 S 
BRANCH  29  30
ATOM     30  C   LIG    1        7.467   9.313   2.159  0.00  0.00    +0.370 C 
ATOM     31  F   LIG    1        7.056  10.131   3.218  0.00  0.00    -0.180 F 
ATOM     32  F   LIG    1        7.928  10.111   1.106  0.00  0.00    -0.180 F 
ENDBRANCH  29  30
ENDBRANCH  28  29
ENDBRANCH  21  23
ENDBRANCH  20  21
ENDBRANCH  19  20
ENDBRANCH   3  19
TORSDOF 9
