REMARK  Name = ZINCvU00000009SQ.0
REMARK                            x       y       z     vdW  Elec       q    Type
REMARK                         _______ _______ _______ _____ _____    ______ ____
ROOT
ATOM      1  O   LIG    1        0.002  -0.004   0.002  0.00  0.00    -0.490 OA
ATOM      2  C   LIG    1       -0.014   1.213   0.009  0.00  0.00    +0.560 A 
ATOM      3  C   LIG    1       -1.281   1.958   0.019  0.00  0.00    -0.200 A 
ATOM      4  C   LIG    1       -2.514   1.309   0.032  0.00  0.00    +0.100 A 
ATOM      5  C   LIG    1       -3.673   2.053   0.048  0.00  0.00    +0.000 A 
ATOM      6  C   LIG    1       -3.622   3.441   0.056  0.00  0.00    +0.070 A 
ATOM      7  C   LIG    1       -2.415   4.103   0.048  0.00  0.00    +0.030 A 
ATOM      8  C   LIG    1       -1.224   3.371   0.032  0.00  0.00    +0.170 A 
ATOM      9  N   LIG    1       -0.022   3.981   0.024  0.00  0.00    -0.520 NA
ATOM     10  C   LIG    1        1.095   3.298   0.010  0.00  0.00    +0.370 A 
ATOM     11  N   LIG    1        1.133   1.931   0.002  0.00  0.00    -0.490 N 
ENDROOT
BRANCH  11  12
ATOM     12  C   LIG    1        2.369   1.268  -0.014  0.00  0.00    +0.050 A 
ATOM     13  C   LIG    1        2.970   0.946  -1.222  0.00  0.00    +0.120 A 
ATOM     14  C   LIG    1        4.187   0.293  -1.236  0.00  0.00    +0.010 A 
ATOM     15  C   LIG    1        4.809  -0.041  -0.045  0.00  0.00    +0.160 A 
ATOM     16  C   LIG    1        4.212   0.279   1.164  0.00  0.00    -0.030 A 
ATOM     17  F   LIG    1        5.999  -0.680  -0.061  0.00  0.00    -0.120 F 
ATOM     18  C   LIG    1        2.997   0.938   1.182  0.00  0.00    +0.160 A 
ATOM     19  F   LIG    1        2.417   1.254   2.361  0.00  0.00    -0.120 F 
ENDBRANCH  11  12
BRANCH  10  20
ATOM     20  S   LIG    1        2.620   4.180  -0.000  0.00  0.00    +0.020 S 
BRANCH  20  21
ATOM     21  C   LIG    1        1.999   5.880   0.016  0.00  0.00    +0.220 C 
BRANCH  21  22
ATOM     22  C   LIG    1        3.161   6.840   0.010  0.00  0.00    +0.060 A 
ATOM     23  C   LIG    1        3.777   7.340   1.104  0.00  0.00    +0.130 A 
ATOM     24  N   LIG    1        4.776   8.165   0.665  0.00  0.00    -0.360 N 
ATOM     25  C   LIG    1        5.704   8.922   1.321  0.00  0.00    +0.250 A 
ATOM     26  C   LIG    1        6.595   9.667   0.631  0.00  0.00    -0.060 A 
ATOM     27  C   LIG    1        6.577   9.672  -0.774  0.00  0.00    +0.060 A 
ATOM     28  C   LIG    1        5.657   8.922  -1.439  0.00  0.00    +0.100 A 
ATOM     29 CL   LIG    1        7.766  10.623   1.484  0.00  0.00    -0.030 Cl
ATOM     30  C   LIG    1        4.735   8.150  -0.705  0.00  0.00    +0.230 A 
ATOM     31  N   LIG    1        3.751   7.342  -1.077  0.00  0.00    -0.470 NA
ENDBRANCH  21  22
ENDBRANCH  20  21
ENDBRANCH  10  20
TORSDOF 4
