REMARK  Name = ZINCqH0000004WZZ.0
REMARK                            x       y       z     vdW  Elec       q    Type
REMARK                         _______ _______ _______ _____ _____    ______ ____
ROOT
ATOM      1  C   LIG    1       -0.099   6.275   0.032  0.00  0.00    +0.410 A 
ATOM      2  N   LIG    1        1.197   6.062   0.018  0.00  0.00    -0.600 NA
ATOM      3  C   LIG    1        1.741   4.830   0.009  0.00  0.00    +0.560 A 
ATOM      4  C   LIG    1        0.782   3.701   0.013  0.00  0.00    -0.220 A 
ATOM      5  C   LIG    1       -0.578   3.975   0.028  0.00  0.00    +0.050 A 
ATOM      6  S   LIG    1       -1.484   2.485   0.037  0.00  0.00    +0.180 S 
ATOM      7  C   LIG    1       -0.018   1.513   0.010  0.00  0.00    -0.200 A 
ATOM      8  C   LIG    1        0.002  -0.004   0.002  0.00  0.00    +0.120 C 
ATOM      9  C   LIG    1        1.392  -0.478  -0.428  0.00  0.00    +0.030 C 
ATOM     10  C   LIG    1        2.446   0.253   0.410  0.00  0.00    +0.020 C 
ATOM     11  C   LIG    1        2.491   1.722  -0.012  0.00  0.00    +0.110 C 
ATOM     12  C   LIG    1        1.076   2.285   0.004  0.00  0.00    -0.030 A 
ATOM     13  O   LIG    1        2.949   4.655  -0.003  0.00  0.00    -0.480 OA
ATOM     14  N   LIG    1       -1.035   5.280   0.037  0.00  0.00    -0.580 N 
ATOM     15  H   LIG    1       -1.984   5.482   0.048  0.00  0.00    +0.430 HD
ENDROOT
BRANCH   1  16
ATOM     16  S   LIG    1       -0.663   7.944   0.043  0.00  0.00    +0.080 S 
BRANCH  16  17
ATOM     17  C   LIG    1        0.924   8.813   0.031  0.00  0.00    +0.130 C 
BRANCH  17  20
ATOM     18  C   LIG    1        3.096  10.633   0.016  0.00  0.00    +0.290 C 
ATOM     19  N   LIG    1        1.727  11.152   0.031  0.00  0.00    -0.600 N 
ATOM     20  C   LIG    1        0.683  10.300   0.039  0.00  0.00    +0.530 C 
ATOM     21  O   LIG    1       -0.451  10.730   0.051  0.00  0.00    -0.530 OA
BRANCH  19  22
ATOM     22  C   LIG    1        1.492  12.598   0.039  0.00  0.00    +0.240 C 
ATOM     23  C   LIG    1        2.110  13.222  -1.214  0.00  0.00    +0.010 C 
ATOM     24  C   LIG    1        1.865  14.732  -1.207  0.00  0.00    +0.020 C 
ATOM     25  C   LIG    1        2.507  15.347   0.038  0.00  0.00    +0.010 C 
ATOM     26  C   LIG    1        1.889  14.723   1.292  0.00  0.00    +0.020 C 
ATOM     27  C   LIG    1        2.135  13.213   1.284  0.00  0.00    +0.010 C 
ENDBRANCH  19  22
ENDBRANCH  17  20
ENDBRANCH  16  17
ENDBRANCH   1  16
TORSDOF 4
