REMARK  Name = ZINCpe000000Zaai.1
REMARK                            x       y       z     vdW  Elec       q    Type
REMARK                         _______ _______ _______ _____ _____    ______ ____
ROOT
ATOM      1  C   LIG    1       -0.650   1.777  -0.995  0.00  0.00    -0.030 C 
ATOM      2  C   LIG    1       -0.019   1.069   0.206  0.00  0.00    +0.020 C 
ATOM      3  C   LIG    1       -0.845   1.357   1.462  0.00  0.00    +0.020 C 
ATOM      4  C   LIG    1       -2.265   0.814   1.271  0.00  0.00    +0.310 C 
ATOM      5  N   LIG    1       -2.826   1.380   0.037  0.00  0.00    -0.580 N 
ATOM      6  C   LIG    1       -2.068   1.239  -1.214  0.00  0.00    +0.290 C 
ENDROOT
BRANCH   5   7
ATOM      7  C   LIG    1       -4.034   2.028   0.052  0.00  0.00    +0.680 A 
ATOM      8  N   LIG    1       -4.631   2.235   1.204  0.00  0.00    -0.600 NA
ATOM      9  C   LIG    1       -5.810   2.868   1.271  0.00  0.00    +0.390 A 
ATOM     10  C   LIG    1       -6.425   3.309   0.088  0.00  0.00    -0.390 A 
ATOM     11  C   LIG    1       -5.771   3.074  -1.147  0.00  0.00    +0.600 A 
ATOM     12  O   LIG    1       -6.269   3.439  -2.198  0.00  0.00    -0.520 OA
ATOM     13  C   LIG    1       -7.639   3.926   0.456  0.00  0.00    +0.350 A 
ATOM     14  N   LIG    1       -7.754   3.866   1.753  0.00  0.00    -0.280 NA
ATOM     15  N   LIG    1       -6.637   3.216   2.293  0.00  0.00    -0.460 N 
ATOM     16  H   LIG    1       -6.480   3.043   3.235  0.00  0.00    +0.450 HD
ATOM     17  N   LIG    1       -4.581   2.433  -1.130  0.00  0.00    -0.670 N 
ATOM     18  H   LIG    1       -4.114   2.260  -1.962  0.00  0.00    +0.410 HD
ENDBRANCH   5   7
BRANCH   1  19
ATOM     19  C   LIG    1        0.194   1.516  -2.244  0.00  0.00    +0.280 C 
BRANCH  19  22
ATOM     20  O   LIG    1        2.166   1.427  -4.083  0.00  0.00    -0.520 OA
ATOM     21  C   LIG    1        2.432   2.031  -3.060  0.00  0.00    +0.610 C 
ATOM     22  N   LIG    1        1.513   2.133  -2.079  0.00  0.00    -0.720 N 
ATOM     23  H   LIG    1        1.725   2.614  -1.264  0.00  0.00    +0.410 HD
BRANCH  21  24
ATOM     24  C   LIG    1        3.752   2.648  -2.895  0.00  0.00    -0.090 A 
ATOM     25  C   LIG    1        4.771   2.617  -3.803  0.00  0.00    +0.050 A 
ATOM     26  C   LIG    1        5.838   3.333  -3.237  0.00  0.00    -0.060 A 
ATOM     27  C   LIG    1        5.431   3.756  -2.020  0.00  0.00    +0.210 A 
ATOM     28  O   LIG    1        4.173   3.342  -1.817  0.00  0.00    -0.170 OA
ENDBRANCH  21  24
ENDBRANCH  19  22
ENDBRANCH   1  19
TORSDOF 4
