REMARK  Name = ZINCpe000000Zaai.0
REMARK                            x       y       z     vdW  Elec       q    Type
REMARK                         _______ _______ _______ _____ _____    ______ ____
ROOT
ATOM      1  C   LIG    1        3.207   5.970   1.056  0.00  0.00    -0.030 C 
ATOM      2  C   LIG    1        4.579   5.293   1.052  0.00  0.00    +0.020 C 
ATOM      3  C   LIG    1        4.408   3.786   1.251  0.00  0.00    +0.030 C 
ATOM      4  C   LIG    1        3.582   3.213   0.094  0.00  0.00    +0.280 C 
ATOM      5  N   LIG    1        2.319   3.957   0.001  0.00  0.00    -0.590 N 
ATOM      6  C   LIG    1        2.368   5.421  -0.108  0.00  0.00    +0.340 C 
ENDROOT
BRANCH   5   7
ATOM      7  C   LIG    1        1.115   3.296   0.009  0.00  0.00    +0.670 A 
ATOM      8  N   LIG    1        0.022   4.011   0.039  0.00  0.00    -0.560 NA
ATOM      9  C   LIG    1       -1.206   3.427   0.049  0.00  0.00    +0.340 A 
ATOM     10  N   LIG    1       -2.443   3.864   0.077  0.00  0.00    -0.290 NA
ATOM     11  N   LIG    1       -3.315   2.768   0.072  0.00  0.00    -0.450 N 
ATOM     12  H   LIG    1       -4.283   2.827   0.089  0.00  0.00    +0.450 HD
ATOM     13  C   LIG    1       -2.612   1.627   0.041  0.00  0.00    +0.370 A 
ATOM     14  C   LIG    1       -1.279   1.957   0.018  0.00  0.00    -0.380 A 
ATOM     15  C   LIG    1       -0.015   1.213  -0.009  0.00  0.00    +0.610 A 
ATOM     16  O   LIG    1        0.002  -0.004  -0.030  0.00  0.00    -0.520 OA
ATOM     17  N   LIG    1        1.133   1.930  -0.015  0.00  0.00    -0.670 N 
ATOM     18  H   LIG    1        1.984   1.466  -0.037  0.00  0.00    +0.410 HD
ENDBRANCH   5   7
BRANCH   1  19
ATOM     19  C   LIG    1        3.381   7.481   0.891  0.00  0.00    +0.290 C 
BRANCH  19  22
ATOM     20  O   LIG    1        4.008  10.082   1.229  0.00  0.00    -0.520 OA
ATOM     21  C   LIG    1        4.350   9.341   2.131  0.00  0.00    +0.610 C 
ATOM     22  N   LIG    1        4.084   8.022   2.057  0.00  0.00    -0.720 N 
ATOM     23  H   LIG    1        4.357   7.431   2.776  0.00  0.00    +0.410 HD
BRANCH  21  24
ATOM     24  C   LIG    1        5.053   9.882   3.299  0.00  0.00    -0.090 A 
ATOM     25  C   LIG    1        5.389  11.191   3.497  0.00  0.00    +0.040 A 
ATOM     26  C   LIG    1        6.042  11.256   4.738  0.00  0.00    -0.060 A 
ATOM     27  C   LIG    1        6.083   9.999   5.232  0.00  0.00    +0.210 A 
ATOM     28  O   LIG    1        5.486   9.174   4.362  0.00  0.00    -0.170 OA
ENDBRANCH  21  24
ENDBRANCH  19  22
ENDBRANCH   1  19
TORSDOF 4
