REMARK  Name = ZINCqH0000002edQ.0
REMARK                            x       y       z     vdW  Elec       q    Type
REMARK                         _______ _______ _______ _____ _____    ______ ____
ROOT
ATOM      1  C   LIG    1       -1.821   3.743   2.505  0.00  0.00    -0.180 A 
ATOM      2  C   LIG    1       -1.885   2.932   3.641  0.00  0.00    +0.090 A 
ATOM      3  C   LIG    1       -2.555   3.371   4.761  0.00  0.00    -0.090 A 
ATOM      4  C   LIG    1       -3.176   4.614   4.759  0.00  0.00    +0.160 A 
ATOM      5  C   LIG    1       -3.119   5.421   3.629  0.00  0.00    -0.010 A 
ATOM      6  C   LIG    1       -2.447   4.992   2.506  0.00  0.00    +0.130 A 
ENDROOT
BRANCH   1   9
ATOM      7  N   LIG    1       -0.495   2.073   1.305  0.00  0.00    -0.720 N 
ATOM      8  H   LIG    1       -0.535   1.511   2.094  0.00  0.00    +0.400 HD
ATOM      9  C   LIG    1       -1.099   3.278   1.304  0.00  0.00    +0.560 C 
ATOM     10  O   LIG    1       -1.048   3.983   0.315  0.00  0.00    -0.530 OA
BRANCH   7  11
ATOM     11  C   LIG    1        0.221   1.612   0.113  0.00  0.00    +0.230 C 
BRANCH  11  13
ATOM     12  C   LIG    1       -1.155  -0.467  -0.040  0.00  0.00    +0.020 C 
ATOM     13  C   LIG    1        0.265   0.083   0.104  0.00  0.00    +0.020 C 
ENDBRANCH  11  13
BRANCH  11  14
ATOM     14  C   LIG    1        1.649   2.163   0.131  0.00  0.00    +0.000 C 
ATOM     15  C   LIG    1        1.608   3.688   0.015  0.00  0.00    +0.020 C 
ENDBRANCH  11  14
ENDBRANCH   7  11
ENDBRANCH   1   9
BRANCH   4  16
ATOM     16  O   LIG    1       -3.841   5.041   5.862  0.00  0.00    -0.280 OA
BRANCH  16  17
ATOM     17  C   LIG    1       -3.860   4.161   6.988  0.00  0.00    +0.220 C 
BRANCH  17  18
ATOM     18  C   LIG    1       -4.638   4.799   8.111  0.00  0.00    +0.520 C 
ATOM     19  N   LIG    1       -4.790   4.147   9.281  0.00  0.00    -0.600 N 
ATOM     20  C   LIG    1       -4.318   2.764   9.434  0.00  0.00    +0.220 C 
ATOM     21  C   LIG    1       -3.393   2.696  10.659  0.00  0.00    +0.020 C 
ATOM     22  C   LIG    1       -4.132   3.247  11.880  0.00  0.00    +0.020 C 
ATOM     23  C   LIG    1       -4.502   4.712  11.637  0.00  0.00    +0.020 C 
ATOM     24  C   LIG    1       -5.515   1.834   9.639  0.00  0.00    +0.030 C 
ATOM     25  C   LIG    1       -5.435   4.805  10.425  0.00  0.00    +0.220 C 
ATOM     26  C   LIG    1       -5.697   6.274  10.092  0.00  0.00    +0.050 C 
ATOM     27  O   LIG    1       -5.128   5.898   7.961  0.00  0.00    -0.500 OA
ENDBRANCH  17  18
ENDBRANCH  16  17
ENDBRANCH   4  16
TORSDOF 7
