REMARK  Name = ZINCc70000002u1V.0
REMARK                            x       y       z     vdW  Elec       q    Type
REMARK                         _______ _______ _______ _____ _____    ______ ____
ROOT
ATOM      1  C   LIG    1        1.228   3.579   0.010  0.00  0.00    +0.270 C 
ENDROOT
BRANCH   1   2
ATOM      2  C   LIG    1        1.170   2.073   0.002  0.00  0.00    +0.430 C 
ATOM      3  O   LIG    1        2.192   1.429  -0.011  0.00  0.00    -0.500 OA
BRANCH   2   4
ATOM      4  O   LIG    1       -0.018   1.448   0.010  0.00  0.00    -0.360 OA
BRANCH   4   6
ATOM      5  C   LIG    1       -1.433  -0.534   0.013  0.00  0.00    +0.070 C 
ATOM      6  C   LIG    1        0.002  -0.004   0.002  0.00  0.00    +0.200 C 
ENDBRANCH   4   6
ENDBRANCH   2   4
ENDBRANCH   1   2
BRANCH   1   7
ATOM      7  C   LIG    1        0.627   4.120  -1.289  0.00  0.00    -0.050 C 
ATOM      8  C   LIG    1        1.422   3.584  -2.481  0.00  0.00    +0.070 C 
BRANCH   7   9
ATOM      9  C   LIG    1        0.685   5.625  -1.282  0.00  0.00    +0.360 C 
ATOM     10  O   LIG    1        1.570   6.192  -0.687  0.00  0.00    -0.430 OA
ATOM     11  C   LIG    1       -0.361   6.424  -2.016  0.00  0.00    +0.070 C 
ENDBRANCH   7   9
ENDBRANCH   1   7
BRANCH   1  12
ATOM     12  O   LIG    1        2.589   4.003   0.116  0.00  0.00    -0.510 OA
ATOM     13  H   LIG    1        3.154   3.699  -0.608  0.00  0.00    +0.380 HD
ENDBRANCH   1  12
TORSDOF 6
