REMARK  Name = ZINCrH000004pBt4.0
REMARK                            x       y       z     vdW  Elec       q    Type
REMARK                         _______ _______ _______ _____ _____    ______ ____
ROOT
ATOM      1  N   LIG    1        0.093  -0.272   4.336  0.00  0.00    -0.520 NA
ATOM      2  C   LIG    1       -1.179  -0.024   3.644  0.00  0.00    +0.170 C 
ATOM      3  C   LIG    1       -1.164  -0.731   2.284  0.00  0.00    +0.300 C 
ATOM      4  N   LIG    1        0.037  -0.304   1.550  0.00  0.00    -1.000 NA
ATOM      5  C   LIG    1        1.339  -0.400   2.229  0.00  0.00    +0.310 C 
ATOM      6  C   LIG    1        1.224   0.299   3.592  0.00  0.00    +0.170 C 
ENDROOT
BRANCH   4   7
ATOM      7  S   LIG    1       -0.072   0.263  -0.002  0.00  0.00    +2.690 S 
ATOM      8  O   LIG    1        1.204   0.060  -0.594  0.00  0.00    -0.950 OA
ATOM      9  O   LIG    1       -1.273  -0.273  -0.541  0.00  0.00    -0.950 OA
BRANCH   7  10
ATOM     10  C   LIG    1       -0.305   2.007   0.095  0.00  0.00    -0.680 A 
ATOM     11  C   LIG    1        0.790   2.850   0.107  0.00  0.00    +0.160 A 
ATOM     12  C   LIG    1        0.608   4.218   0.183  0.00  0.00    +0.010 A 
ATOM     13  C   LIG    1       -0.669   4.743   0.246  0.00  0.00    +0.130 A 
ATOM     14  C   LIG    1       -1.765   3.899   0.232  0.00  0.00    -0.200 A 
ATOM     15  C   LIG    1       -1.582   2.532   0.152  0.00  0.00    +0.180 A 
BRANCH  14  16
ATOM     16  C   LIG    1       -3.157   4.471   0.300  0.00  0.00    +0.510 C 
ATOM     17  F   LIG    1       -3.808   3.980   1.437  0.00  0.00    -0.170 F 
ATOM     18  F   LIG    1       -3.871   4.098  -0.844  0.00  0.00    -0.170 F 
ATOM     19  F   LIG    1       -3.085   5.867   0.370  0.00  0.00    -0.170 F 
ENDBRANCH  14  16
ENDBRANCH   7  10
ENDBRANCH   4   7
BRANCH   1  21
ATOM     20  C   LIG    1        0.057   1.773   5.684  0.00  0.00    +0.000 C 
ATOM     21  C   LIG    1        0.053   0.243   5.711  0.00  0.00    +0.220 C 
BRANCH  21  22
ATOM     22  C   LIG    1        1.260  -0.249   6.467  0.00  0.00    -0.080 A 
ATOM     23  C   LIG    1        1.785  -1.499   6.194  0.00  0.00    +0.040 A 
ATOM     24  C   LIG    1        2.895  -1.948   6.884  0.00  0.00    +0.000 A 
ATOM     25  C   LIG    1        3.476  -1.151   7.853  0.00  0.00    +0.000 A 
ATOM     26  C   LIG    1        2.948   0.096   8.130  0.00  0.00    +0.000 A 
ATOM     27  C   LIG    1        1.841   0.547   7.436  0.00  0.00    +0.000 A 
ENDBRANCH  21  22
ENDBRANCH   1  21
TORSDOF 5
