REMARK  Name = ZINCrD000000fM6p.0
REMARK                            x       y       z     vdW  Elec       q    Type
REMARK                         _______ _______ _______ _____ _____    ______ ____
ROOT
ATOM      1  C   LIG    1        3.416   1.851  -1.504  0.00  0.00    +0.150 A 
ATOM      2  C   LIG    1        4.168   1.252  -2.504  0.00  0.00    +0.010 A 
ATOM      3  C   LIG    1        3.715   0.090  -3.099  0.00  0.00    +0.030 A 
ATOM      4  C   LIG    1        2.518  -0.468  -2.698  0.00  0.00    +0.000 A 
ATOM      5  C   LIG    1        1.761   0.129  -1.699  0.00  0.00    -0.090 A 
ATOM      6  C   LIG    1        0.460  -0.519  -1.302  0.00  0.00    +0.270 C 
ATOM      7  N   LIG    1        0.015  -0.021   0.003  0.00  0.00    -0.520 NA
ATOM      8  C   LIG    1       -0.013   1.451   0.004  0.00  0.00    +0.240 C 
ATOM      9  C   LIG    1        1.428   1.963  -0.005  0.00  0.00    +0.040 C 
ATOM     10  C   LIG    1        2.209   1.285  -1.100  0.00  0.00    -0.120 A 
ENDROOT
BRANCH   1  13
ATOM     11  C   LIG    1        5.301   5.046  -0.870  0.00  0.00    +0.110 C 
ATOM     12  C   LIG    1        4.713   3.845  -1.564  0.00  0.00    +0.510 C 
ATOM     13  N   LIG    1        3.871   3.028  -0.900  0.00  0.00    -0.670 N 
ATOM     14  H   LIG    1        3.581   3.256  -0.003  0.00  0.00    +0.410 HD
ATOM     15  O   LIG    1        4.997   3.612  -2.720  0.00  0.00    -0.520 OA
ENDBRANCH   1  13
BRANCH   7  16
ATOM     16  C   LIG    1        0.872  -0.531   1.081  0.00  0.00    +0.350 C 
BRANCH  16  17
ATOM     17  C   LIG    1        0.686  -2.022   1.208  0.00  0.00    +0.190 A 
ATOM     18  N   LIG    1        1.369  -2.946   0.580  0.00  0.00    -0.460 NA
ATOM     19  C   LIG    1        0.858  -4.125   1.002  0.00  0.00    +0.210 A 
ATOM     20  N   LIG    1       -0.097  -3.849   1.853  0.00  0.00    -0.360 NA
ATOM     21  O   LIG    1       -0.202  -2.648   1.985  0.00  0.00    +0.100 OA
BRANCH  19  22
ATOM     22  C   LIG    1        1.297  -5.478   0.580  0.00  0.00    -0.060 A 
ATOM     23  C   LIG    1        2.330  -5.621  -0.344  0.00  0.00    +0.090 A 
ATOM     24  C   LIG    1        2.738  -6.882  -0.729  0.00  0.00    +0.010 A 
ATOM     25  C   LIG    1        2.117  -8.003  -0.209  0.00  0.00    +0.070 A 
ATOM     26  C   LIG    1        1.088  -7.869   0.704  0.00  0.00    -0.020 A 
ATOM     27  C   LIG    1        0.673  -6.612   1.102  0.00  0.00    +0.130 A 
ATOM     28  F   LIG    1       -0.333  -6.481   1.994  0.00  0.00    -0.120 F 
ENDBRANCH  19  22
ENDBRANCH  16  17
ENDBRANCH   7  16
TORSDOF 4
