REMARK  Name = ZINCvU0000000FD6.0
REMARK                            x       y       z     vdW  Elec       q    Type
REMARK                         _______ _______ _______ _____ _____    ______ ____
ROOT
ATOM      1  C   LIG    1        6.150  -0.078  -4.620  0.00  0.00    +0.130 A 
ATOM      2  C   LIG    1        5.266   0.576  -5.397  0.00  0.00    -0.080 A 
ATOM      3  S   LIG    1        3.930   1.112  -4.380  0.00  0.00    +0.220 S 
ATOM      4  C   LIG    1        4.713   0.397  -2.974  0.00  0.00    +0.270 A 
ATOM      5  N   LIG    1        5.828  -0.157  -3.336  0.00  0.00    -0.500 NA
ENDROOT
BRANCH   1  11
ATOM      6  C   LIG    1       11.747  -2.894  -6.111  0.00  0.00    +0.190 A 
ATOM      7  C   LIG    1       11.427  -3.216  -4.793  0.00  0.00    -0.090 A 
ATOM      8  C   LIG    1       10.310  -2.698  -4.206  0.00  0.00    +0.140 A 
ATOM      9  C   LIG    1        9.472  -1.842  -4.934  0.00  0.00    -0.190 A 
ATOM     10  C   LIG    1        8.283  -1.331  -4.349  0.00  0.00    +0.190 A 
ATOM     11  C   LIG    1        7.396  -0.668  -5.162  0.00  0.00    -0.160 A 
ATOM     12  C   LIG    1        7.728  -0.571  -6.593  0.00  0.00    +0.530 A 
ATOM     13  O   LIG    1        9.036  -0.616  -6.943  0.00  0.00    -0.270 OA
ATOM     14  O   LIG    1        6.855  -0.451  -7.432  0.00  0.00    -0.430 OA
ATOM     15  C   LIG    1        9.807  -1.493  -6.256  0.00  0.00    +0.180 A 
ATOM     16  C   LIG    1       10.941  -2.034  -6.839  0.00  0.00    -0.020 A 
BRANCH   6  17
ATOM     17  O   LIG    1       12.856  -3.428  -6.684  0.00  0.00    -0.300 OA
BRANCH  17  18
ATOM     18  C   LIG    1       13.644  -4.307  -5.879  0.00  0.00    +0.190 C 
BRANCH  18  20
ATOM     19  C   LIG    1       15.686  -5.746  -5.829  0.00  0.00    +0.040 C 
ATOM     20  C   LIG    1       14.842  -4.805  -6.691  0.00  0.00    +0.030 C 
ENDBRANCH  18  20
ENDBRANCH  17  18
ENDBRANCH   6  17
ENDBRANCH   1  11
BRANCH   4  21
ATOM     21  N   LIG    1        4.210   0.417  -1.679  0.00  0.00    -0.620 N 
ATOM     22  H   LIG    1        4.705  -0.007  -0.960  0.00  0.00    +0.430 HD
ATOM     23  C   LIG    1        3.035   1.025  -1.421  0.00  0.00    +0.520 C 
ATOM     24  O   LIG    1        2.417   1.555  -2.320  0.00  0.00    -0.490 OA
BRANCH  23  25
ATOM     25  C   LIG    1        2.490   1.047  -0.017  0.00  0.00    +0.150 C 
BRANCH  25  26
ATOM     26  C   LIG    1        1.175   1.783   0.000  0.00  0.00    -0.110 A 
ATOM     27  C   LIG    1       -0.013   1.076   0.008  0.00  0.00    +0.050 A 
ATOM     28  C   LIG    1       -1.219   1.750   0.017  0.00  0.00    +0.000 A 
ATOM     29  C   LIG    1       -1.240   3.133   0.031  0.00  0.00    +0.050 A 
ATOM     30  C   LIG    1       -0.053   3.842   0.023  0.00  0.00    -0.010 A 
ATOM     31  C   LIG    1        1.156   3.167   0.008  0.00  0.00    +0.120 A 
ATOM     32  F   LIG    1        2.316   3.859   0.001  0.00  0.00    -0.140 F 
ENDBRANCH  25  26
ENDBRANCH  23  25
ENDBRANCH   4  21
TORSDOF 7
