REMARK  Name = ZINCvU00000005cr.0
REMARK                            x       y       z     vdW  Elec       q    Type
REMARK                         _______ _______ _______ _____ _____    ______ ____
ROOT
ATOM      1  C   LIG    1        1.138   0.482  -4.650  0.00  0.00    +0.260 A 
ATOM      2  N   LIG    1        1.859   0.978  -3.670  0.00  0.00    -0.260 NA
ATOM      3  N   LIG    1        1.318   0.694  -2.539  0.00  0.00    -0.270 NA
ATOM      4  C   LIG    1        0.218  -0.000  -2.726  0.00  0.00    +0.150 A 
ATOM      5  N   LIG    1        0.067  -0.166  -4.075  0.00  0.00    -0.460 N 
ATOM      6  C   LIG    1       -1.010  -0.880  -4.764  0.00  0.00    +0.350 C 
ENDROOT
BRANCH   1  13
ATOM      7  C   LIG    1        3.728   0.914 -10.240  0.00  0.00    -0.020 C 
ATOM      8  C   LIG    1        2.377   1.386 -10.787  0.00  0.00    +0.030 C 
ATOM      9  C   LIG    1        1.259   0.599 -10.096  0.00  0.00    +0.110 C 
ATOM     10  C   LIG    1        1.485   0.647  -8.599  0.00  0.00    -0.160 A 
ATOM     11  C   LIG    1        2.646   0.999  -8.008  0.00  0.00    -0.100 A 
ATOM     12  C   LIG    1        2.602   0.965  -6.622  0.00  0.00    +0.080 A 
ATOM     13  C   LIG    1        1.424   0.591  -6.090  0.00  0.00    -0.130 A 
ATOM     14  S   LIG    1        0.282   0.248  -7.381  0.00  0.00    +0.120 S 
ATOM     15  C   LIG    1        3.886   1.396  -8.797  0.00  0.00    +0.110 C 
BRANCH   7  17
ATOM     16  C   LIG    1        6.196   0.922 -10.630  0.00  0.00    +0.000 C 
ATOM     17  C   LIG    1        4.855   1.492 -11.099  0.00  0.00    +0.000 C 
ENDBRANCH   7  17
ENDBRANCH   1  13
BRANCH   4  18
ATOM     18  S   LIG    1       -0.857  -0.611  -1.471  0.00  0.00    +0.090 S 
BRANCH  18  19
ATOM     19  C   LIG    1        0.002  -0.004   0.002  0.00  0.00    +0.070 C 
BRANCH  19  20
ATOM     20  C   LIG    1       -0.018   1.503   0.010  0.00  0.00    -0.090 A 
ATOM     21  C   LIG    1       -1.225   2.178   0.020  0.00  0.00    +0.040 A 
ATOM     22  C   LIG    1       -1.244   3.560   0.032  0.00  0.00    +0.000 A 
ATOM     23  C   LIG    1       -0.056   4.267   0.025  0.00  0.00    +0.010 A 
ATOM     24  C   LIG    1        1.151   3.592   0.010  0.00  0.00    +0.000 A 
ATOM     25  C   LIG    1        1.169   2.210   0.003  0.00  0.00    +0.060 A 
ENDBRANCH  19  20
BRANCH  19  26
ATOM     26  C   LIG    1       -0.690  -0.523   1.236  0.00  0.00    +0.550 C 
ATOM     27  N   LIG    1       -0.034  -0.554   2.413  0.00  0.00    -0.690 N 
ATOM     28  H   LIG    1        0.883  -0.242   2.466  0.00  0.00    +0.410 HD
ATOM     29  O   LIG    1       -1.836  -0.912   1.171  0.00  0.00    -0.520 OA
BRANCH  27  30
ATOM     30  C   LIG    1       -0.707  -1.058   3.613  0.00  0.00    +0.220 C 
ATOM     31  C   LIG    1       -0.523  -0.268   4.911  0.00  0.00    +0.010 C 
ATOM     32  C   LIG    1        0.173  -1.619   4.733  0.00  0.00    +0.020 C 
ENDBRANCH  27  30
ENDBRANCH  19  26
ENDBRANCH  18  19
ENDBRANCH   4  18
TORSDOF 7
