REMARK  Name = ZINCAx0000000bg4.0
REMARK                            x       y       z     vdW  Elec       q    Type
REMARK                         _______ _______ _______ _____ _____    ______ ____
ROOT
ATOM      1  O   LIG    1       -0.979  -4.991   0.755  0.00  0.00    -0.330 OA
ENDROOT
BRANCH   1   2
ATOM      2  C   LIG    1        0.164  -4.302   0.558  0.00  0.00    +0.510 C 
ATOM      3  O   LIG    1        1.232  -4.883   0.561  0.00  0.00    -0.500 OA
BRANCH   2   5
ATOM      4  C   LIG    1        1.274  -2.155   0.141  0.00  0.00    +0.180 C 
ATOM      5  C   LIG    1        0.119  -2.851   0.340  0.00  0.00    -0.130 C 
BRANCH   4  11
ATOM      6  C   LIG    1        2.146   0.171   0.306  0.00  0.00    +0.150 A 
ATOM      7  C   LIG    1        2.085   1.507  -0.057  0.00  0.00    -0.080 A 
ATOM      8  C   LIG    1        1.120   1.942  -0.944  0.00  0.00    +0.070 A 
ATOM      9  C   LIG    1        0.205   1.049  -1.480  0.00  0.00    -0.030 A 
ATOM     10  C   LIG    1        0.248  -0.283  -1.133  0.00  0.00    +0.090 A 
ATOM     11  C   LIG    1        1.221  -0.739  -0.234  0.00  0.00    -0.110 A 
BRANCH   6  13
ATOM     12  C   LIG    1        4.000   0.726   1.684  0.00  0.00    +0.250 C 
ATOM     13  O   LIG    1        3.094  -0.257   1.177  0.00  0.00    -0.310 OA
ENDBRANCH   6  13
ENDBRANCH   4  11
BRANCH   5  14
ATOM     14  C   LIG    1       -1.182  -2.143   0.336  0.00  0.00    -0.030 A 
ATOM     15  C   LIG    1       -1.488  -1.234   1.349  0.00  0.00    +0.020 A 
ATOM     16  C   LIG    1       -2.699  -0.573   1.337  0.00  0.00    +0.000 A 
ATOM     17  C   LIG    1       -3.614  -0.819   0.329  0.00  0.00    +0.000 A 
ATOM     18  C   LIG    1       -3.319  -1.724  -0.676  0.00  0.00    +0.000 A 
ATOM     19  C   LIG    1       -2.109  -2.387  -0.677  0.00  0.00    +0.020 A 
ENDBRANCH   5  14
ENDBRANCH   2   5
ENDBRANCH   1   2
BRANCH   1  20
ATOM     20  C   LIG    1       -0.858  -6.423   0.964  0.00  0.00    +0.260 C 
BRANCH  20  21
ATOM     21  C   LIG    1       -2.228  -7.018   1.165  0.00  0.00    +0.440 C 
ATOM     22  O   LIG    1       -3.210  -6.305   1.135  0.00  0.00    -0.490 OA
BRANCH  21  23
ATOM     23  C   LIG    1       -2.369  -8.404   1.388  0.00  0.00    -0.460 A 
ATOM     24  C   LIG    1       -3.620  -8.966   1.696  0.00  0.00    +0.560 A 
ATOM     25  N   LIG    1       -3.706 -10.313   1.903  0.00  0.00    -0.540 N 
ATOM     26  C   LIG    1       -2.624 -11.103   1.819  0.00  0.00    +0.710 A 
ATOM     27  N   LIG    1       -1.404 -10.623   1.528  0.00  0.00    -0.560 N 
ATOM     28  C   LIG    1       -0.265 -11.542   1.452  0.00  0.00    +0.350 C 
ATOM     29  O   LIG    1       -2.753 -12.296   2.013  0.00  0.00    -0.520 OA
ATOM     30  C   LIG    1       -1.214  -9.307   1.301  0.00  0.00    +0.580 A 
ATOM     31  O   LIG    1       -0.107  -8.877   1.033  0.00  0.00    -0.500 OA
BRANCH  24  32
ATOM     32  N   LIG    1       -4.727  -8.180   1.785  0.00  0.00    -0.790 N 
ATOM     33  H   LIG    1       -5.566  -8.558   2.094  0.00  0.00    +0.410 HD
ATOM     34  H   LIG    1       -4.678  -7.243   1.541  0.00  0.00    +0.440 HD
ENDBRANCH  24  32
BRANCH  25  35
ATOM     35  C   LIG    1       -5.006 -10.908   2.224  0.00  0.00    +0.310 C 
BRANCH  35  36
ATOM     36  C   LIG    1       -5.714 -11.315   0.930  0.00  0.00    -0.030 C 
ATOM     37  C   LIG    1       -7.120 -11.821   1.256  0.00  0.00    +0.040 C 
ATOM     38  C   LIG    1       -4.919 -12.426   0.242  0.00  0.00    +0.040 C 
ENDBRANCH  35  36
ENDBRANCH  25  35
ENDBRANCH  21  23
ENDBRANCH  20  21
ENDBRANCH   1  20
TORSDOF 11
