REMARK  Name = ZINCrD0000075GTF.0
REMARK                            x       y       z     vdW  Elec       q    Type
REMARK                         _______ _______ _______ _____ _____    ______ ____
ROOT
ATOM      1  C   LIG    1       -1.186   8.694   0.057  0.00  0.00    +0.300 C 
ENDROOT
BRANCH   1   2
ATOM      2  C   LIG    1       -0.525   9.908   0.657  0.00  0.00    -0.140 A 
ATOM      3  C   LIG    1        0.794  10.194   0.356  0.00  0.00    +0.070 A 
ATOM      4  C   LIG    1        1.401  11.310   0.900  0.00  0.00    -0.050 A 
ATOM      5  C   LIG    1        0.690  12.136   1.758  0.00  0.00    +0.120 A 
ATOM      6  C   LIG    1       -0.632  11.843   2.062  0.00  0.00    +0.010 A 
ATOM      7  C   LIG    1       -1.236  10.730   1.511  0.00  0.00    +0.090 A 
BRANCH   5   8
ATOM      8  O   LIG    1        1.286  13.231   2.298  0.00  0.00    -0.320 OA
BRANCH   8   9
ATOM      9  C   LIG    1        2.648  13.471   1.940  0.00  0.00    +0.600 C 
ATOM     10  F   LIG    1        2.744  13.636   0.554  0.00  0.00    -0.200 F 
ATOM     11  F   LIG    1        3.433  12.382   2.335  0.00  0.00    -0.200 F 
ENDBRANCH   8   9
ENDBRANCH   5   8
ENDBRANCH   1   2
BRANCH   1  14
ATOM     12  O   LIG    1       -1.887   6.089   0.051  0.00  0.00    -0.530 OA
ATOM     13  C   LIG    1       -0.690   6.308   0.041  0.00  0.00    +0.610 C 
ATOM     14  N   LIG    1       -0.237   7.578   0.042  0.00  0.00    -0.720 N 
ATOM     15  H   LIG    1        0.717   7.752   0.034  0.00  0.00    +0.410 HD
BRANCH  13  16
ATOM     16  C   LIG    1        0.260   5.191   0.026  0.00  0.00    -0.280 A 
ATOM     17  C   LIG    1       -0.058   3.819   0.022  0.00  0.00    +0.120 A 
ATOM     18  C   LIG    1       -1.266   3.113   0.030  0.00  0.00    +0.140 A 
ATOM     19  C   LIG    1       -1.238   1.748   0.018  0.00  0.00    +0.010 A 
ATOM     20  C   LIG    1       -0.013   1.076   0.008  0.00  0.00    +0.330 A 
ATOM     21  N   LIG    1        1.117   1.736   0.001  0.00  0.00    -0.210 NA
ATOM     22  N   LIG    1        1.126   3.136   0.008  0.00  0.00    -0.170 N 
ATOM     23  N   LIG    1        2.163   4.075   0.002  0.00  0.00    -0.250 NA
ATOM     24  C   LIG    1        1.660   5.284   0.013  0.00  0.00    +0.310 A 
ENDBRANCH  13  16
ENDBRANCH   1  14
BRANCH   1  25
ATOM     25  C   LIG    1       -1.627   9.008  -1.374  0.00  0.00    +0.440 C 
ATOM     26  F   LIG    1       -0.509   9.356  -2.140  0.00  0.00    -0.180 F 
ATOM     27  F   LIG    1       -2.533  10.074  -1.360  0.00  0.00    -0.180 F 
ATOM     28  F   LIG    1       -2.241   7.881  -1.931  0.00  0.00    -0.170 F 
ENDBRANCH   1  25
TORSDOF 6
