REMARK  Name = ZINCvU00000005yQ.1
REMARK                            x       y       z     vdW  Elec       q    Type
REMARK                         _______ _______ _______ _____ _____    ______ ____
ROOT
ATOM      1  C   LIG    1       -0.395   6.257  -0.707  0.00  0.00    +0.170 A 
ATOM      2  C   LIG    1        0.764   5.905  -1.397  0.00  0.00    +0.030 A 
ATOM      3  C   LIG    1        1.249   6.702  -2.393  0.00  0.00    +0.100 A 
ATOM      4  C   LIG    1        0.588   7.891  -2.721  0.00  0.00    +0.040 A 
ATOM      5  N   LIG    1        0.825   8.865  -3.634  0.00  0.00    -0.450 NA
ATOM      6  C   LIG    1       -0.101   9.787  -3.545  0.00  0.00    +0.310 A 
ATOM      7  N   LIG    1       -0.995   9.454  -2.562  0.00  0.00    -0.590 N 
ATOM      8  H   LIG    1       -1.774   9.966  -2.294  0.00  0.00    +0.420 HD
ATOM      9  C   LIG    1       -0.578   8.252  -2.022  0.00  0.00    +0.080 A 
ATOM     10  C   LIG    1       -1.064   7.430  -1.016  0.00  0.00    -0.010 A 
ENDROOT
BRANCH   6  11
ATOM     11  C   LIG    1       -0.173  11.004  -4.382  0.00  0.00    -0.020 A 
ATOM     12  C   LIG    1       -1.212  11.918  -4.203  0.00  0.00    +0.040 A 
ATOM     13  C   LIG    1       -1.270  13.054  -4.984  0.00  0.00    +0.030 A 
ATOM     14  C   LIG    1       -0.307  13.284  -5.950  0.00  0.00    +0.050 A 
ATOM     15  C   LIG    1        0.723  12.380  -6.137  0.00  0.00    +0.030 A 
ATOM     16  C   LIG    1        0.797  11.242  -5.359  0.00  0.00    +0.000 A 
ATOM     17 CL   LIG    1        2.091  10.109  -5.595  0.00  0.00    -0.020 Cl
ENDBRANCH   6  11
BRANCH   1  19
ATOM     18  C   LIG    1       -0.788   4.087   0.184  0.00  0.00    +0.540 C 
ATOM     19  N   LIG    1       -0.880   5.425   0.308  0.00  0.00    -0.660 N 
ATOM     20  H   LIG    1       -1.284   5.812   1.101  0.00  0.00    +0.410 HD
ATOM     21  O   LIG    1       -0.206   3.603  -0.768  0.00  0.00    -0.490 OA
BRANCH  18  27
ATOM     22  C   LIG    1       -1.410   1.823   1.017  0.00  0.00    -0.610 A 
ATOM     23  C   LIG    1       -1.973   1.006   1.976  0.00  0.00    +0.130 A 
ATOM     24  C   LIG    1       -2.527   1.556   3.119  0.00  0.00    +0.030 A 
ATOM     25  C   LIG    1       -2.520   2.926   3.308  0.00  0.00    +0.070 A 
ATOM     26  C   LIG    1       -1.961   3.754   2.356  0.00  0.00    +0.040 A 
ATOM     27  C   LIG    1       -1.395   3.206   1.204  0.00  0.00    -0.050 A 
BRANCH  22  28
ATOM     28  S   LIG    1       -0.704   1.120  -0.437  0.00  0.00    +2.500 S 
ATOM     29  O   LIG    1       -0.964  -0.271  -0.315  0.00  0.00    -0.950 OA
ATOM     30  O   LIG    1       -1.263   1.880  -1.500  0.00  0.00    -0.910 OA
BRANCH  28  32
ATOM     31  C   LIG    1        1.636   0.670   0.905  0.00  0.00    +0.070 C 
ATOM     32  C   LIG    1        1.073   1.452  -0.283  0.00  0.00    -0.410 C 
ATOM     33  C   LIG    1        1.785   1.016  -1.565  0.00  0.00    +0.090 C 
ENDBRANCH  28  32
ENDBRANCH  22  28
ENDBRANCH  18  27
ENDBRANCH   1  19
TORSDOF 5
