REMARK  Name = ZINCvU00000005yq.0
REMARK                            x       y       z     vdW  Elec       q    Type
REMARK                         _______ _______ _______ _____ _____    ______ ____
ROOT
ATOM      1  C   LIG    1       -2.829   3.663   0.235  0.00  0.00    +0.160 A 
ATOM      2  N   LIG    1       -3.397   2.491   0.057  0.00  0.00    -0.290 NA
ATOM      3  N   LIG    1       -2.501   1.594  -0.155  0.00  0.00    -0.240 NA
ATOM      4  C   LIG    1       -1.306   2.136  -0.126  0.00  0.00    +0.220 A 
ATOM      5  N   LIG    1       -1.478   3.478   0.130  0.00  0.00    -0.400 N 
ENDROOT
BRANCH   4   6
ATOM      6  C   LIG    1       -0.019   1.436  -0.325  0.00  0.00    -0.000 A 
ATOM      7  C   LIG    1        0.949   1.978  -1.172  0.00  0.00    +0.070 A 
ATOM      8  C   LIG    1        2.151   1.323  -1.349  0.00  0.00    +0.050 A 
ATOM      9  C   LIG    1        2.398   0.132  -0.688  0.00  0.00    -0.010 A 
ATOM     10  C   LIG    1        1.442  -0.411   0.153  0.00  0.00    +0.050 A 
ATOM     11 CL   LIG    1        3.913  -0.685  -0.916  0.00  0.00    -0.050 Cl
ATOM     12  C   LIG    1        0.235   0.234   0.339  0.00  0.00    +0.010 A 
ATOM     13 CL   LIG    1       -0.962  -0.448   1.395  0.00  0.00    -0.030 Cl
ENDBRANCH   4   6
BRANCH   5  14
ATOM     14  C   LIG    1       -0.477   4.452   0.254  0.00  0.00    +0.090 A 
ATOM     15  C   LIG    1        0.041   4.762   1.505  0.00  0.00    -0.040 A 
ATOM     16  C   LIG    1        1.030   5.719   1.623  0.00  0.00    +0.030 A 
ATOM     17  C   LIG    1        1.498   6.375   0.499  0.00  0.00    +0.040 A 
ATOM     18  C   LIG    1        0.980   6.072  -0.747  0.00  0.00    +0.030 A 
ATOM     19  C   LIG    1       -0.006   5.113  -0.872  0.00  0.00    -0.050 A 
BRANCH  15  20
ATOM     20  C   LIG    1       -0.472   4.052   2.731  0.00  0.00    +0.060 C 
ATOM     21  C   LIG    1        0.281   2.732   2.908  0.00  0.00    +0.030 C 
ENDBRANCH  15  20
BRANCH  19  22
ATOM     22  C   LIG    1       -0.569   4.784  -2.231  0.00  0.00    +0.050 C 
ATOM     23  C   LIG    1       -1.842   5.598  -2.466  0.00  0.00    +0.030 C 
ENDBRANCH  19  22
ENDBRANCH   5  14
BRANCH   1  24
ATOM     24  S   LIG    1       -3.655   5.186   0.555  0.00  0.00    +0.100 S 
BRANCH  24  25
ATOM     25  C   LIG    1       -5.374   4.619   0.551  0.00  0.00    +0.100 C 
BRANCH  25  28
ATOM     26  N   LIG    1       -7.623   5.602   0.856  0.00  0.00    -0.720 N 
ATOM     27  H   LIG    1       -7.995   4.716   0.718  0.00  0.00    +0.410 HD
ATOM     28  C   LIG    1       -6.289   5.787   0.813  0.00  0.00    +0.530 C 
ATOM     29  O   LIG    1       -5.825   6.894   0.985  0.00  0.00    -0.520 OA
BRANCH  26  30
ATOM     30  C   LIG    1       -8.513   6.737   1.110  0.00  0.00    +0.260 C 
BRANCH  30  32
ATOM     31  C   LIG    1      -10.895   7.444   1.373  0.00  0.00    +0.030 C 
ATOM     32  C   LIG    1       -9.966   6.258   1.107  0.00  0.00    +0.000 C 
ENDBRANCH  30  32
ENDBRANCH  26  30
ENDBRANCH  25  28
ENDBRANCH  24  25
ENDBRANCH   1  24
TORSDOF 9
