REMARK  Name = ZINCAx0000000ieM.0
REMARK                            x       y       z     vdW  Elec       q    Type
REMARK                         _______ _______ _______ _____ _____    ______ ____
ROOT
ATOM      1  C   LIG    1       -2.554   1.919   0.162  0.00  0.00    +0.260 C 
ENDROOT
BRANCH   1   2
ATOM      2  C   LIG    1       -3.176   2.821   1.230  0.00  0.00    +0.010 C 
ATOM      3  C   LIG    1       -2.620   2.443   2.607  0.00  0.00    +0.010 C 
ATOM      4  C   LIG    1       -3.306   3.296   3.677  0.00  0.00    +0.200 C 
ATOM      5  O   LIG    1       -4.720   3.098   3.608  0.00  0.00    -0.380 OA
ATOM      6  C   LIG    1       -5.302   3.478   2.360  0.00  0.00    +0.200 C 
ATOM      7  C   LIG    1       -4.696   2.633   1.237  0.00  0.00    -0.010 C 
ENDBRANCH   1   2
BRANCH   1   8
ATOM      8  C   LIG    1       -1.078   2.207   0.059  0.00  0.00    -0.030 A 
ATOM      9  C   LIG    1       -0.068   1.314   0.175  0.00  0.00    +0.200 A 
ATOM     10  N   LIG    1        1.077   2.015   0.008  0.00  0.00    -0.280 N 
ATOM     11  N   LIG    1        0.769   3.249  -0.190  0.00  0.00    -0.080 NA
ATOM     12  N   LIG    1       -0.509   3.397  -0.163  0.00  0.00    -0.260 NA
BRANCH  10  13
ATOM     13  C   LIG    1        2.434   1.465   0.046  0.00  0.00    +0.270 C 
BRANCH  13  14
ATOM     14  C   LIG    1        2.430   0.079  -0.545  0.00  0.00    +0.520 C 
ATOM     15  O   LIG    1        1.416  -0.367  -1.039  0.00  0.00    -0.520 OA
ATOM     16  N   LIG    1        3.554  -0.665  -0.526  0.00  0.00    -0.840 N 
ATOM     17  H   LIG    1        3.533  -1.584  -0.836  0.00  0.00    +0.420 HD
ATOM     18  H   LIG    1        4.384  -0.282  -0.202  0.00  0.00    +0.410 HD
ENDBRANCH  13  14
BRANCH  13  19
ATOM     19  C   LIG    1        2.918   1.400   1.496  0.00  0.00    +0.100 C 
BRANCH  19  20
ATOM     20  C   LIG    1        3.044   2.797   2.046  0.00  0.00    -0.090 A 
ATOM     21  C   LIG    1        4.197   3.526   1.826  0.00  0.00    +0.010 A 
ATOM     22  C   LIG    1        4.311   4.809   2.327  0.00  0.00    +0.000 A 
ATOM     23  C   LIG    1        3.274   5.359   3.058  0.00  0.00    +0.010 A 
ATOM     24  C   LIG    1        2.123   4.629   3.283  0.00  0.00    +0.010 A 
ATOM     25  C   LIG    1        2.007   3.347   2.777  0.00  0.00    +0.010 A 
ENDBRANCH  19  20
ENDBRANCH  13  19
ENDBRANCH  10  13
ENDBRANCH   1   8
BRANCH   1  26
ATOM     26  N   LIG    1       -2.753   0.511   0.533  0.00  0.00    -0.680 NA
ATOM     27  H   LIG    1       -3.617   0.389   1.038  0.00  0.00    +0.350 HD
BRANCH  26  28
ATOM     28  C   LIG    1       -2.708  -0.356  -0.652  0.00  0.00    +0.250 C 
BRANCH  28  31
ATOM     29  C   LIG    1       -4.633  -3.517   0.109  0.00  0.00    +0.140 A 
ATOM     30  C   LIG    1       -4.338  -2.213  -0.261  0.00  0.00    +0.060 A 
ATOM     31  C   LIG    1       -3.029  -1.772  -0.250  0.00  0.00    -0.040 A 
ATOM     32  C   LIG    1       -2.013  -2.631   0.126  0.00  0.00    +0.090 A 
ATOM     33  C   LIG    1       -2.305  -3.930   0.501  0.00  0.00    -0.000 A 
ATOM     34  C   LIG    1       -3.612  -4.375   0.491  0.00  0.00    +0.010 A 
BRANCH  33  35
ATOM     35  N   LIG    1       -1.215  -4.845   0.908  0.00  0.00    +0.030 N 
ATOM     36  O   LIG    1       -0.062  -4.452   0.917  0.00  0.00    -0.150 OA
ATOM     37  O   LIG    1       -1.471  -5.990   1.234  0.00  0.00    -0.160 OA
ENDBRANCH  33  35
BRANCH  29  39
ATOM     38  C   LIG    1       -6.150  -5.308   0.491  0.00  0.00    +0.250 C 
ATOM     39  O   LIG    1       -5.921  -3.953   0.098  0.00  0.00    -0.300 OA
ENDBRANCH  29  39
ENDBRANCH  28  31
ENDBRANCH  26  28
ENDBRANCH   1  26
TORSDOF 11
