REMARK  Name = ZINCkj000005j0Yk.1
REMARK                            x       y       z     vdW  Elec       q    Type
REMARK                         _______ _______ _______ _____ _____    ______ ____
ROOT
ATOM      1  C   LIG    1        0.109   0.015   0.458  0.00  0.00    +0.510 C 
ATOM      2  N   LIG    1        0.052   1.358   0.358  0.00  0.00    -0.640 N 
ATOM      3  H   LIG    1        0.838   1.858   0.087  0.00  0.00    +0.420 HD
ATOM      4  O   LIG    1       -0.840  -0.601   0.893  0.00  0.00    -0.510 OA
ENDROOT
BRANCH   2   5
ATOM      5  C   LIG    1       -1.142   2.031   0.641  0.00  0.00    +0.120 A 
ATOM      6  C   LIG    1       -1.108   3.287   1.233  0.00  0.00    +0.040 A 
ATOM      7  C   LIG    1       -2.285   3.959   1.510  0.00  0.00    +0.060 A 
ATOM      8  C   LIG    1       -3.501   3.381   1.209  0.00  0.00    +0.070 A 
ATOM      9  C   LIG    1       -3.546   2.116   0.619  0.00  0.00    -0.000 A 
ATOM     10  C   LIG    1       -2.358   1.441   0.335  0.00  0.00    +0.070 A 
BRANCH   9  11
ATOM     11  C   LIG    1       -4.807   1.513   0.307  0.00  0.00    +0.240 C 
ATOM     12  N   LIG    1       -5.808   1.035   0.059  0.00  0.00    -0.390 NA
ENDBRANCH   9  11
ENDBRANCH   2   5
BRANCH   1  14
ATOM     13  C   LIG    1        1.679  -0.365  -1.424  0.00  0.00    +0.110 C 
ATOM     14  C   LIG    1        1.352  -0.720   0.028  0.00  0.00    +0.180 C 
BRANCH  14  15
ATOM     15  N   LIG    1        1.128  -2.168   0.139  0.00  0.00    -0.370 N 
ATOM     16  C   LIG    1        0.121  -2.583  -0.845  0.00  0.00    +0.250 C 
ATOM     17  C   LIG    1       -0.177  -4.074  -0.677  0.00  0.00    +0.040 C 
ATOM     18  C   LIG    1        1.111  -4.873  -0.897  0.00  0.00    +0.170 C 
ATOM     19  C   LIG    1        2.179  -4.380   0.083  0.00  0.00    +0.080 C 
ATOM     20  C   LIG    1        2.388  -2.877  -0.111  0.00  0.00    +0.280 C 
ATOM     21  H   LIG    1        0.799  -2.385   1.068  0.00  0.00    +0.430 HD
BRANCH  18  22
ATOM     22  O   LIG    1        0.858  -6.261  -0.671  0.00  0.00    -0.550 OA
ATOM     23  H   LIG    1        0.190  -6.639  -1.259  0.00  0.00    +0.390 HD
ENDBRANCH  18  22
ENDBRANCH  14  15
ENDBRANCH   1  14
TORSDOF 5
