REMARK  Name = ZINCpk000000mYj1.1
REMARK                            x       y       z     vdW  Elec       q    Type
REMARK                         _______ _______ _______ _____ _____    ______ ____
ROOT
ATOM      1  C   LIG    1        3.694   2.186   0.093  0.00  0.00    +0.570 C 
ATOM      2  N   LIG    1        3.680   3.531   0.176  0.00  0.00    -0.610 N 
ATOM      3  C   LIG    1        4.921   4.319   0.085  0.00  0.00    +0.320 C 
ATOM      4  C   LIG    1        4.829   5.190  -1.166  0.00  0.00    +0.100 C 
ATOM      5  C   LIG    1        3.497   5.894  -1.236  0.00  0.00    +0.220 A 
ATOM      6  C   LIG    1        2.407   5.473  -0.554  0.00  0.00    -0.220 A 
ATOM      7  C   LIG    1        1.192   6.161  -0.680  0.00  0.00    +0.210 A 
ATOM      8  C   LIG    1        1.117   7.280  -1.500  0.00  0.00    -0.160 A 
ATOM      9  C   LIG    1        2.288   7.694  -2.187  0.00  0.00    +0.540 A 
ATOM     10  O   LIG    1        2.261   8.675  -2.910  0.00  0.00    -0.530 OA
ATOM     11  N   LIG    1        3.426   7.000  -2.033  0.00  0.00    -0.600 N 
ATOM     12  H   LIG    1        4.223   7.292  -2.503  0.00  0.00    +0.420 HD
ATOM     13  C   LIG    1        2.429   4.274   0.354  0.00  0.00    +0.360 C 
ATOM     14  O   LIG    1        4.752   1.592   0.012  0.00  0.00    -0.520 OA
ENDROOT
BRANCH   1  18
ATOM     15  C   LIG    1        0.040   0.020   0.116  0.00  0.00    +0.170 A 
ATOM     16  C   LIG    1        0.180   1.154   0.910  0.00  0.00    -0.010 A 
ATOM     17  C   LIG    1        1.363   1.858   0.905  0.00  0.00    +0.060 A 
ATOM     18  C   LIG    1        2.424   1.433   0.101  0.00  0.00    -0.150 A 
ATOM     19  C   LIG    1        2.280   0.293  -0.695  0.00  0.00    +0.100 A 
ATOM     20  C   LIG    1        1.095  -0.406  -0.685  0.00  0.00    +0.010 A 
BRANCH  15  23
ATOM     21  C   LIG    1       -2.832  -2.150  -0.969  0.00  0.00    +0.100 C 
ATOM     22  C   LIG    1       -1.599  -1.283  -1.004  0.00  0.00    +0.510 C 
ATOM     23  N   LIG    1       -1.159  -0.691   0.124  0.00  0.00    -0.680 N 
ATOM     24  H   LIG    1       -1.677  -0.759   0.942  0.00  0.00    +0.420 HD
ATOM     25  O   LIG    1       -1.003  -1.119  -2.047  0.00  0.00    -0.520 OA
ENDBRANCH  15  23
ENDBRANCH   1  18
BRANCH   8  26
ATOM     26  C   LIG    1       -0.113   7.999  -1.650  0.00  0.00    +0.270 C 
ATOM     27  N   LIG    1       -1.088   8.568  -1.768  0.00  0.00    -0.410 NA
ENDBRANCH   8  26
TORSDOF 3
