REMARK  Name = ZINCtV000002NVkD.0
REMARK                            x       y       z     vdW  Elec       q    Type
REMARK                         _______ _______ _______ _____ _____    ______ ____
ROOT
ATOM      1  C   LIG    1        1.955  -4.178  -0.201  0.00  0.00    -0.280 A 
ATOM      2  C   LIG    1        2.323  -2.858  -0.039  0.00  0.00    +0.300 A 
ATOM      3  N   LIG    1        1.206  -2.111  -0.077  0.00  0.00    -0.300 N 
ATOM      4  N   LIG    1        0.095  -2.937  -0.274  0.00  0.00    -0.270 NA
ATOM      5  C   LIG    1        0.496  -4.186  -0.353  0.00  0.00    +0.190 A 
ENDROOT
BRANCH   5   6
ATOM      6  C   LIG    1       -0.363  -5.376  -0.559  0.00  0.00    -0.050 A 
ATOM      7  C   LIG    1        0.100  -6.450  -1.318  0.00  0.00    +0.130 A 
ATOM      8  C   LIG    1       -0.700  -7.558  -1.502  0.00  0.00    -0.020 A 
ATOM      9  C   LIG    1       -1.968  -7.601  -0.942  0.00  0.00    +0.120 A 
ATOM     10  C   LIG    1       -2.434  -6.534  -0.191  0.00  0.00    -0.030 A 
ATOM     11  F   LIG    1       -2.750  -8.685  -1.130  0.00  0.00    -0.140 F 
ATOM     12  C   LIG    1       -1.638  -5.423   0.002  0.00  0.00    +0.090 A 
ENDBRANCH   5   6
BRANCH   3  13
ATOM     13  C   LIG    1        1.162  -0.717   0.053  0.00  0.00    +0.140 A 
ATOM     14  C   LIG    1       -0.054  -0.050  -0.009  0.00  0.00    +0.030 A 
ATOM     15  C   LIG    1       -0.094   1.324   0.120  0.00  0.00    +0.050 A 
ATOM     16  C   LIG    1        1.076   2.036   0.312  0.00  0.00    +0.010 A 
ATOM     17  C   LIG    1        2.288   1.375   0.374  0.00  0.00    +0.050 A 
ATOM     18  C   LIG    1        2.335   0.001   0.245  0.00  0.00    -0.010 A 
ENDBRANCH   3  13
BRANCH   1  20
ATOM     19  O   LIG    1        2.390  -6.462  -0.378  0.00  0.00    -0.500 OA
ATOM     20  C   LIG    1        2.850  -5.347  -0.221  0.00  0.00    +0.600 C 
ATOM     21  N   LIG    1        4.178  -5.182  -0.067  0.00  0.00    -0.670 N 
ATOM     22  H   LIG    1        4.553  -4.288  -0.018  0.00  0.00    +0.410 HD
BRANCH  21  23
ATOM     23  C   LIG    1        5.016  -6.298   0.024  0.00  0.00    +0.180 A 
ATOM     24  C   LIG    1        4.562  -7.460   0.633  0.00  0.00    +0.040 A 
ATOM     25  C   LIG    1        5.391  -8.564   0.716  0.00  0.00    -0.000 A 
ATOM     26  C   LIG    1        6.675  -8.507   0.204  0.00  0.00    +0.030 A 
ATOM     27  C   LIG    1        7.132  -7.348  -0.398  0.00  0.00    -0.000 A 
ATOM     28 CL   LIG    1        8.744  -7.280  -1.038  0.00  0.00    -0.050 Cl
ATOM     29 CL   LIG    1        4.821 -10.021   1.470  0.00  0.00    -0.050 Cl
ATOM     30  C   LIG    1        6.306  -6.243  -0.489  0.00  0.00    +0.000 A 
ENDBRANCH  21  23
ENDBRANCH   1  20
TORSDOF 4
