REMARK  Name = ZINCrg000000qAfW.0
REMARK                            x       y       z     vdW  Elec       q    Type
REMARK                         _______ _______ _______ _____ _____    ______ ____
ROOT
ATOM      1  N   LIG    1       -0.020   1.652   0.011  0.00  0.00    -1.120 NA
ATOM      2  C   LIG    1        1.137   2.341   0.004  0.00  0.00    +0.530 C 
ATOM      3  O   LIG    1        2.196   1.749  -0.009  0.00  0.00    -0.620 OA
ENDROOT
BRANCH   2   4
ATOM      4  C   LIG    1        1.117   3.848   0.012  0.00  0.00    +0.000 C 
ATOM      5  C   LIG    1        2.518   4.483   0.002  0.00  0.00    +0.090 C 
ATOM      6  C   LIG    1        1.951   5.527  -0.975  0.00  0.00    +0.230 C 
ATOM      7  C   LIG    1        0.912   4.469  -1.380  0.00  0.00    +0.100 C 
BRANCH   6   8
ATOM      8  N   LIG    1        1.372   6.698  -0.311  0.00  0.00    -0.250 N 
ATOM      9  C   LIG    1        0.108   6.796   0.164  0.00  0.00    +0.210 A 
ATOM     10  C   LIG    1       -0.001   8.037   0.693  0.00  0.00    -0.120 A 
ATOM     11  N   LIG    1        1.185   8.630   0.518  0.00  0.00    -0.250 NA
ATOM     12  N   LIG    1        1.978   7.808  -0.075  0.00  0.00    -0.050 NA
BRANCH  10  13
ATOM     13  C   LIG    1       -1.219   8.633   1.349  0.00  0.00    +0.400 C 
BRANCH  13  14
ATOM     14  N   LIG    1       -1.133   8.446   2.804  0.00  0.00    -0.640 N 
ATOM     15  H   LIG    1       -1.086   7.460   3.014  0.00  0.00    +0.440 HD
ATOM     16  H   LIG    1       -1.949   8.846   3.243  0.00  0.00    +0.440 HD
ATOM     17  H   LIG    1       -0.304   8.904   3.153  0.00  0.00    +0.440 HD
ENDBRANCH  13  14
ENDBRANCH  10  13
ENDBRANCH   6   8
ENDBRANCH   2   4
BRANCH   1  18
ATOM     18  S   LIG    1        0.002  -0.004   0.002  0.00  0.00    +2.670 S 
ATOM     19  O   LIG    1        0.564  -0.405   1.244  0.00  0.00    -1.000 OA
ATOM     20  O   LIG    1        0.540  -0.391  -1.255  0.00  0.00    -0.990 OA
BRANCH  18  24
ATOM     21  C   LIG    1       -3.445  -2.010   0.025  0.00  0.00    +0.090 A 
ATOM     22  C   LIG    1       -4.162  -0.881   0.037  0.00  0.00    -0.230 A 
ATOM     23  S   LIG    1       -3.081   0.506   0.034  0.00  0.00    +0.340 S 
ATOM     24  C   LIG    1       -1.674  -0.548   0.015  0.00  0.00    -0.740 A 
ATOM     25 BR   LIG    1       -6.050  -0.791   0.056  0.00  0.00    +0.030 Br
ATOM     26  C   LIG    1       -2.068  -1.825   0.007  0.00  0.00    +0.170 A 
BRANCH  21  28
ATOM     27  C   LIG    1       -4.306  -3.828  -1.250  0.00  0.00    +0.230 C 
ATOM     28  O   LIG    1       -4.020  -3.245   0.024  0.00  0.00    -0.310 OA
ENDBRANCH  21  28
BRANCH  26  29
ATOM     29  O   LIG    1       -1.188  -2.865  -0.014  0.00  0.00    -0.320 OA
ATOM     30  C   LIG    1       -0.754  -3.373   1.249  0.00  0.00    +0.240 C 
ENDBRANCH  26  29
ENDBRANCH  18  24
ENDBRANCH   1  18
TORSDOF 8
