REMARK  Name = ZINCrD0000074GQS.0
REMARK                            x       y       z     vdW  Elec       q    Type
REMARK                         _______ _______ _______ _____ _____    ______ ____
ROOT
ATOM      1  N   LIG    1       -2.508   2.266   4.570  0.00  0.00    -0.670 N 
ATOM      2  H   LIG    1       -3.439   2.517   4.468  0.00  0.00    +0.420 HD
ATOM      3  C   LIG    1       -1.847   2.579   5.702  0.00  0.00    +0.520 C 
ATOM      4  O   LIG    1       -0.658   2.353   5.792  0.00  0.00    -0.500 OA
ENDROOT
BRANCH   1   9
ATOM      5  C   LIG    1        0.154  -0.514   0.403  0.00  0.00    +0.140 C 
ATOM      6  C   LIG    1       -0.553   0.224   1.510  0.00  0.00    -0.030 A 
ATOM      7  C   LIG    1        0.134   1.157   2.265  0.00  0.00    +0.050 A 
ATOM      8  C   LIG    1       -0.512   1.836   3.280  0.00  0.00    +0.100 A 
ATOM      9  C   LIG    1       -1.851   1.580   3.543  0.00  0.00    +0.140 A 
ATOM     10  C   LIG    1       -2.538   0.641   2.783  0.00  0.00    +0.080 A 
ATOM     11  C   LIG    1       -1.888  -0.030   1.766  0.00  0.00    -0.030 A 
BRANCH  11  12
ATOM     12  N   LIG    1       -2.621  -1.025   0.951  0.00  0.00    +0.030 N 
ATOM     13  O   LIG    1       -2.022  -1.703   0.135  0.00  0.00    -0.150 OA
ATOM     14  O   LIG    1       -3.821  -1.167   1.098  0.00  0.00    -0.170 OA
ENDBRANCH  11  12
ENDBRANCH   1   9
BRANCH   3  15
ATOM     15  C   LIG    1       -2.583   3.209   6.856  0.00  0.00    +0.220 C 
BRANCH  15  16
ATOM     16  N   LIG    1       -1.647   3.450   7.961  0.00  0.00    -0.520 NA
ATOM     17  C   LIG    1       -1.151   2.184   8.518  0.00  0.00    +0.190 C 
ATOM     18  C   LIG    1       -0.120   2.478   9.610  0.00  0.00    +0.210 C 
ATOM     19  N   LIG    1       -0.742   3.302  10.657  0.00  0.00    -0.490 N 
ATOM     20  C   LIG    1       -1.238   4.568  10.101  0.00  0.00    +0.200 C 
ATOM     21  C   LIG    1       -2.268   4.274   9.008  0.00  0.00    +0.200 C 
BRANCH  19  22
ATOM     22  C   LIG    1        0.149   3.532  11.709  0.00  0.00    +0.120 A 
ATOM     23  C   LIG    1        1.492   3.208  11.566  0.00  0.00    -0.020 A 
ATOM     24  C   LIG    1        2.371   3.442  12.606  0.00  0.00    +0.040 A 
ATOM     25  C   LIG    1        1.914   3.987  13.792  0.00  0.00    +0.000 A 
ATOM     26  C   LIG    1        0.576   4.305  13.940  0.00  0.00    +0.050 A 
ATOM     27  C   LIG    1       -0.308   4.079  12.902  0.00  0.00    -0.050 A 
ATOM     28 CL   LIG    1       -1.987   4.479  13.088  0.00  0.00    -0.060 Cl
ENDBRANCH  19  22
ENDBRANCH  15  16
ENDBRANCH   3  15
TORSDOF 5
