REMARK  Name = ZINCkj000005ljzc.0
REMARK                            x       y       z     vdW  Elec       q    Type
REMARK                         _______ _______ _______ _____ _____    ______ ____
ROOT
ATOM      1  S   LIG    1        3.626   3.825  -0.013  0.00  0.00    +2.690 S 
ATOM      2  O   LIG    1        5.043   3.926  -0.051  0.00  0.00    -0.940 OA
ATOM      3  O   LIG    1        2.826   4.484   0.959  0.00  0.00    -0.940 OA
ENDROOT
BRANCH   1   4
ATOM      4  C   LIG    1        3.253   2.108   0.118  0.00  0.00    -0.690 A 
ATOM      5  C   LIG    1        2.340   1.671   1.029  0.00  0.00    +0.190 A 
ATOM      6  C   LIG    1        2.032   0.317   1.145  0.00  0.00    +0.000 A 
ATOM      7  C   LIG    1        2.635  -0.612   0.353  0.00  0.00    +0.140 A 
ATOM      8  C   LIG    1        3.582  -0.200  -0.598  0.00  0.00    -0.140 A 
ATOM      9  C   LIG    1        4.236  -1.111  -1.443  0.00  0.00    +0.340 A 
ATOM     10  N   LIG    1        5.115  -0.677  -2.317  0.00  0.00    -0.490 NA
ATOM     11  C   LIG    1        5.425   0.605  -2.447  0.00  0.00    +0.280 A 
ATOM     12  C   LIG    1        4.846   1.567  -1.676  0.00  0.00    -0.060 A 
ATOM     13  C   LIG    1        3.894   1.180  -0.716  0.00  0.00    +0.060 A 
ENDBRANCH   1   4
BRANCH   1  17
ATOM     14  C   LIG    1        2.437   6.154  -3.559  0.00  0.00    +0.180 C 
ATOM     15  C   LIG    1        1.593   6.099  -2.283  0.00  0.00    +0.050 C 
ATOM     16  C   LIG    1        1.668   4.691  -1.686  0.00  0.00    +0.320 C 
ATOM     17  N   LIG    1        3.080   4.334  -1.491  0.00  0.00    -1.000 NA
ATOM     18  C   LIG    1        4.000   4.444  -2.631  0.00  0.00    +0.320 C 
ATOM     19  C   LIG    1        3.898   5.850  -3.220  0.00  0.00    +0.050 C 
BRANCH  14  20
ATOM     20  N   LIG    1        2.341   7.494  -4.153  0.00  0.00    -0.640 N 
ATOM     21  H   LIG    1        1.378   7.694  -4.377  0.00  0.00    +0.440 HD
ATOM     22  H   LIG    1        2.897   7.530  -4.994  0.00  0.00    +0.440 HD
ATOM     23  H   LIG    1        2.682   8.178  -3.495  0.00  0.00    +0.430 HD
ENDBRANCH  14  20
ENDBRANCH   1  17
TORSDOF 3
