REMARK  Name = ZINCrH000004pzuh.0
REMARK                            x       y       z     vdW  Elec       q    Type
REMARK                         _______ _______ _______ _____ _____    ______ ____
ROOT
ATOM      1  C   LIG    1        2.361   1.590  -1.307  0.00  0.00    +0.100 C 
ATOM      2  C   LIG    1        1.754   2.096   0.003  0.00  0.00    +0.030 C 
ENDROOT
BRANCH   2   3
ATOM      3  C   LIG    1        1.987   3.580   0.124  0.00  0.00    +0.540 C 
ATOM      4  N   LIG    1        3.183   4.043   0.538  0.00  0.00    -0.660 N 
ATOM      5  H   LIG    1        3.872   3.422   0.822  0.00  0.00    +0.420 HD
ATOM      6  O   LIG    1        1.097   4.358  -0.150  0.00  0.00    -0.500 OA
BRANCH   4   7
ATOM      7  C   LIG    1        3.431   5.422   0.559  0.00  0.00    +0.150 A 
ATOM      8  C   LIG    1        4.700   5.902   0.267  0.00  0.00    +0.010 A 
ATOM      9  C   LIG    1        4.946   7.263   0.281  0.00  0.00    +0.060 A 
ATOM     10  C   LIG    1        3.929   8.149   0.598  0.00  0.00    +0.020 A 
ATOM     11  O   LIG    1        3.913   9.512   0.685  0.00  0.00    -0.310 OA
ATOM     12  C   LIG    1        2.728   9.834   1.437  0.00  0.00    +0.430 C 
ATOM     13  O   LIG    1        1.843   8.730   1.171  0.00  0.00    -0.310 OA
ATOM     14  C   LIG    1        2.656   7.669   0.897  0.00  0.00    +0.050 A 
ATOM     15  C   LIG    1        2.410   6.306   0.877  0.00  0.00    +0.050 A 
ENDBRANCH   4   7
ENDBRANCH   2   3
BRANCH   2  16
ATOM     16  S   LIG    1       -0.025   1.761   0.013  0.00  0.00    +0.050 S 
BRANCH  16  17
ATOM     17  C   LIG    1       -0.004  -0.001   0.015  0.00  0.00    +0.180 A 
ATOM     18  N   LIG    1        1.069  -0.756   0.003  0.00  0.00    -0.490 NA
ATOM     19  C   LIG    1        0.703  -2.049   0.012  0.00  0.00    +0.150 A 
ATOM     20  C   LIG    1       -0.640  -2.108   0.020  0.00  0.00    +0.140 A 
ATOM     21  N   LIG    1       -1.099  -0.810   0.021  0.00  0.00    -0.440 N 
BRANCH  21  22
ATOM     22  C   LIG    1       -2.499  -0.381   0.030  0.00  0.00    +0.350 C 
BRANCH  22  23
ATOM     23  C   LIG    1       -2.952  -0.116  -1.383  0.00  0.00    -0.120 A 
ATOM     24  C   LIG    1       -2.815   1.148  -1.927  0.00  0.00    +0.040 A 
ATOM     25  C   LIG    1       -3.225   1.389  -3.225  0.00  0.00    +0.010 A 
ATOM     26  C   LIG    1       -3.783   0.371  -3.975  0.00  0.00    +0.020 A 
ATOM     27  C   LIG    1       -3.925  -0.891  -3.429  0.00  0.00    +0.010 A 
ATOM     28  C   LIG    1       -3.509  -1.134  -2.133  0.00  0.00    +0.020 A 
ENDBRANCH  22  23
ENDBRANCH  21  22
ENDBRANCH  16  17
ENDBRANCH   2  16
TORSDOF 6
