REMARK  Name = ZINCpk00000xI1g9.0
REMARK                            x       y       z     vdW  Elec       q    Type
REMARK                         _______ _______ _______ _____ _____    ______ ____
ROOT
ATOM      1  C   LIG    1        0.033  -3.298  -1.561  0.00  0.00    +0.310 C 
ATOM      2  C   LIG    1        1.478  -3.637  -1.991  0.00  0.00    +0.160 C 
ATOM      3  C   LIG    1        1.896  -4.662  -0.912  0.00  0.00    +0.080 C 
ATOM      4  C   LIG    1        0.587  -5.252  -0.433  0.00  0.00    +0.530 C 
ATOM      5  O   LIG    1        0.479  -6.279   0.202  0.00  0.00    -0.530 OA
ATOM      6  N   LIG    1       -0.439  -4.471  -0.815  0.00  0.00    -0.610 N 
ATOM      7  C   LIG    1       -1.846  -4.755  -0.524  0.00  0.00    +0.310 C 
ENDROOT
BRANCH   1  10
ATOM      8  C   LIG    1       -0.030  -0.323  -2.525  0.00  0.00    +0.150 C 
ATOM      9  C   LIG    1       -0.003  -0.792  -1.093  0.00  0.00    +0.100 A 
ATOM     10  C   LIG    1        0.024  -2.079  -0.676  0.00  0.00    -0.260 A 
ATOM     11  C   LIG    1        0.037  -2.077   0.723  0.00  0.00    +0.250 A 
ATOM     12  N   LIG    1        0.024  -0.834   1.130  0.00  0.00    -0.290 NA
ATOM     13  N   LIG    1        0.002  -0.004   0.002  0.00  0.00    -0.370 N 
ATOM     14  C   LIG    1       -0.018   1.461   0.010  0.00  0.00    +0.360 C 
ENDBRANCH   1  10
BRANCH   2  15
ATOM     15  N   LIG    1        1.500  -4.243  -3.329  0.00  0.00    -0.670 NA
ATOM     16  H   LIG    1        0.745  -3.890  -3.899  0.00  0.00    +0.350 HD
BRANCH  15  17
ATOM     17  C   LIG    1        2.798  -4.029  -3.983  0.00  0.00    +0.320 C 
BRANCH  17  18
ATOM     18  C   LIG    1        2.783  -4.664  -5.349  0.00  0.00    +0.170 A 
ATOM     19  N   LIG    1        2.420  -4.092  -6.459  0.00  0.00    -0.380 NA
ATOM     20  O   LIG    1        2.523  -4.869  -7.384  0.00  0.00    +0.080 OA
ATOM     21  C   LIG    1        2.974  -6.046  -6.940  0.00  0.00    +0.190 A 
ATOM     22  N   LIG    1        3.147  -5.924  -5.646  0.00  0.00    -0.460 NA
BRANCH  21  23
ATOM     23  C   LIG    1        3.238  -7.277  -7.769  0.00  0.00    +0.030 C 
ATOM     24  C   LIG    1        4.712  -7.668  -7.645  0.00  0.00    +0.070 C 
ATOM     25  C   LIG    1        2.908  -6.986  -9.234  0.00  0.00    +0.070 C 
ATOM     26  C   LIG    1        2.361  -8.427  -7.268  0.00  0.00    +0.070 C 
ENDBRANCH  21  23
ENDBRANCH  17  18
ENDBRANCH  15  17
ENDBRANCH   2  15
TORSDOF 5
