REMARK  Name = ZINCpe000000TAFy.0
REMARK                            x       y       z     vdW  Elec       q    Type
REMARK                         _______ _______ _______ _____ _____    ______ ____
ROOT
ATOM      1  N   LIG    1        0.814   2.038   1.169  0.00  0.00    -0.750 N 
ATOM      2  H   LIG    1        0.773   3.007   1.158  0.00  0.00    +0.400 HD
ATOM      3  C   LIG    1       -0.283   1.314   0.870  0.00  0.00    +0.710 C 
ATOM      4  N   LIG    1       -1.459   1.934   0.647  0.00  0.00    -0.630 N 
ATOM      5  C   LIG    1       -1.531   3.401   0.580  0.00  0.00    +0.260 C 
ATOM      6  C   LIG    1       -2.172   3.794  -0.762  0.00  0.00    +0.280 C 
ATOM      7  N   LIG    1       -3.407   3.016  -0.936  0.00  0.00    -0.600 N 
ATOM      8  C   LIG    1       -3.336   1.550  -0.864  0.00  0.00    +0.290 C 
ATOM      9  C   LIG    1       -4.583   3.636  -1.160  0.00  0.00    +0.610 C 
ATOM     10  O   LIG    1       -5.615   2.993  -1.182  0.00  0.00    -0.530 OA
ATOM     11  C   LIG    1       -2.693   1.156   0.472  0.00  0.00    +0.300 C 
ATOM     12  O   LIG    1       -0.211   0.103   0.797  0.00  0.00    -0.590 OA
ENDROOT
BRANCH   9  13
ATOM     13  C   LIG    1       -4.618   5.094  -1.377  0.00  0.00    -0.070 A 
ATOM     14  C   LIG    1       -5.733   5.865  -1.497  0.00  0.00    +0.050 A 
ATOM     15  O   LIG    1       -5.321   7.131  -1.682  0.00  0.00    -0.190 OA
ATOM     16  C   LIG    1       -3.976   7.138  -1.684  0.00  0.00    +0.300 A 
ATOM     17  C   LIG    1       -7.161   5.389  -1.432  0.00  0.00    +0.210 C 
ATOM     18  N   LIG    1       -3.543   5.917  -1.502  0.00  0.00    -0.460 NA
BRANCH  16  19
ATOM     19  C   LIG    1       -3.125   8.334  -1.864  0.00  0.00    -0.180 A 
ATOM     20  C   LIG    1       -3.560   9.615  -2.061  0.00  0.00    +0.300 A 
ATOM     21  N   LIG    1       -2.473  10.401  -2.174  0.00  0.00    -0.360 N 
ATOM     22  N   LIG    1       -1.334   9.596  -2.055  0.00  0.00    -0.290 NA
ATOM     23  C   LIG    1       -2.481  11.850  -2.390  0.00  0.00    +0.370 C 
ATOM     24  C   LIG    1       -1.714   8.361  -1.869  0.00  0.00    +0.300 A 
ENDBRANCH  16  19
ENDBRANCH   9  13
BRANCH   1  26
ATOM     25  C   LIG    1        3.147   2.404   1.804  0.00  0.00    +0.030 C 
ATOM     26  C   LIG    1        2.067   1.361   1.510  0.00  0.00    +0.270 C 
ENDBRANCH   1  26
TORSDOF 3
