REMARK  Name = ZINCvU0000000610.0
REMARK                            x       y       z     vdW  Elec       q    Type
REMARK                         _______ _______ _______ _____ _____    ______ ____
ROOT
ATOM      1  C   LIG    1       -7.291   3.851  -0.339  0.00  0.00    +0.140 A 
ATOM      2  C   LIG    1       -7.291   5.240  -0.319  0.00  0.00    +0.020 A 
ATOM      3  C   LIG    1       -6.099   5.934  -0.228  0.00  0.00    +0.040 A 
ATOM      4  C   LIG    1       -4.902   5.252  -0.152  0.00  0.00    +0.030 A 
ATOM      5  C   LIG    1       -4.891   3.856  -0.178  0.00  0.00    -0.120 A 
ATOM      6  C   LIG    1       -6.094   3.156  -0.269  0.00  0.00    +0.090 A 
ENDROOT
BRANCH   1   8
ATOM      7  C   LIG    1       -8.655   1.983   0.222  0.00  0.00    +0.520 C 
ATOM      8  N   LIG    1       -8.501   3.153  -0.431  0.00  0.00    -0.680 N 
ATOM      9  H   LIG    1       -9.228   3.510  -0.963  0.00  0.00    +0.410 HD
ATOM     10  O   LIG    1       -7.720   1.494   0.819  0.00  0.00    -0.500 OA
BRANCH   7  11
ATOM     11  C   LIG    1       -9.990   1.283   0.208  0.00  0.00    +0.130 C 
BRANCH  11  17
ATOM     12  C   LIG    1      -10.067   0.035   2.381  0.00  0.00    +0.140 A 
ATOM     13  C   LIG    1       -9.986  -1.142   3.111  0.00  0.00    -0.080 A 
ATOM     14  C   LIG    1       -9.723  -2.336   2.468  0.00  0.00    +0.050 A 
ATOM     15  C   LIG    1       -9.547  -2.360   1.097  0.00  0.00    -0.030 A 
ATOM     16  C   LIG    1       -9.633  -1.188   0.366  0.00  0.00    +0.060 A 
ATOM     17  C   LIG    1       -9.896   0.008   1.005  0.00  0.00    -0.110 A 
BRANCH  12  19
ATOM     18  C   LIG    1      -10.486   1.163   4.432  0.00  0.00    +0.250 C 
ATOM     19  O   LIG    1      -10.320   1.211   3.013  0.00  0.00    -0.320 OA
ENDBRANCH  12  19
ENDBRANCH  11  17
ENDBRANCH   7  11
ENDBRANCH   1   8
BRANCH   5  20
ATOM     20  C   LIG    1       -3.610   3.123  -0.102  0.00  0.00    +0.560 C 
ATOM     21  N   LIG    1       -2.449   3.802  -0.014  0.00  0.00    -0.670 N 
ATOM     22  H   LIG    1       -2.457   4.768   0.074  0.00  0.00    +0.410 HD
ATOM     23  O   LIG    1       -3.603   1.907  -0.120  0.00  0.00    -0.510 OA
BRANCH  21  24
ATOM     24  C   LIG    1       -1.232   3.114  -0.050  0.00  0.00    +0.150 A 
ATOM     25  C   LIG    1       -1.104   1.966  -0.821  0.00  0.00    +0.050 A 
ATOM     26  C   LIG    1        0.098   1.286  -0.850  0.00  0.00    +0.040 A 
ATOM     27  C   LIG    1        1.176   1.753  -0.121  0.00  0.00    +0.050 A 
ATOM     28  C   LIG    1        1.054   2.898   0.644  0.00  0.00    -0.160 A 
ATOM     29  C   LIG    1       -0.147   3.580   0.681  0.00  0.00    +0.040 A 
BRANCH  28  30
ATOM     30  C   LIG    1        2.231   3.404   1.437  0.00  0.00    +0.510 C 
ATOM     31  F   LIG    1        1.901   3.432   2.796  0.00  0.00    -0.180 F 
ATOM     32  F   LIG    1        2.561   4.695   1.010  0.00  0.00    -0.180 F 
ATOM     33  F   LIG    1        3.325   2.554   1.240  0.00  0.00    -0.170 F 
ENDBRANCH  28  30
ENDBRANCH  21  24
ENDBRANCH   5  20
TORSDOF 7
