REMARK  Name = ZINCrD000000fAla.0
REMARK                            x       y       z     vdW  Elec       q    Type
REMARK                         _______ _______ _______ _____ _____    ______ ____
ROOT
ATOM      1  C   LIG    1        5.203   5.906  -2.994  0.00  0.00    +0.480 A 
ATOM      2  N   LIG    1        5.747   5.290  -4.032  0.00  0.00    -0.590 NA
ATOM      3  C   LIG    1        6.469   5.953  -4.933  0.00  0.00    +0.420 A 
ATOM      4  N   LIG    1        6.699   7.250  -4.848  0.00  0.00    -0.550 NA
ATOM      5  C   LIG    1        6.197   7.964  -3.831  0.00  0.00    +0.190 A 
ATOM      6  C   LIG    1        6.422   9.342  -3.712  0.00  0.00    +0.030 A 
ATOM      7  C   LIG    1        5.888  10.022  -2.657  0.00  0.00    +0.060 A 
ATOM      8  C   LIG    1        5.122   9.368  -1.696  0.00  0.00    +0.000 A 
ATOM      9  C   LIG    1        4.884   8.028  -1.783  0.00  0.00    +0.050 A 
ATOM     10  C   LIG    1        5.417   7.301  -2.852  0.00  0.00    -0.200 A 
ENDROOT
BRANCH   3  11
ATOM     11  C   LIG    1        7.044   5.203  -6.075  0.00  0.00    -0.100 A 
ATOM     12  C   LIG    1        7.812   5.858  -7.041  0.00  0.00    +0.120 A 
ATOM     13  C   LIG    1        8.327   5.112  -8.088  0.00  0.00    -0.040 A 
ATOM     14  C   LIG    1        8.066   3.755  -8.144  0.00  0.00    +0.270 A 
ATOM     15  N   LIG    1        7.336   3.164  -7.217  0.00  0.00    -0.490 NA
ATOM     16  C   LIG    1        6.830   3.831  -6.200  0.00  0.00    +0.320 A 
ENDBRANCH   3  11
BRANCH   1  17
ATOM     17  N   LIG    1        4.452   5.209  -2.071  0.00  0.00    -0.690 N 
ATOM     18  H   LIG    1        4.063   5.672  -1.313  0.00  0.00    +0.410 HD
BRANCH  17  19
ATOM     19  C   LIG    1        4.243   3.768  -2.236  0.00  0.00    +0.280 C 
BRANCH  19  25
ATOM     20  C   LIG    1       -1.330   1.944   0.019  0.00  0.00    +0.090 C 
ATOM     21  C   LIG    1       -0.014   1.209   0.009  0.00  0.00    +0.510 C 
ATOM     22  N   LIG    1        1.143   1.898   0.001  0.00  0.00    -0.620 N 
ATOM     23  C   LIG    1        1.140   3.368   0.003  0.00  0.00    +0.270 C 
ATOM     24  C   LIG    1        1.988   3.869  -1.165  0.00  0.00    +0.020 C 
ATOM     25  C   LIG    1        3.382   3.243  -1.085  0.00  0.00    -0.020 C 
ATOM     26  C   LIG    1        3.267   1.721  -1.188  0.00  0.00    +0.020 C 
ATOM     27  C   LIG    1        2.433   1.195  -0.015  0.00  0.00    +0.280 C 
ATOM     28  O   LIG    1        0.002  -0.004   0.002  0.00  0.00    -0.540 OA
ENDBRANCH  19  25
ENDBRANCH  17  19
ENDBRANCH   1  17
TORSDOF 4
