REMARK  Name = ZINCpe00000MDmjy.2
REMARK                            x       y       z     vdW  Elec       q    Type
REMARK                         _______ _______ _______ _____ _____    ______ ____
ROOT
ATOM      1  N   LIG    1        4.065   1.742   0.939  0.00  0.00    -0.490 NA
ATOM      2  C   LIG    1        5.282   2.333   0.326  0.00  0.00    +0.180 C 
ATOM      3  C   LIG    1        4.903   2.448  -1.172  0.00  0.00    +0.020 C 
ATOM      4  C   LIG    1        4.075   1.166  -1.419  0.00  0.00    +0.020 C 
ATOM      5  C   LIG    1        3.572   0.738  -0.028  0.00  0.00    +0.210 C 
ENDROOT
BRANCH   5   6
ATOM      6  C   LIG    1        2.066   0.708  -0.014  0.00  0.00    -0.220 A 
ATOM      7  C   LIG    1        1.292  -0.402  -0.012  0.00  0.00    +0.080 A 
ATOM      8  N   LIG    1        0.002  -0.004   0.002  0.00  0.00    -0.380 N 
ATOM      9  N   LIG    1       -0.017   1.397   0.010  0.00  0.00    -0.300 NA
ATOM     10  C   LIG    1       -1.171  -0.882   0.008  0.00  0.00    +0.340 C 
ATOM     11  C   LIG    1        1.782  -1.827  -0.025  0.00  0.00    +0.140 C 
ATOM     12  C   LIG    1        1.220   1.822   0.000  0.00  0.00    +0.110 A 
ATOM     13  C   LIG    1        1.659   3.264   0.004  0.00  0.00    +0.160 C 
ENDBRANCH   5   6
BRANCH   1  14
ATOM     14  C   LIG    1        4.377   1.119   2.232  0.00  0.00    +0.190 C 
BRANCH  14  22
ATOM     15  C   LIG    1        7.341  -1.008   7.933  0.00  0.00    +0.090 C 
ATOM     16  C   LIG    1        7.630   0.379   7.419  0.00  0.00    +0.510 C 
ATOM     17  N   LIG    1        7.242   0.733   6.178  0.00  0.00    -0.620 N 
ATOM     18  C   LIG    1        7.518   2.082   5.664  0.00  0.00    +0.280 C 
ATOM     19  C   LIG    1        6.196   2.713   5.212  0.00  0.00    +0.280 C 
ATOM     20  N   LIG    1        5.489   1.757   4.348  0.00  0.00    -0.620 N 
ATOM     21  C   LIG    1        5.208   0.410   4.864  0.00  0.00    +0.270 C 
ATOM     22  C   LIG    1        5.101   2.111   3.107  0.00  0.00    +0.520 C 
ATOM     23  O   LIG    1        5.333   3.227   2.693  0.00  0.00    -0.520 OA
ATOM     24  C   LIG    1        6.536  -0.224   5.314  0.00  0.00    +0.270 C 
ATOM     25  O   LIG    1        8.213   1.177   8.123  0.00  0.00    -0.540 OA
ENDBRANCH  14  22
ENDBRANCH   1  14
TORSDOF 3
