REMARK  Name = ZINC650000002yQ7.0
REMARK                            x       y       z     vdW  Elec       q    Type
REMARK                         _______ _______ _______ _____ _____    ______ ____
ROOT
ATOM      1  C   LIG    1       -1.233  -0.535   0.732  0.00  0.00    +0.290 C 
ENDROOT
BRANCH   1   2
ATOM      2  N   LIG    1       -1.227  -0.053   2.120  0.00  0.00    -0.640 N 
ATOM      3  H   LIG    1       -0.394  -0.380   2.586  0.00  0.00    +0.430 HD
ATOM      4  H   LIG    1       -2.041  -0.403   2.601  0.00  0.00    +0.440 HD
ATOM      5  H   LIG    1       -1.240   0.956   2.125  0.00  0.00    +0.440 HD
ENDBRANCH   1   2
BRANCH   1   6
ATOM      6  C   LIG    1        0.002  -0.004   0.002  0.00  0.00    +0.150 C 
ATOM      7  C   LIG    1       -0.005  -0.506  -1.443  0.00  0.00    +0.060 C 
BRANCH   6   9
ATOM      8  C   LIG    1        1.280   2.024   0.001  0.00  0.00    +0.230 C 
ATOM      9  O   LIG    1       -0.017   1.425   0.010  0.00  0.00    -0.390 OA
ENDBRANCH   6   9
ENDBRANCH   1   6
TORSDOF 3
