REMARK  Name = ZINCpk00000e1qjO.0
REMARK                            x       y       z     vdW  Elec       q    Type
REMARK                         _______ _______ _______ _____ _____    ______ ____
ROOT
ATOM      1  C   LIG    1        3.793   0.113   6.951  0.00  0.00    +0.230 C 
ENDROOT
BRANCH   1   2
ATOM      2  N   LIG    1        3.772  -0.922   7.993  0.00  0.00    -0.520 NA
ATOM      3  C   LIG    1        3.508  -2.246   7.415  0.00  0.00    +0.180 C 
ATOM      4  C   LIG    1        3.348  -3.272   8.539  0.00  0.00    +0.030 C 
ATOM      5  C   LIG    1        4.629  -3.307   9.378  0.00  0.00    +0.280 C 
ATOM      6  C   LIG    1        4.907  -1.905   9.928  0.00  0.00    +0.040 C 
ATOM      7  C   LIG    1        5.022  -0.919   8.764  0.00  0.00    +0.180 C 
BRANCH   5   8
ATOM      8  N   LIG    1        4.461  -4.245  10.490  0.00  0.00    -0.630 N 
ATOM      9  C   LIG    1        5.287  -5.438  10.731  0.00  0.00    +0.250 C 
ATOM     10  C   LIG    1        4.688  -6.049  12.013  0.00  0.00    +0.250 C 
ATOM     11  N   LIG    1        3.582  -5.141  12.352  0.00  0.00    -0.750 N 
ATOM     12  H   LIG    1        2.987  -5.239  13.112  0.00  0.00    +0.430 HD
ATOM     13  C   LIG    1        3.526  -4.157  11.445  0.00  0.00    +0.700 C 
ATOM     14  O   LIG    1        2.702  -3.264  11.486  0.00  0.00    -0.570 OA
ENDBRANCH   5   8
ENDBRANCH   1   2
BRANCH   1  17
ATOM     15  N   LIG    1        3.952   2.579   6.837  0.00  0.00    -0.630 N 
ATOM     16  H   LIG    1        4.051   2.496   5.875  0.00  0.00    +0.430 HD
ATOM     17  C   LIG    1        3.805   1.475   7.596  0.00  0.00    +0.500 C 
ATOM     18  O   LIG    1        3.681   1.578   8.798  0.00  0.00    -0.470 OA
BRANCH  15  22
ATOM     19  C   LIG    1        4.046   5.976   7.849  0.00  0.00    +0.050 A 
ATOM     20  N   LIG    1        3.893   5.295   8.950  0.00  0.00    -0.360 NA
ATOM     21  O   LIG    1        3.838   4.106   8.739  0.00  0.00    +0.110 OA
ATOM     22  C   LIG    1        3.963   3.833   7.430  0.00  0.00    +0.210 A 
ATOM     23  C   LIG    1        4.102   5.036   6.800  0.00  0.00    -0.100 A 
BRANCH  19  25
ATOM     24  C   LIG    1        2.838   8.030   7.162  0.00  0.00    +0.050 C 
ATOM     25  C   LIG    1        4.149   7.474   7.723  0.00  0.00    +0.010 C 
ATOM     26  C   LIG    1        4.413   8.085   9.101  0.00  0.00    +0.040 C 
ATOM     27  C   LIG    1        5.299   7.829   6.779  0.00  0.00    +0.050 C 
ENDBRANCH  19  25
ENDBRANCH  15  22
ENDBRANCH   1  17
TORSDOF 5
