REMARK  Name = ZINCrH00000tj1au.0
REMARK                            x       y       z     vdW  Elec       q    Type
REMARK                         _______ _______ _______ _____ _____    ______ ____
ROOT
ATOM      1  C   LIG    1       -2.323   0.002   0.125  0.00  0.00    +0.370 A 
ATOM      2  C   LIG    1       -3.530  -0.677   0.239  0.00  0.00    -0.050 A 
ATOM      3  C   LIG    1       -4.702   0.049   0.358  0.00  0.00    +0.220 A 
ATOM      4  C   LIG    1       -4.625   1.435   0.359  0.00  0.00    -0.770 A 
ATOM      5  C   LIG    1       -3.391   2.043   0.241  0.00  0.00    +0.410 A 
ATOM      6  N   LIG    1       -2.290   1.324   0.135  0.00  0.00    -0.530 NA
ENDROOT
BRANCH   4   7
ATOM      7  S   LIG    1       -6.087   2.408   0.507  0.00  0.00    +2.700 S 
ATOM      8  O   LIG    1       -7.160   1.591   0.060  0.00  0.00    -0.950 OA
ATOM      9  O   LIG    1       -5.785   3.675  -0.062  0.00  0.00    -0.950 OA
BRANCH   7  10
ATOM     10  N   LIG    1       -6.340   2.670   2.123  0.00  0.00    -1.000 NA
ATOM     11  C   LIG    1       -7.154   1.737   2.914  0.00  0.00    +0.290 C 
ATOM     12  C   LIG    1       -6.335   1.285   4.132  0.00  0.00    +0.010 C 
ATOM     13  C   LIG    1       -5.861   2.517   4.906  0.00  0.00    +0.010 C 
ATOM     14  C   LIG    1       -4.960   3.369   4.010  0.00  0.00    -0.000 C 
ATOM     15  C   LIG    1       -5.758   3.842   2.791  0.00  0.00    +0.290 C 
ENDBRANCH   7  10
ENDBRANCH   4   7
BRANCH   1  16
ATOM     16  O   LIG    1       -1.167  -0.698   0.008  0.00  0.00    -0.230 OA
BRANCH  16  24
ATOM     17  C   LIG    1       -0.050   2.448   3.479  0.00  0.00    +0.060 C 
ATOM     18  C   LIG    1        0.775   1.164   3.365  0.00  0.00    +0.100 C 
ATOM     19  C   LIG    1        2.113   1.436   2.637  0.00  0.00    +0.100 C 
ATOM     20  C   LIG    1        1.758   1.117   1.198  0.00  0.00    -0.160 A 
ATOM     21  C   LIG    1        2.384   1.406   0.004  0.00  0.00    +0.070 A 
ATOM     22  C   LIG    1        1.823   0.995  -1.191  0.00  0.00    +0.010 A 
ATOM     23  C   LIG    1        0.632   0.292  -1.186  0.00  0.00    +0.060 A 
ATOM     24  C   LIG    1        0.003  -0.005   0.010  0.00  0.00    +0.060 A 
ATOM     25  C   LIG    1        0.565   0.407   1.221  0.00  0.00    +0.120 A 
ATOM     26  C   LIG    1        1.020   0.554   4.746  0.00  0.00    +0.080 C 
ATOM     27  O   LIG    1        0.128   0.218   2.497  0.00  0.00    -0.290 OA
ENDBRANCH  16  24
ENDBRANCH   1  16
TORSDOF 4
