REMARK  Name = ZINCnE000001LYKn.0
REMARK                            x       y       z     vdW  Elec       q    Type
REMARK                         _______ _______ _______ _____ _____    ______ ____
ROOT
ATOM      1  C   LIG    1       -2.502   1.007   0.019  0.00  0.00    +0.560 C 
ATOM      2  N   LIG    1       -2.491  -0.337  -0.090  0.00  0.00    -0.600 N 
ATOM      3  C   LIG    1       -1.221  -1.075  -0.107  0.00  0.00    +0.260 C 
ATOM      4  C   LIG    1       -1.271  -2.159   0.980  0.00  0.00    +0.010 C 
ATOM      5  C   LIG    1       -2.509  -3.033   0.764  0.00  0.00    +0.010 C 
ATOM      6  C   LIG    1       -3.769  -2.173   0.884  0.00  0.00    -0.030 C 
ATOM      7  C   LIG    1       -3.748  -1.089  -0.199  0.00  0.00    +0.280 C 
ATOM      8  O   LIG    1       -3.558   1.598   0.135  0.00  0.00    -0.530 OA
ENDROOT
BRANCH   1  11
ATOM      9  C   LIG    1        0.153   3.525   0.856  0.00  0.00    -0.120 A 
ATOM     10  C   LIG    1       -1.032   2.822   0.884  0.00  0.00    +0.120 A 
ATOM     11  C   LIG    1       -1.232   1.760  -0.002  0.00  0.00    -0.130 A 
ATOM     12  C   LIG    1       -0.224   1.411  -0.903  0.00  0.00    +0.080 A 
ATOM     13  C   LIG    1        0.957   2.121  -0.922  0.00  0.00    -0.010 A 
ATOM     14  C   LIG    1        1.148   3.177  -0.045  0.00  0.00    +0.130 A 
ATOM     15  F   LIG    1        2.308   3.870  -0.069  0.00  0.00    -0.130 F 
BRANCH   9  16
ATOM     16  C   LIG    1        0.368   4.674   1.807  0.00  0.00    +0.150 C 
BRANCH  16  18
ATOM     17  C   LIG    1        0.125   7.458   2.313  0.00  0.00    +0.130 C 
ATOM     18  S   LIG    1       -0.212   6.212   1.038  0.00  0.00    -0.250 S 
ENDBRANCH  16  18
ENDBRANCH   9  16
ENDBRANCH   1  11
BRANCH   6  19
ATOM     19  C   LIG    1       -5.008  -3.053   0.701  0.00  0.00    +0.040 C 
BRANCH  19  20
ATOM     20  C   LIG    1       -6.267  -2.217   0.939  0.00  0.00    -0.080 C 
BRANCH  20  21
ATOM     21  C   LIG    1       -7.486  -3.084   0.759  0.00  0.00    +0.490 C 
ATOM     22  O   LIG    1       -8.599  -2.608   0.905  0.00  0.00    -0.710 OA
ATOM     23  O   LIG    1       -7.360  -4.261   0.467  0.00  0.00    -0.700 OA
ENDBRANCH  20  21
ENDBRANCH  19  20
ENDBRANCH   6  19
TORSDOF 6
