REMARK  Name = ZINCfA000000JmcC.0
REMARK                            x       y       z     vdW  Elec       q    Type
REMARK                         _______ _______ _______ _____ _____    ______ ____
ROOT
ATOM      1  N   LIG    1       -2.371   0.998   0.018  0.00  0.00    -0.630 NA
ATOM      2  H   LIG    1       -2.444   0.031   0.013  0.00  0.00    +0.430 HD
ENDROOT
BRANCH   1   3
ATOM      3  C   LIG    1       -1.131   1.594   0.016  0.00  0.00    +0.470 C 
ATOM      4  N   LIG    1       -0.011   0.966   0.007  0.00  0.00    -0.620 NA
ATOM      5  C   LIG    1        1.230   1.707  -0.001  0.00  0.00    +0.140 C 
ATOM      6  C   LIG    1        0.974   3.223   0.010  0.00  0.00    +0.170 C 
ATOM      7  C   LIG    1        2.023   1.344  -1.257  0.00  0.00    +0.090 C 
ATOM      8  C   LIG    1        2.049   1.329   1.236  0.00  0.00    +0.090 C 
ATOM      9  H   LIG    1        0.002  -0.004   0.002  0.00  0.00    +0.430 HD
ATOM     10  S   LIG    1       -0.845   3.338   0.028  0.00  0.00    +0.070 S 
ENDBRANCH   1   3
BRANCH   1  17
ATOM     11  C   LIG    1       -4.380   0.628   2.072  0.00  0.00    +0.020 C 
ATOM     12  C   LIG    1       -4.736   1.028   0.639  0.00  0.00    +0.010 C 
ATOM     13  C   LIG    1       -4.985  -0.231  -0.195  0.00  0.00    +0.010 C 
ATOM     14  C   LIG    1       -5.342   0.169  -1.628  0.00  0.00    +0.010 C 
ATOM     15  C   LIG    1       -4.186   0.965  -2.238  0.00  0.00    +0.020 C 
ATOM     16  C   LIG    1       -3.938   2.223  -1.405  0.00  0.00    +0.040 C 
ATOM     17  C   LIG    1       -3.581   1.824   0.029  0.00  0.00    +0.240 C 
ENDBRANCH   1  17
TORSDOF 2
