REMARK  Name = ZINCpk00000y6vww.0
REMARK                            x       y       z     vdW  Elec       q    Type
REMARK                         _______ _______ _______ _____ _____    ______ ____
ROOT
ATOM      1  C   LIG    1        1.755  -1.848  -0.024  0.00  0.00    +0.210 C 
ATOM      2  C   LIG    1        0.561  -2.838   0.017  0.00  0.00    +0.090 C 
ATOM      3  C   LIG    1        1.176  -4.094   0.670  0.00  0.00    +0.260 C 
ATOM      4  N   LIG    1        2.359  -3.658   1.425  0.00  0.00    -0.620 N 
ATOM      5  C   LIG    1        3.186  -4.462   2.123  0.00  0.00    +0.530 C 
ATOM      6  O   LIG    1        4.137  -3.991   2.711  0.00  0.00    -0.520 OA
ATOM      7  C   LIG    1        2.492  -2.196   1.293  0.00  0.00    +0.260 C 
ENDROOT
BRANCH   1  10
ATOM      8  N   LIG    1        1.187   1.742   0.000  0.00  0.00    -0.280 N 
ATOM      9  C   LIG    1        2.042   0.694  -0.014  0.00  0.00    +0.160 A 
ATOM     10  C   LIG    1        1.274  -0.420  -0.012  0.00  0.00    -0.040 A 
ATOM     11  N   LIG    1        0.002  -0.004   0.002  0.00  0.00    -0.250 NA
ATOM     12  N   LIG    1       -0.015   1.282   0.009  0.00  0.00    -0.080 NA
BRANCH   8  14
ATOM     13  C   LIG    1        1.830   3.611   1.440  0.00  0.00    +0.060 C 
ATOM     14  C   LIG    1        1.564   3.158   0.004  0.00  0.00    +0.250 C 
ATOM     15  C   LIG    1        2.829   3.351  -0.835  0.00  0.00    +0.060 C 
ENDBRANCH   8  14
ENDBRANCH   1  10
BRANCH   1  16
ATOM     16  O   LIG    1        2.589  -2.095  -1.158  0.00  0.00    -0.530 OA
ATOM     17  H   LIG    1        3.374  -1.533  -1.199  0.00  0.00    +0.380 HD
ENDBRANCH   1  16
BRANCH   5  18
ATOM     18  C   LIG    1        2.929  -5.946   2.172  0.00  0.00    +0.210 C 
BRANCH  18  19
ATOM     19  O   LIG    1        3.934  -6.578   2.967  0.00  0.00    -0.360 OA
BRANCH  19  20
ATOM     20  C   LIG    1        3.782  -7.994   3.080  0.00  0.00    +0.220 C 
BRANCH  20  21
ATOM     21  C   LIG    1        4.891  -8.552   3.935  0.00  0.00    -0.090 A 
ATOM     22  C   LIG    1        6.074  -8.963   3.350  0.00  0.00    +0.020 A 
ATOM     23  C   LIG    1        7.093  -9.471   4.135  0.00  0.00    +0.000 A 
ATOM     24  C   LIG    1        6.924  -9.576   5.503  0.00  0.00    +0.010 A 
ATOM     25  C   LIG    1        5.739  -9.170   6.087  0.00  0.00    +0.000 A 
ATOM     26  C   LIG    1        4.722  -8.658   5.303  0.00  0.00    +0.020 A 
ENDBRANCH  20  21
ENDBRANCH  19  20
ENDBRANCH  18  19
ENDBRANCH   5  18
TORSDOF 7
