REMARK  Name = ZINCvU00000005Di.0
REMARK                            x       y       z     vdW  Elec       q    Type
REMARK                         _______ _______ _______ _____ _____    ______ ____
ROOT
ATOM      1  C   LIG    1       -5.159  -3.584  -1.765  0.00  0.00    +0.250 A 
ATOM      2  N   LIG    1       -4.835  -3.639  -0.494  0.00  0.00    -0.260 NA
ATOM      3  N   LIG    1       -3.732  -3.009  -0.295  0.00  0.00    -0.280 NA
ATOM      4  C   LIG    1       -3.285  -2.513  -1.427  0.00  0.00    +0.150 A 
ATOM      5  N   LIG    1       -4.180  -2.856  -2.400  0.00  0.00    -0.450 N 
ENDROOT
BRANCH   1  10
ATOM      6 CL   LIG    1       -9.999  -6.016  -4.308  0.00  0.00    -0.060 Cl
ATOM      7  C   LIG    1       -8.595  -5.310  -3.570  0.00  0.00    -0.020 A 
ATOM      8  C   LIG    1       -8.568  -5.096  -2.203  0.00  0.00    +0.030 A 
ATOM      9  C   LIG    1       -7.456  -4.536  -1.610  0.00  0.00    +0.090 A 
ATOM     10  C   LIG    1       -6.355  -4.184  -2.393  0.00  0.00    -0.020 A 
ATOM     11  C   LIG    1       -6.389  -4.397  -3.772  0.00  0.00    +0.070 A 
ATOM     12  C   LIG    1       -7.505  -4.963  -4.352  0.00  0.00    +0.030 A 
ENDBRANCH   1  10
BRANCH   4  13
ATOM     13  S   LIG    1       -1.811  -1.573  -1.646  0.00  0.00    +0.050 S 
BRANCH  13  14
ATOM     14  C   LIG    1       -1.201  -1.543   0.058  0.00  0.00    +0.270 C 
BRANCH  14  15
ATOM     15  C   LIG    1        0.091  -0.769   0.116  0.00  0.00    +0.190 A 
ATOM     16  N   LIG    1        0.219   0.518   0.322  0.00  0.00    -0.450 NA
ATOM     17  C   LIG    1        1.549   0.761   0.289  0.00  0.00    +0.220 A 
ATOM     18  N   LIG    1        2.144  -0.382   0.067  0.00  0.00    -0.360 NA
ATOM     19  O   LIG    1        1.322  -1.268  -0.035  0.00  0.00    +0.100 OA
BRANCH  17  20
ATOM     20  C   LIG    1        2.208   2.078   0.470  0.00  0.00    -0.030 A 
ATOM     21  C   LIG    1        1.442   3.219   0.696  0.00  0.00    +0.070 A 
ATOM     22  C   LIG    1        2.061   4.440   0.869  0.00  0.00    +0.010 A 
ATOM     23  C   LIG    1        3.439   4.534   0.808  0.00  0.00    +0.030 A 
ATOM     24  C   LIG    1        4.205   3.405   0.580  0.00  0.00    +0.010 A 
ATOM     25  C   LIG    1        3.597   2.178   0.410  0.00  0.00    +0.050 A 
ENDBRANCH  17  20
ENDBRANCH  14  15
ENDBRANCH  13  14
ENDBRANCH   4  13
BRANCH   5  26
ATOM     26  C   LIG    1       -4.109  -2.521  -3.825  0.00  0.00    +0.340 C 
BRANCH  26  27
ATOM     27  C   LIG    1       -3.214  -3.533  -4.543  0.00  0.00    +0.140 C 
ATOM     28  C   LIG    1       -3.099  -3.181  -6.042  0.00  0.00    +0.020 C 
ATOM     29  C   LIG    1       -3.083  -4.554  -6.750  0.00  0.00    +0.010 C 
ATOM     30  C   LIG    1       -3.189  -5.573  -5.594  0.00  0.00    +0.200 C 
ATOM     31  O   LIG    1       -3.815  -4.846  -4.514  0.00  0.00    -0.360 OA
ENDBRANCH  26  27
ENDBRANCH   5  26
TORSDOF 7
