REMARK  Name = ZINCrH000004tsOo.0
REMARK                            x       y       z     vdW  Elec       q    Type
REMARK                         _______ _______ _______ _____ _____    ______ ____
ROOT
ATOM      1  N   LIG    1       -2.881   4.327  -1.273  0.00  0.00    -0.580 N 
ATOM      2  C   LIG    1       -3.525   3.515  -2.135  0.00  0.00    +0.530 C 
ATOM      3  O   LIG    1       -3.797   3.909  -3.249  0.00  0.00    -0.520 OA
ENDROOT
BRANCH   1   4
ATOM      4  C   LIG    1       -2.446   5.657  -1.704  0.00  0.00    +0.200 C 
ATOM      5  C   LIG    1       -3.078   6.229  -2.975  0.00  0.00    +0.040 C 
ATOM      6  C   LIG    1       -1.625   5.749  -2.992  0.00  0.00    +0.010 C 
ENDBRANCH   1   4
BRANCH   1   7
ATOM      7  C   LIG    1       -2.617   3.878   0.097  0.00  0.00    +0.350 C 
BRANCH   7  11
ATOM      8  C   LIG    1        1.174   1.901   0.243  0.00  0.00    -0.100 A 
ATOM      9  C   LIG    1       -0.005   1.155   0.188  0.00  0.00    +0.080 A 
ATOM     10  C   LIG    1       -1.224   1.800   0.135  0.00  0.00    +0.060 A 
ATOM     11  C   LIG    1       -1.281   3.182   0.148  0.00  0.00    -0.120 A 
ATOM     12  C   LIG    1       -0.115   3.928   0.203  0.00  0.00    +0.120 A 
ATOM     13  F   LIG    1       -0.178   5.278   0.211  0.00  0.00    -0.130 F 
ATOM     14  C   LIG    1        1.112   3.295   0.251  0.00  0.00    +0.020 A 
BRANCH   8  18
ATOM     15  N   LIG    1        3.620   1.938   0.348  0.00  0.00    -0.850 N 
ATOM     16  H   LIG    1        4.479   1.488   0.381  0.00  0.00    +0.410 HD
ATOM     17  H   LIG    1        3.579   2.907   0.353  0.00  0.00    +0.400 HD
ATOM     18  C   LIG    1        2.483   1.215   0.294  0.00  0.00    +0.560 C 
ATOM     19  O   LIG    1        2.534   0.001   0.287  0.00  0.00    -0.530 OA
ENDBRANCH   8  18
ENDBRANCH   7  11
ENDBRANCH   1   7
BRANCH   2  20
ATOM     20  C   LIG    1       -3.905   2.119  -1.715  0.00  0.00    +0.080 C 
BRANCH  20  21
ATOM     21  C   LIG    1       -4.522   1.379  -2.904  0.00  0.00    +0.100 C 
BRANCH  21  22
ATOM     22  S   LIG    1       -4.980  -0.302  -2.398  0.00  0.00    -0.100 S 
BRANCH  22  23
ATOM     23  C   LIG    1       -5.661  -0.987  -3.871  0.00  0.00    -0.100 A 
ATOM     24  C   LIG    1       -5.731  -0.221  -5.028  0.00  0.00    +0.040 A 
ATOM     25  C   LIG    1       -6.260  -0.762  -6.183  0.00  0.00    +0.010 A 
ATOM     26  C   LIG    1       -6.731  -2.064  -6.186  0.00  0.00    +0.100 A 
ATOM     27  C   LIG    1       -6.668  -2.829  -5.033  0.00  0.00    +0.010 A 
ATOM     28  F   LIG    1       -7.254  -2.590  -7.316  0.00  0.00    -0.140 F 
ATOM     29  C   LIG    1       -6.135  -2.294  -3.877  0.00  0.00    +0.070 A 
ENDBRANCH  22  23
ENDBRANCH  21  22
ENDBRANCH  20  21
ENDBRANCH   2  20
TORSDOF 8
