REMARK  Name = ZINCb70000002IKZ.0
REMARK                            x       y       z     vdW  Elec       q    Type
REMARK                         _______ _______ _______ _____ _____    ______ ____
ROOT
ATOM      1  C   LIG    1        0.652  -0.570  -1.138  0.00  0.00    +0.160 C 
ATOM      2  C   LIG    1       -0.373  -0.790  -2.255  0.00  0.00    +0.030 C 
ATOM      3  C   LIG    1        0.313  -1.471  -3.441  0.00  0.00    +0.270 C 
ATOM      4  N   LIG    1        0.865  -2.764  -3.018  0.00  0.00    -0.510 N 
ATOM      5  C   LIG    1        1.900  -2.553  -1.999  0.00  0.00    +0.270 C 
ATOM      6  H   LIG    1        0.126  -3.333  -2.634  0.00  0.00    +0.430 HD
ATOM      7  H   LIG    1        1.269  -3.232  -3.815  0.00  0.00    +0.430 HD
ATOM      8  C   LIG    1        1.275  -1.916  -0.756  0.00  0.00    +0.070 C 
ENDROOT
BRANCH   1   9
ATOM      9  O   LIG    1        0.002  -0.004   0.002  0.00  0.00    -0.370 OA
BRANCH   9  10
ATOM     10  C   LIG    1       -0.017   1.425   0.010  0.00  0.00    +0.180 C 
BRANCH  10  11
ATOM     11  C   LIG    1       -0.733   1.918   1.269  0.00  0.00    +0.040 C 
BRANCH  11  12
ATOM     12  C   LIG    1       -0.754   3.448   1.277  0.00  0.00    +0.180 C 
BRANCH  12  13
ATOM     13  O   LIG    1       -1.423   3.909   2.453  0.00  0.00    -0.570 OA
ATOM     14  H   LIG    1       -1.474   4.872   2.525  0.00  0.00    +0.390 HD
ENDBRANCH  12  13
ENDBRANCH  11  12
ENDBRANCH  10  11
ENDBRANCH   9  10
ENDBRANCH   1   9
TORSDOF 5
