REMARK  Name = ZINCnE000001T6dp.0
REMARK                            x       y       z     vdW  Elec       q    Type
REMARK                         _______ _______ _______ _____ _____    ______ ____
ROOT
ATOM      1  N   LIG    1        1.225  -4.163  -0.033  0.00  0.00    -0.530 N 
ATOM      2  H   LIG    1        2.171  -4.375  -0.042  0.00  0.00    +0.360 HD
ATOM      3  C   LIG    1        0.312  -5.155  -0.030  0.00  0.00    +0.540 C 
ATOM      4  O   LIG    1       -0.874  -4.889  -0.017  0.00  0.00    -0.550 OA
ENDROOT
BRANCH   3   5
ATOM      5  C   LIG    1        0.754  -6.566  -0.041  0.00  0.00    -0.110 A 
ATOM      6  C   LIG    1        2.115  -6.874  -0.061  0.00  0.00    +0.040 A 
ATOM      7  C   LIG    1        2.520  -8.193  -0.066  0.00  0.00    +0.000 A 
ATOM      8  C   LIG    1        1.581  -9.208  -0.063  0.00  0.00    -0.070 A 
ATOM      9  C   LIG    1        0.230  -8.909  -0.050  0.00  0.00    -0.010 A 
ATOM     10  C   LIG    1       -0.189  -7.595  -0.038  0.00  0.00    +0.060 A 
BRANCH   8  11
ATOM     11  C   LIG    1        2.031 -10.646  -0.075  0.00  0.00    +0.030 C 
ATOM     12  C   LIG    1        2.883 -10.925   1.165  0.00  0.00    +0.020 C 
ATOM     13  C   LIG    1        3.340 -12.385   1.153  0.00  0.00    +0.000 C 
ATOM     14  C   LIG    1        4.169 -12.649  -0.106  0.00  0.00    +0.000 C 
ATOM     15  C   LIG    1        3.317 -12.371  -1.346  0.00  0.00    +0.000 C 
ATOM     16  C   LIG    1        2.860 -10.911  -1.334  0.00  0.00    +0.020 C 
ENDBRANCH   8  11
ENDBRANCH   3   5
BRANCH   1  19
ATOM     17  O   LIG    1        2.906  -2.100  -0.036  0.00  0.00    -0.670 OA
ATOM     18  C   LIG    1        1.719  -1.834  -0.024  0.00  0.00    +0.450 C 
ATOM     19  N   LIG    1        0.806  -2.826  -0.021  0.00  0.00    -0.480 NA
BRANCH  18  20
ATOM     20  C   LIG    1        1.281  -0.434  -0.013  0.00  0.00    +0.030 A 
ATOM     21  C   LIG    1        2.095   0.661  -0.014  0.00  0.00    -0.050 A 
ATOM     22  C   LIG    1        1.257   1.787  -0.000  0.00  0.00    -0.080 A 
ATOM     23  C   LIG    1       -0.016   1.335   0.009  0.00  0.00    +0.130 A 
ATOM     24  O   LIG    1        0.002  -0.004   0.002  0.00  0.00    -0.150 OA
ENDBRANCH  18  20
ENDBRANCH   1  19
TORSDOF 4
