REMARK  Name = ZINCrH000004sJAh.0
REMARK                            x       y       z     vdW  Elec       q    Type
REMARK                         _______ _______ _______ _____ _____    ______ ____
ROOT
ATOM      1  C   LIG    1       -0.171   2.692  -0.936  0.00  0.00    +0.510 C 
ATOM      2  N   LIG    1       -0.805   2.208   0.150  0.00  0.00    -0.740 N 
ATOM      3  H   LIG    1       -1.562   2.686   0.523  0.00  0.00    +0.400 HD
ATOM      4  O   LIG    1        0.775   2.094  -1.403  0.00  0.00    -0.520 OA
ENDROOT
BRANCH   1   5
ATOM      5  C   LIG    1       -0.638   3.977  -1.571  0.00  0.00    +0.140 C 
BRANCH   5  12
ATOM      6  C   LIG    1       -1.148   3.045  -4.556  0.00  0.00    +0.150 C 
ATOM      7  C   LIG    1        0.008   3.885  -4.077  0.00  0.00    +0.090 A 
ATOM      8  N   LIG    1        0.975   4.355  -4.822  0.00  0.00    -0.300 NA
ATOM      9  N   LIG    1        1.847   5.081  -4.000  0.00  0.00    -0.360 N 
ATOM     10  C   LIG    1        1.366   5.034  -2.740  0.00  0.00    +0.110 A 
ATOM     11  C   LIG    1        1.983   5.684  -1.529  0.00  0.00    +0.130 C 
ATOM     12  C   LIG    1        0.233   4.295  -2.759  0.00  0.00    -0.230 A 
BRANCH   9  13
ATOM     13  C   LIG    1        3.062   5.775  -4.434  0.00  0.00    +0.330 C 
BRANCH  13  14
ATOM     14  C   LIG    1        2.717   7.213  -4.825  0.00  0.00    -0.030 C 
ATOM     15  C   LIG    1        3.961   7.899  -5.395  0.00  0.00    +0.030 C 
ATOM     16  C   LIG    1        2.234   7.976  -3.591  0.00  0.00    +0.020 C 
ENDBRANCH  13  14
ENDBRANCH   9  13
ENDBRANCH   5  12
ENDBRANCH   1   5
BRANCH   2  17
ATOM     17  C   LIG    1       -0.351   0.959   0.767  0.00  0.00    +0.240 C 
BRANCH  17  18
ATOM     18  C   LIG    1       -1.341   0.538   1.855  0.00  0.00    +0.210 C 
BRANCH  18  19
ATOM     19  C   LIG    1       -0.822  -0.688   2.561  0.00  0.00    -0.070 A 
ATOM     20  C   LIG    1       -1.371  -1.926   2.289  0.00  0.00    +0.060 A 
ATOM     21  C   LIG    1       -0.891  -3.052   2.933  0.00  0.00    +0.010 A 
ATOM     22  C   LIG    1        0.132  -2.938   3.856  0.00  0.00    +0.020 A 
ATOM     23  C   LIG    1        0.678  -1.699   4.132  0.00  0.00    +0.020 A 
ATOM     24  C   LIG    1        0.202  -0.573   3.485  0.00  0.00    -0.030 A 
ATOM     25 CL   LIG    1        0.888   0.984   3.831  0.00  0.00    -0.070 Cl
ENDBRANCH  18  19
BRANCH  18  26
ATOM     26  N   LIG    1       -2.642   0.237   1.244  0.00  0.00    -0.530 NA
ATOM     27  C   LIG    1       -2.474  -0.506  -0.013  0.00  0.00    +0.190 C 
ATOM     28  C   LIG    1       -3.420   1.464   1.029  0.00  0.00    +0.200 C 
ENDBRANCH  18  26
ENDBRANCH  17  18
ENDBRANCH   2  17
TORSDOF 8
