REMARK  Name = ZINCkj000005hy5w.0
REMARK                            x       y       z     vdW  Elec       q    Type
REMARK                         _______ _______ _______ _____ _____    ______ ____
ROOT
ATOM      1  N   LIG    1        0.738  -1.966  -1.265  0.00  0.00    -0.390 N 
ATOM      2  C   LIG    1        1.550  -2.451  -0.141  0.00  0.00    +0.320 C 
ATOM      3  H   LIG    1       -0.204  -2.316  -1.175  0.00  0.00    +0.430 HD
ENDROOT
BRANCH   1   4
ATOM      4  C   LIG    1        0.718  -0.497  -1.257  0.00  0.00    +0.280 C 
BRANCH   4   5
ATOM      5  C   LIG    1        0.002  -0.004   0.002  0.00  0.00    +0.060 C 
BRANCH   5   6
ATOM      6  C   LIG    1       -0.019   1.526   0.010  0.00  0.00    -0.350 C 
BRANCH   6   7
ATOM      7  S   LIG    1       -0.868   2.111   1.503  0.00  0.00    +2.620 S 
ATOM      8  O   LIG    1       -0.098   1.819   2.661  0.00  0.00    -0.950 OA
ATOM      9  O   LIG    1       -2.252   1.796   1.445  0.00  0.00    -0.940 OA
BRANCH   7  11
ATOM     10  C   LIG    1       -1.535   4.441   0.303  0.00  0.00    +0.300 C 
ATOM     11  N   LIG    1       -0.819   3.762   1.386  0.00  0.00    -1.120 NA
ATOM     12  H   LIG    1       -0.316   4.279   2.034  0.00  0.00    +0.420 HD
ENDBRANCH   7  11
ENDBRANCH   6   7
ENDBRANCH   5   6
ENDBRANCH   4   5
ENDBRANCH   1   4
BRANCH   1  13
ATOM     13  C   LIG    1        1.318  -2.441  -2.528  0.00  0.00    +0.340 C 
BRANCH  13  14
ATOM     14  C   LIG    1        1.226  -3.944  -2.589  0.00  0.00    -0.190 A 
ATOM     15  C   LIG    1        2.331  -4.717  -2.288  0.00  0.00    +0.080 A 
ATOM     16  C   LIG    1        2.247  -6.096  -2.344  0.00  0.00    -0.110 A 
ATOM     17  C   LIG    1        1.059  -6.705  -2.702  0.00  0.00    +0.090 A 
ATOM     18  C   LIG    1       -0.049  -5.937  -3.004  0.00  0.00    -0.060 A 
ATOM     19  C   LIG    1        3.454  -6.937  -2.014  0.00  0.00    +0.100 C 
ATOM     20  C   LIG    1        0.031  -4.553  -2.943  0.00  0.00    +0.140 A 
BRANCH  20  21
ATOM     21  O   LIG    1       -1.059  -3.795  -3.235  0.00  0.00    -0.330 OA
ATOM     22  C   LIG    1       -2.256  -4.490  -3.592  0.00  0.00    +0.260 C 
ENDBRANCH  20  21
ENDBRANCH  13  14
ENDBRANCH   1  13
TORSDOF 8
