REMARK  Name = ZINCkj000005hy5w.1
REMARK                            x       y       z     vdW  Elec       q    Type
REMARK                         _______ _______ _______ _____ _____    ______ ____
ROOT
ATOM      1  N   LIG    1       -0.065   1.119  -2.440  0.00  0.00    -0.390 N 
ATOM      2  C   LIG    1       -0.149  -0.346  -2.509  0.00  0.00    +0.320 C 
ATOM      3  H   LIG    1        0.904   1.399  -2.408  0.00  0.00    +0.420 HD
ENDROOT
BRANCH   1   4
ATOM      4  C   LIG    1       -0.753   1.593  -1.232  0.00  0.00    +0.280 C 
BRANCH   4   5
ATOM      5  C   LIG    1       -0.013   1.086   0.008  0.00  0.00    +0.060 C 
BRANCH   5   6
ATOM      6  C   LIG    1       -0.729   1.579   1.267  0.00  0.00    -0.350 C 
BRANCH   6   7
ATOM      7  S   LIG    1        0.148   0.978   2.736  0.00  0.00    +2.620 S 
ATOM      8  O   LIG    1        1.417   1.608   2.852  0.00  0.00    -0.950 OA
ATOM      9  O   LIG    1        0.017  -0.432   2.854  0.00  0.00    -0.940 OA
BRANCH   7  11
ATOM     10  C   LIG    1       -2.099   1.129   4.234  0.00  0.00    +0.300 C 
ATOM     11  N   LIG    1       -0.722   1.578   4.011  0.00  0.00    -1.120 NA
ATOM     12  H   LIG    1       -0.321   2.226   4.611  0.00  0.00    +0.420 HD
ENDBRANCH   7  11
ENDBRANCH   6   7
ENDBRANCH   5   6
ENDBRANCH   4   5
ENDBRANCH   1   4
BRANCH   1  13
ATOM     13  C   LIG    1       -0.704   1.703  -3.627  0.00  0.00    +0.340 C 
BRANCH  13  14
ATOM     14  C   LIG    1        0.075   1.316  -4.858  0.00  0.00    -0.190 A 
ATOM     15  C   LIG    1        0.963   2.210  -5.423  0.00  0.00    +0.080 A 
ATOM     16  C   LIG    1        1.679   1.856  -6.553  0.00  0.00    -0.110 A 
ATOM     17  C   LIG    1        1.507   0.606  -7.119  0.00  0.00    +0.090 A 
ATOM     18  C   LIG    1        0.620  -0.292  -6.557  0.00  0.00    -0.060 A 
ATOM     19  C   LIG    1        2.646   2.834  -7.168  0.00  0.00    +0.100 C 
ATOM     20  C   LIG    1       -0.095   0.059  -5.421  0.00  0.00    +0.140 A 
BRANCH  20  21
ATOM     21  O   LIG    1       -0.964  -0.825  -4.863  0.00  0.00    -0.330 OA
ATOM     22  C   LIG    1       -1.087  -2.100  -5.496  0.00  0.00    +0.260 C 
ENDBRANCH  20  21
ENDBRANCH  13  14
ENDBRANCH   1  13
TORSDOF 8
