REMARK  Name = ZINCvU0000000CLj.0
REMARK                            x       y       z     vdW  Elec       q    Type
REMARK                         _______ _______ _______ _____ _____    ______ ____
ROOT
ATOM      1  O   LIG    1       -0.750  -3.279   2.477  0.00  0.00    -0.490 OA
ATOM      2  C   LIG    1        0.088  -2.534   2.950  0.00  0.00    +0.550 C 
ENDROOT
BRANCH   2   3
ATOM      3  C   LIG    1        1.264  -3.087   3.619  0.00  0.00    -0.270 A 
ATOM      4  C   LIG    1        1.527  -4.420   3.776  0.00  0.00    +0.130 A 
ATOM      5  C   LIG    1        2.693  -4.699   4.434  0.00  0.00    +0.010 A 
ATOM      6  C   LIG    1        3.401  -3.603   4.833  0.00  0.00    -0.110 A 
ATOM      7  S   LIG    1        2.554  -2.140   4.348  0.00  0.00    +0.230 S 
BRANCH   6   8
ATOM      8  C   LIG    1        4.686  -3.639   5.562  0.00  0.00    -0.030 A 
ATOM      9  C   LIG    1        5.265  -4.864   5.900  0.00  0.00    +0.060 A 
ATOM     10  C   LIG    1        6.466  -4.894   6.576  0.00  0.00    +0.030 A 
ATOM     11  C   LIG    1        7.098  -3.711   6.933  0.00  0.00    +0.060 A 
ATOM     12  O   LIG    1        8.279  -3.766   7.608  0.00  0.00    -0.300 OA
ATOM     13  C   LIG    1        9.071  -2.574   7.617  0.00  0.00    +0.230 C 
ATOM     14  C   LIG    1        8.152  -1.389   7.944  0.00  0.00    +0.230 C 
ATOM     15  O   LIG    1        7.136  -1.318   6.938  0.00  0.00    -0.300 OA
ATOM     16  C   LIG    1        6.525  -2.486   6.603  0.00  0.00    +0.060 A 
ATOM     17  C   LIG    1        5.322  -2.449   5.920  0.00  0.00    +0.040 A 
ENDBRANCH   6   8
ENDBRANCH   2   3
BRANCH   2  18
ATOM     18  O   LIG    1       -0.070  -1.197   2.858  0.00  0.00    -0.350 OA
BRANCH  18  19
ATOM     19  C   LIG    1       -1.243  -0.726   2.192  0.00  0.00    +0.360 C 
BRANCH  19  20
ATOM     20  C   LIG    1       -1.246   0.781   2.186  0.00  0.00    +0.290 A 
ATOM     21  N   LIG    1       -1.771   1.528   3.113  0.00  0.00    -0.440 NA
ATOM     22  C   LIG    1       -1.604   2.837   2.793  0.00  0.00    +0.050 A 
ATOM     23  C   LIG    1       -1.967   4.035   3.414  0.00  0.00    +0.080 A 
ATOM     24  C   LIG    1       -1.650   5.229   2.829  0.00  0.00    +0.020 A 
ATOM     25  C   LIG    1       -0.969   5.266   1.621  0.00  0.00    +0.050 A 
ATOM     26  C   LIG    1       -0.600   4.096   0.991  0.00  0.00    +0.020 A 
ATOM     27  C   LIG    1       -0.913   2.875   1.570  0.00  0.00    +0.060 A 
ATOM     28  N   LIG    1       -0.698   1.558   1.213  0.00  0.00    -0.530 N 
BRANCH  28  29
ATOM     29  C   LIG    1       -0.013   1.086   0.008  0.00  0.00    +0.640 C 
ATOM     30  F   LIG    1       -0.689   1.549  -1.125  0.00  0.00    -0.180 F 
ATOM     31  F   LIG    1        1.300   1.570  -0.002  0.00  0.00    -0.180 F 
ENDBRANCH  28  29
ENDBRANCH  19  20
ENDBRANCH  18  19
ENDBRANCH   2  18
TORSDOF 6
