REMARK  Name = ZINCqH0000003wTD.0
REMARK                            x       y       z     vdW  Elec       q    Type
REMARK                         _______ _______ _______ _____ _____    ______ ____
ROOT
ATOM      1  C   LIG    1       -1.390   3.653  -2.348  0.00  0.00    +0.210 C 
ENDROOT
BRANCH   1   2
ATOM      2  N   LIG    1       -1.164   3.272  -0.948  0.00  0.00    -0.520 NA
ATOM      3  C   LIG    1       -0.788   1.855  -0.842  0.00  0.00    +0.190 C 
ATOM      4  C   LIG    1       -0.180   1.599   0.543  0.00  0.00    +0.130 C 
ATOM      5  C   LIG    1       -1.104   2.201   1.581  0.00  0.00    -0.170 A 
ATOM      6  C   LIG    1       -2.079   3.088   1.296  0.00  0.00    -0.110 A 
ATOM      7  C   LIG    1       -2.800   3.500   2.410  0.00  0.00    +0.010 A 
ATOM      8  C   LIG    1       -2.425   2.966   3.569  0.00  0.00    -0.050 A 
ATOM      9  S   LIG    1       -1.080   1.865   3.303  0.00  0.00    +0.100 S 
ATOM     10  C   LIG    1       -2.341   3.575  -0.123  0.00  0.00    +0.260 C 
ENDBRANCH   1   2
BRANCH   1  11
ATOM     11  C   LIG    1       -2.704   3.085  -2.818  0.00  0.00    -0.120 A 
ATOM     12  C   LIG    1       -2.729   1.902  -3.534  0.00  0.00    +0.020 A 
ATOM     13  C   LIG    1       -3.935   1.378  -3.960  0.00  0.00    +0.000 A 
ATOM     14  C   LIG    1       -5.115   2.042  -3.679  0.00  0.00    +0.010 A 
ATOM     15  C   LIG    1       -5.089   3.227  -2.969  0.00  0.00    +0.000 A 
ATOM     16  C   LIG    1       -3.884   3.748  -2.538  0.00  0.00    +0.010 A 
ENDBRANCH   1  11
BRANCH   1  17
ATOM     17  C   LIG    1       -1.424   5.179  -2.462  0.00  0.00    +0.280 C 
BRANCH  17  19
ATOM     18  C   LIG    1       -0.003   7.072  -1.887  0.00  0.00    +0.510 C 
ATOM     19  N   LIG    1       -0.195   5.738  -1.896  0.00  0.00    -0.720 N 
ATOM     20  H   LIG    1        0.482   5.149  -1.527  0.00  0.00    +0.410 HD
ATOM     21  O   LIG    1       -0.849   7.809  -2.348  0.00  0.00    -0.540 OA
BRANCH  18  22
ATOM     22  C   LIG    1        1.262   7.648  -1.304  0.00  0.00    +0.050 C 
BRANCH  22  23
ATOM     23  C   LIG    1        1.227   9.174  -1.418  0.00  0.00    +0.060 C 
BRANCH  23  24
ATOM     24  C   LIG    1        2.511   9.758  -0.826  0.00  0.00    +0.160 C 
BRANCH  24  25
ATOM     25  O   LIG    1        2.479  11.183  -0.933  0.00  0.00    -0.390 OA
BRANCH  25  27
ATOM     26  C   LIG    1        3.496  13.346  -0.573  0.00  0.00    +0.040 C 
ATOM     27  C   LIG    1        3.639  11.832  -0.406  0.00  0.00    +0.160 C 
ENDBRANCH  25  27
ENDBRANCH  24  25
ENDBRANCH  23  24
ENDBRANCH  22  23
ENDBRANCH  18  22
ENDBRANCH  17  19
ENDBRANCH   1  17
TORSDOF 9
