REMARK  Name = ZINCrH00000No4yh.0
REMARK                            x       y       z     vdW  Elec       q    Type
REMARK                         _______ _______ _______ _____ _____    ______ ____
ROOT
ATOM      1  N   LIG    1       -1.713   4.120   0.719  0.00  0.00    -0.670 N 
ATOM      2  H   LIG    1       -0.756   3.992   0.810  0.00  0.00    +0.410 HD
ATOM      3  C   LIG    1       -2.203   5.329   0.381  0.00  0.00    +0.550 C 
ATOM      4  O   LIG    1       -3.405   5.516   0.364  0.00  0.00    -0.510 OA
ENDROOT
BRANCH   1  10
ATOM      5  C   LIG    1       -2.197   1.982   1.749  0.00  0.00    +0.110 A 
ATOM      6  C   LIG    1       -3.069   0.925   1.964  0.00  0.00    +0.050 A 
ATOM      7  C   LIG    1       -4.317   0.926   1.369  0.00  0.00    +0.000 A 
ATOM      8  C   LIG    1       -4.701   1.979   0.560  0.00  0.00    +0.040 A 
ATOM      9  C   LIG    1       -3.838   3.037   0.340  0.00  0.00    +0.030 A 
ATOM     10  C   LIG    1       -2.587   3.047   0.936  0.00  0.00    +0.140 A 
BRANCH   5  12
ATOM     11  C   LIG    1        0.183   1.286   1.707  0.00  0.00    +0.320 C 
ATOM     12  N   LIG    1       -0.934   1.982   2.350  0.00  0.00    -0.960 N 
BRANCH  12  13
ATOM     13  S   LIG    1       -0.702   2.770   3.788  0.00  0.00    +2.600 S 
ATOM     14  O   LIG    1        0.395   2.092   4.385  0.00  0.00    -0.940 OA
ATOM     15  O   LIG    1       -1.985   2.770   4.399  0.00  0.00    -0.940 OA
ATOM     16  C   LIG    1       -0.225   4.454   3.309  0.00  0.00    -0.280 C 
ENDBRANCH  12  13
ENDBRANCH   5  12
ENDBRANCH   1  10
BRANCH   3  17
ATOM     17  C   LIG    1       -1.288   6.419   0.036  0.00  0.00    -0.070 C 
ATOM     18  C   LIG    1       -1.778   7.629  -0.301  0.00  0.00    +0.140 C 
BRANCH  18  19
ATOM     19  C   LIG    1       -0.858   8.725  -0.648  0.00  0.00    -0.050 A 
ATOM     20  C   LIG    1        0.524   8.516  -0.624  0.00  0.00    +0.040 A 
ATOM     21  C   LIG    1        1.379   9.546  -0.955  0.00  0.00    +0.070 A 
ATOM     22  C   LIG    1        0.873  10.787  -1.300  0.00  0.00    -0.170 A 
ATOM     23  C   LIG    1       -0.494  11.002  -1.322  0.00  0.00    +0.070 A 
ATOM     24  C   LIG    1       -1.362   9.981  -0.998  0.00  0.00    +0.050 A 
BRANCH  22  25
ATOM     25  C   LIG    1        1.815  11.909  -1.654  0.00  0.00    +0.510 C 
ATOM     26  F   LIG    1        1.196  12.765  -2.572  0.00  0.00    -0.170 F 
ATOM     27  F   LIG    1        2.978  11.379  -2.222  0.00  0.00    -0.180 F 
ATOM     28  F   LIG    1        2.144  12.624  -0.498  0.00  0.00    -0.170 F 
ENDBRANCH  22  25
ENDBRANCH  18  19
ENDBRANCH   3  17
TORSDOF 6
