REMARK  Name = ZINCpe000000ZFHu.0
REMARK                            x       y       z     vdW  Elec       q    Type
REMARK                         _______ _______ _______ _____ _____    ______ ____
ROOT
ATOM      1  N   LIG    1       -0.055   1.138  -2.438  0.00  0.00    -1.110 NA
ATOM      2  H   LIG    1        0.691   1.649  -2.788  0.00  0.00    +0.420 HD
ENDROOT
BRANCH   1   3
ATOM      3  C   LIG    1       -0.752   1.593  -1.232  0.00  0.00    +0.250 C 
ATOM      4  C   LIG    1       -0.788   3.123  -1.209  0.00  0.00    +0.020 C 
ATOM      5  C   LIG    1       -1.465   3.591   0.082  0.00  0.00    +0.040 C 
ATOM      6  C   LIG    1       -0.705   3.026   1.284  0.00  0.00    +0.210 C 
ATOM      7  N   LIG    1       -0.700   1.559   1.216  0.00  0.00    -0.460 N 
ATOM      8  C   LIG    1       -0.013   1.086   0.008  0.00  0.00    +0.220 C 
BRANCH   7   9
ATOM      9  C   LIG    1       -0.134   1.012   2.355  0.00  0.00    +0.490 A 
ATOM     10  N   LIG    1        0.888   0.178   2.233  0.00  0.00    -0.550 NA
ATOM     11  C   LIG    1        1.455  -0.358   3.301  0.00  0.00    +0.340 A 
ATOM     12  C   LIG    1        0.961  -0.046   4.557  0.00  0.00    -0.110 A 
ATOM     13  C   LIG    1       -0.113   0.826   4.649  0.00  0.00    +0.340 A 
ATOM     14  N   LIG    1       -0.630   1.331   3.541  0.00  0.00    -0.530 NA
ENDBRANCH   7   9
ENDBRANCH   1   3
BRANCH   1  16
ATOM     15  O   LIG    1        0.300  -0.397  -4.338  0.00  0.00    -0.950 OA
ATOM     16  S   LIG    1       -0.540  -0.249  -3.201  0.00  0.00    +2.720 S 
ATOM     17  O   LIG    1       -0.663  -1.242  -2.192  0.00  0.00    -0.950 OA
BRANCH  16  18
ATOM     18  C   LIG    1       -2.166   0.036  -3.818  0.00  0.00    -0.810 A 
ATOM     19  C   LIG    1       -3.322  -0.209  -3.159  0.00  0.00    +0.390 A 
ATOM     20  N   LIG    1       -4.341   0.146  -3.969  0.00  0.00    -0.360 N 
ATOM     21  N   LIG    1       -3.793   0.618  -5.169  0.00  0.00    -0.290 NA
ATOM     22  C   LIG    1       -2.490   0.552  -5.077  0.00  0.00    +0.350 A 
BRANCH  20  23
ATOM     23  C   LIG    1       -5.768   0.050  -3.652  0.00  0.00    +0.340 C 
BRANCH  23  24
ATOM     24  C   LIG    1       -6.427   1.418  -3.845  0.00  0.00    +0.390 C 
ATOM     25  F   LIG    1       -5.902   2.323  -2.917  0.00  0.00    -0.200 F 
ATOM     26  F   LIG    1       -7.808   1.302  -3.654  0.00  0.00    -0.190 F 
ENDBRANCH  23  24
ENDBRANCH  20  23
ENDBRANCH  16  18
ENDBRANCH   1  16
TORSDOF 6
