REMARK  Name = ZINCqH0000037pmq.0
REMARK                            x       y       z     vdW  Elec       q    Type
REMARK                         _______ _______ _______ _____ _____    ______ ____
ROOT
ATOM      1  C   LIG    1       -1.597  -3.973   3.494  0.00  0.00    +0.020 C 
ATOM      2  C   LIG    1       -0.189  -4.243   4.028  0.00  0.00    +0.200 C 
ATOM      3  C   LIG    1        0.837  -3.711   3.038  0.00  0.00    +0.290 C 
ATOM      4  N   LIG    1        0.662  -2.274   2.816  0.00  0.00    -0.620 N 
ATOM      5  C   LIG    1        0.859  -1.324   3.915  0.00  0.00    +0.330 C 
ATOM      6  C   LIG    1       -0.401  -1.306   4.768  0.00  0.00    -0.140 A 
ATOM      7  C   LIG    1       -1.154  -0.160   4.887  0.00  0.00    +0.030 A 
ATOM      8  C   LIG    1       -2.241  -0.139   5.745  0.00  0.00    +0.000 A 
ATOM      9  C   LIG    1       -2.565  -1.267   6.475  0.00  0.00    +0.030 A 
ATOM     10  C   LIG    1       -1.822  -2.424   6.340  0.00  0.00    +0.000 A 
ATOM     11  C   LIG    1       -0.742  -2.454   5.469  0.00  0.00    +0.120 A 
ATOM     12  C   LIG    1        0.325  -1.822   1.592  0.00  0.00    +0.710 C 
ATOM     13  N   LIG    1        0.259  -0.496   1.358  0.00  0.00    -0.730 N 
ATOM     14  H   LIG    1        0.381   0.132   2.087  0.00  0.00    +0.390 HD
ATOM     15  O   LIG    1        0.079  -2.610   0.699  0.00  0.00    -0.590 OA
ATOM     16  O   LIG    1       -0.033  -3.597   5.296  0.00  0.00    -0.330 OA
ENDROOT
BRANCH  13  17
ATOM     17  C   LIG    1        0.002  -0.004   0.002  0.00  0.00    +0.340 C 
BRANCH  17  18
ATOM     18  C   LIG    1       -0.022   1.503   0.012  0.00  0.00    -0.090 A 
ATOM     19  C   LIG    1       -1.210   2.167   0.018  0.00  0.00    +0.050 A 
ATOM     20  C   LIG    1       -1.256   3.559   0.032  0.00  0.00    +0.010 A 
ATOM     21  C   LIG    1       -0.111   4.296   0.029  0.00  0.00    +0.040 A 
ATOM     22  C   LIG    1        1.133   3.645   0.017  0.00  0.00    -0.110 A 
ATOM     23  C   LIG    1        2.340   4.369   0.014  0.00  0.00    +0.080 A 
ATOM     24  C   LIG    1        3.512   3.668   0.001  0.00  0.00    -0.030 A 
ATOM     25  C   LIG    1        3.490   2.276  -0.007  0.00  0.00    +0.300 A 
ATOM     26  N   LIG    1        2.364   1.604  -0.004  0.00  0.00    -0.470 NA
ATOM     27  C   LIG    1        1.182   2.228   0.008  0.00  0.00    +0.140 A 
ENDBRANCH  17  18
ENDBRANCH  13  17
TORSDOF 2
