REMARK  Name = ZINCvU0000000Irv.0
REMARK                            x       y       z     vdW  Elec       q    Type
REMARK                         _______ _______ _______ _____ _____    ______ ____
ROOT
ATOM      1  N   LIG    1        6.055   3.366  -0.230  0.00  0.00    -0.360 N 
ATOM      2  N   LIG    1        6.988   4.358   0.115  0.00  0.00    -0.280 NA
ATOM      3  C   LIG    1        6.318   5.483   0.248  0.00  0.00    +0.270 A 
ATOM      4  N   LIG    1        5.024   5.250   0.002  0.00  0.00    -0.510 NA
ATOM      5  C   LIG    1        4.849   3.977  -0.283  0.00  0.00    +0.320 A 
ENDROOT
BRANCH   5   6
ATOM      6  C   LIG    1        3.560   3.329  -0.610  0.00  0.00    -0.070 A 
ATOM      7  C   LIG    1        3.521   2.247  -1.479  0.00  0.00    +0.110 A 
ATOM      8  C   LIG    1        2.271   1.668  -1.756  0.00  0.00    -0.080 A 
ATOM      9  C   LIG    1        2.154   0.570  -2.626  0.00  0.00    +0.010 A 
ATOM     10  C   LIG    1        0.924   0.034  -2.872  0.00  0.00    +0.110 A 
ATOM     11  C   LIG    1       -0.218   0.558  -2.265  0.00  0.00    +0.030 A 
ATOM     12  C   LIG    1       -0.139   1.625  -1.423  0.00  0.00    +0.090 A 
ATOM     13  F   LIG    1        0.811  -1.021  -3.707  0.00  0.00    -0.130 F 
ATOM     14  C   LIG    1        1.110   2.205  -1.145  0.00  0.00    +0.130 A 
ATOM     15  N   LIG    1        1.210   3.250  -0.315  0.00  0.00    -0.460 NA
ATOM     16  C   LIG    1        2.364   3.804  -0.044  0.00  0.00    +0.360 A 
ENDBRANCH   5   6
BRANCH   1  20
ATOM     17  C   LIG    1        8.338   0.192  -3.257  0.00  0.00    +0.060 C 
ATOM     18  C   LIG    1        7.488   0.334  -1.994  0.00  0.00    +0.160 C 
ATOM     19  C   LIG    1        7.134   1.808  -1.780  0.00  0.00    +0.010 C 
ATOM     20  C   LIG    1        6.334   1.950  -0.481  0.00  0.00    +0.260 C 
ATOM     21  C   LIG    1        7.153   1.375   0.678  0.00  0.00    +0.010 C 
ATOM     22  C   LIG    1        7.508  -0.082   0.368  0.00  0.00    +0.210 C 
ATOM     23  C   LIG    1        6.223  -0.905   0.257  0.00  0.00    +0.010 C 
ATOM     24  O   LIG    1        8.224  -0.146  -0.867  0.00  0.00    -0.360 OA
ENDBRANCH   1  20
BRANCH   3  25
ATOM     25  C   LIG    1        6.904   6.798   0.608  0.00  0.00    -0.060 A 
ATOM     26  C   LIG    1        8.272   6.923   0.842  0.00  0.00    +0.320 A 
ATOM     27  N   LIG    1        8.795   8.090   1.157  0.00  0.00    -0.470 NA
ATOM     28  C   LIG    1        8.055   9.176   1.272  0.00  0.00    +0.320 A 
ATOM     29  C   LIG    1        6.688   9.134   1.060  0.00  0.00    -0.150 A 
ATOM     30 BR   LIG    1        5.645  10.702   1.230  0.00  0.00    -0.020 Br
ATOM     31  C   LIG    1        6.093   7.930   0.722  0.00  0.00    +0.160 A 
ENDBRANCH   3  25
TORSDOF 3
