REMARK  Name = ZINCkj00000y7O0l.0
REMARK                            x       y       z     vdW  Elec       q    Type
REMARK                         _______ _______ _______ _____ _____    ______ ____
ROOT
ATOM      1  N   LIG    1       -0.698   1.558   1.213  0.00  0.00    -0.600 N 
ATOM      2  C   LIG    1       -0.353   2.738   1.767  0.00  0.00    +0.520 C 
ATOM      3  O   LIG    1        0.526   3.408   1.267  0.00  0.00    -0.500 OA
ATOM      4  C   LIG    1       -1.760   0.749   1.817  0.00  0.00    +0.300 C 
ENDROOT
BRANCH   2   5
ATOM      5  C   LIG    1       -1.058   3.224   3.006  0.00  0.00    +0.020 C 
ATOM      6  C   LIG    1       -2.546   3.485   2.707  0.00  0.00    +0.300 C 
ATOM      7  N   LIG    1       -2.788   4.926   2.937  0.00  0.00    -0.510 N 
ATOM      8  C   LIG    1       -1.752   5.361   3.908  0.00  0.00    +0.310 C 
ATOM      9  H   LIG    1       -2.691   5.437   2.072  0.00  0.00    +0.440 HD
ATOM     10  H   LIG    1       -3.709   5.067   3.324  0.00  0.00    +0.450 HD
ATOM     11  C   LIG    1       -0.489   4.592   3.446  0.00  0.00    +0.010 C 
BRANCH  11  12
ATOM     12  C   LIG    1        0.495   4.421   4.606  0.00  0.00    +0.470 C 
ATOM     13  F   LIG    1       -0.163   3.835   5.693  0.00  0.00    -0.170 F 
ATOM     14  F   LIG    1        0.994   5.673   4.983  0.00  0.00    -0.160 F 
ATOM     15  F   LIG    1        1.553   3.599   4.203  0.00  0.00    -0.160 F 
ENDBRANCH  11  12
ENDBRANCH   2   5
BRANCH   1  16
ATOM     16  C   LIG    1       -0.013   1.086   0.008  0.00  0.00    +0.420 C 
BRANCH  16  20
ATOM     17  C   LIG    1       -1.531   3.779  -4.035  0.00  0.00    +0.200 C 
ATOM     18  C   LIG    1       -1.377   2.753  -2.942  0.00  0.00    -0.020 A 
ATOM     19  C   LIG    1       -0.447   2.750  -1.958  0.00  0.00    -0.050 A 
ATOM     20  C   LIG    1       -0.742   1.585  -1.213  0.00  0.00    -0.010 A 
ATOM     21  N   LIG    1       -1.764   1.026  -1.794  0.00  0.00    -0.350 NA
ATOM     22  O   LIG    1       -2.135   1.663  -2.752  0.00  0.00    +0.110 OA
ENDBRANCH  16  20
ENDBRANCH   1  16
TORSDOF 4
