REMARK  Name = ZINCpe000000XdUD.0
REMARK                            x       y       z     vdW  Elec       q    Type
REMARK                         _______ _______ _______ _____ _____    ______ ____
ROOT
ATOM      1  C   UNK A  0       -2.361   1.106   0.110  0.00  0.00    +0.170 A 
ATOM      2  C   UNK A  0       -3.599   1.734   0.113  0.00  0.00    +0.030 A 
ATOM      3  C   UNK A  0       -4.755   0.984   0.203  0.00  0.00    +0.040 A 
ATOM      4  C   UNK A  0       -4.679  -0.400   0.290  0.00  0.00    +0.040 A 
ATOM      5  C   UNK A  0       -3.439  -1.030   0.287  0.00  0.00    +0.150 A 
ATOM      6  F   UNK A  0       -3.365  -2.376   0.372  0.00  0.00    -0.120 F 
ATOM      7  C   UNK A  0       -2.283  -0.279   0.192  0.00  0.00    -0.020 A 
ENDROOT
BRANCH   4   8
ATOM      8  N   UNK A  0       -5.851  -1.160   0.381  0.00  0.00    -0.490 N 
ATOM      9  C   UNK A  0       -6.668  -1.016  -0.834  0.00  0.00    +0.170 C 
ATOM     10  C   UNK A  0       -7.906  -1.909  -0.718  0.00  0.00    +0.200 C 
ATOM     11  O   UNK A  0       -8.630  -1.561   0.466  0.00  0.00    -0.370 OA
ATOM     12  C   UNK A  0       -7.864  -1.690   1.667  0.00  0.00    +0.160 C 
ATOM     13  C   UNK A  0       -8.716  -1.262   2.864  0.00  0.00    +0.050 C 
ATOM     14  C   UNK A  0       -7.474  -3.374  -0.640  0.00  0.00    +0.020 C 
ATOM     15  C   UNK A  0       -6.625  -0.795   1.576  0.00  0.00    +0.170 C 
ENDBRANCH   4   8
BRANCH   1  17
ATOM     16  C   UNK A  0       -1.125   3.077   0.610  0.00  0.00    +0.510 C 
ATOM     17  N   UNK A  0       -1.191   1.868   0.018  0.00  0.00    -0.640 N 
ATOM     18  H   UNK A  0       -0.426   1.525  -0.472  0.00  0.00    +0.430 HD
ATOM     19  O   UNK A  0       -2.108   3.542   1.150  0.00  0.00    -0.490 OA
BRANCH  16  22
ATOM     20  N   ALA A  1        0.224   5.049   1.202  0.00  0.00    -0.690 N 
ATOM     21  H   ALA A  1       -0.561   5.420   1.634  0.00  0.00    +0.420 HD
ATOM     22  C   UNK A  0        0.157   3.842   0.605  0.00  0.00    +0.510 C 
ATOM     23  O   UNK A  0        1.139   3.377   0.065  0.00  0.00    -0.510 OA
BRANCH  20  25
ATOM     24  CB  ALA A  1        2.356   5.337   2.366  0.00  0.00    +0.040 C 
ATOM     25  CA  ALA A  1        1.482   5.799   1.198  0.00  0.00    +0.250 C 
BRANCH  25  26
ATOM     26  C   ALA A  1        1.185   7.293   1.343  0.00  0.00    +0.200 C 
BRANCH  26  27
ATOM     27  O   ALA A  1        0.602   7.540   2.624  0.00  0.00    -0.570 OA
ATOM     28  H   ALA A  1        0.387   8.469   2.786  0.00  0.00    +0.390 HD
ENDBRANCH  26  27
ENDBRANCH  25  26
ENDBRANCH  20  25
ENDBRANCH  16  22
ENDBRANCH   1  17
TORSDOF 6
