REMARK  Name = ZINCrg00000xA5Mm.0
REMARK                            x       y       z     vdW  Elec       q    Type
REMARK                         _______ _______ _______ _____ _____    ______ ____
ROOT
ATOM      1  C   LIG    1        1.242   2.093   0.001  0.00  0.00    +0.260 C 
ENDROOT
BRANCH   1   6
ATOM      2  C   LIG    1        2.708   6.469  -1.593  0.00  0.00    +0.560 C 
ATOM      3  N   LIG    1        1.861   5.534  -1.120  0.00  0.00    -0.620 N 
ATOM      4  C   LIG    1        0.413   5.470  -1.392  0.00  0.00    +0.270 C 
ATOM      5  C   LIG    1        0.037   3.981  -1.187  0.00  0.00    +0.020 C 
ATOM      6  C   LIG    1        0.943   3.594   0.012  0.00  0.00    +0.110 C 
ATOM      7  C   LIG    1        2.227   4.409  -0.247  0.00  0.00    +0.310 C 
ATOM      8  O   LIG    1        3.885   6.424  -1.302  0.00  0.00    -0.530 OA
BRANCH   2  13
ATOM      9  C   LIG    1        4.662   8.436  -2.548  0.00  0.00    +0.070 C 
ATOM     10  C   LIG    1        3.205   8.603  -2.986  0.00  0.00    -0.090 C 
ATOM     11  C   LIG    1        2.186   8.992  -1.914  0.00  0.00    +0.070 C 
ATOM     12  C   LIG    1        2.999   9.165  -4.394  0.00  0.00    +0.070 C 
ATOM     13  C   LIG    1        2.194   7.572  -2.482  0.00  0.00    -0.070 C 
ENDBRANCH   2  13
BRANCH   6  14
ATOM     14  O   LIG    1        0.337   3.977   1.248  0.00  0.00    -0.540 OA
ATOM     15  H   LIG    1       -0.495   3.521   1.437  0.00  0.00    +0.380 HD
ENDBRANCH   6  14
ENDBRANCH   1   6
BRANCH   1  16
ATOM     16  N   LIG    1       -0.016   1.344   0.009  0.00  0.00    -0.730 N 
ATOM     17  H   LIG    1       -0.863   1.817   0.016  0.00  0.00    +0.400 HD
ATOM     18  C   LIG    1        0.002  -0.004   0.002  0.00  0.00    +0.520 C 
ATOM     19  O   LIG    1        1.060  -0.596  -0.011  0.00  0.00    -0.530 OA
BRANCH  18  20
ATOM     20  C   LIG    1       -1.293  -0.775   0.010  0.00  0.00    +0.060 C 
BRANCH  20  21
ATOM     21  C   LIG    1       -0.993  -2.276  -0.001  0.00  0.00    +0.050 C 
BRANCH  21  22
ATOM     22  C   LIG    1       -2.307  -3.058   0.008  0.00  0.00    +0.160 C 
BRANCH  22  23
ATOM     23  O   LIG    1       -2.027  -4.460  -0.003  0.00  0.00    -0.380 OA
BRANCH  23  24
ATOM     24  C   LIG    1       -3.193  -5.286   0.004  0.00  0.00    +0.150 C 
ATOM     25  C   LIG    1       -3.595  -5.593   1.450  0.00  0.00    -0.030 C 
ATOM     26  C   LIG    1       -4.795  -6.543   1.446  0.00  0.00    +0.210 C 
ATOM     27  O   LIG    1       -4.460  -7.732   0.728  0.00  0.00    -0.380 OA
ATOM     28  C   LIG    1       -4.123  -7.510  -0.643  0.00  0.00    +0.210 C 
ATOM     29  C   LIG    1       -2.894  -6.600  -0.724  0.00  0.00    +0.010 C 
ENDBRANCH  23  24
ENDBRANCH  22  23
ENDBRANCH  21  22
ENDBRANCH  20  21
ENDBRANCH  18  20
ENDBRANCH   1  16
TORSDOF 9
