REMARK  Name = ZINCpk00000K6P0X.2
REMARK                            x       y       z     vdW  Elec       q    Type
REMARK                         _______ _______ _______ _____ _____    ______ ____
ROOT
ATOM      1  C   LIG    1       -0.923   9.843   1.466  0.00  0.00    +0.250 C 
ATOM      2  C   LIG    1       -1.511   9.081   0.268  0.00  0.00    +0.290 C 
ATOM      3  N   LIG    1       -0.803   7.796   0.149  0.00  0.00    -0.610 N 
ATOM      4  C   LIG    1        0.668   7.816   0.138  0.00  0.00    +0.260 C 
ATOM      5  C   LIG    1        1.150   8.640   1.338  0.00  0.00    +0.230 C 
ATOM      6  C   LIG    1       -1.482   6.637   0.048  0.00  0.00    +0.570 C 
ATOM      7  O   LIG    1       -2.697   6.647  -0.010  0.00  0.00    -0.520 OA
ATOM      8  O   LIG    1        0.498   9.912   1.327  0.00  0.00    -0.350 OA
ENDROOT
BRANCH   6   9
ATOM      9  C   LIG    1       -0.752   5.354   0.009  0.00  0.00    -0.110 A 
ATOM     10  C   LIG    1       -1.138   4.327   0.851  0.00  0.00    +0.160 A 
ATOM     11  C   LIG    1       -0.443   3.109   0.811  0.00  0.00    +0.020 A 
ATOM     12  N   LIG    1       -0.518   1.943   1.435  0.00  0.00    -0.260 NA
ATOM     13  N   LIG    1        0.406   1.170   0.982  0.00  0.00    -0.190 N 
ATOM     14  H   LIG    1        0.546   0.262   1.292  0.00  0.00    +0.480 HD
ATOM     15  N   LIG    1        1.121   1.729   0.069  0.00  0.00    -0.270 NA
ATOM     16  C   LIG    1        0.680   2.961  -0.127  0.00  0.00    +0.040 A 
ATOM     17  C   LIG    1        1.026   4.042  -0.959  0.00  0.00    +0.090 A 
ATOM     18  C   LIG    1        0.325   5.199  -0.885  0.00  0.00    +0.050 A 
ENDBRANCH   6   9
BRANCH   1  23
ATOM     19  C   LIG    1       -1.723  13.366   1.204  0.00  0.00    +0.230 A 
ATOM     20  N   LIG    1       -2.783  12.984   1.867  0.00  0.00    -0.300 NA
ATOM     21  N   LIG    1       -2.658  11.599   2.068  0.00  0.00    -0.470 N 
ATOM     22  H   LIG    1       -3.287  11.020   2.527  0.00  0.00    +0.440 HD
ATOM     23  C   LIG    1       -1.494  11.238   1.503  0.00  0.00    +0.280 A 
ATOM     24  N   LIG    1       -0.944  12.306   0.985  0.00  0.00    -0.500 NA
BRANCH  19  26
ATOM     25  C   LIG    1       -2.542  15.260  -0.171  0.00  0.00    +0.050 C 
ATOM     26  C   LIG    1       -1.428  14.775   0.759  0.00  0.00    +0.100 C 
ATOM     27  C   LIG    1       -1.351  15.690   1.983  0.00  0.00    +0.050 C 
ENDBRANCH  19  26
ENDBRANCH   1  23
TORSDOF 3
