REMARK  Name = ZINCpk00000K6P0X.0
REMARK                            x       y       z     vdW  Elec       q    Type
REMARK                         _______ _______ _______ _____ _____    ______ ____
ROOT
ATOM      1  C   LIG    1        0.353  -0.364  -0.441  0.00  0.00    +0.250 C 
ATOM      2  C   LIG    1        1.226   0.832  -0.044  0.00  0.00    +0.300 C 
ATOM      3  N   LIG    1        1.926   0.501   1.207  0.00  0.00    -0.610 N 
ATOM      4  C   LIG    1        1.127  -0.014   2.331  0.00  0.00    +0.250 C 
ATOM      5  C   LIG    1        0.259  -1.169   1.818  0.00  0.00    +0.230 C 
ATOM      6  C   LIG    1        3.259   0.664   1.321  0.00  0.00    +0.570 C 
ATOM      7  O   LIG    1        3.914   1.005   0.355  0.00  0.00    -0.520 OA
ATOM      8  O   LIG    1       -0.470  -0.735   0.667  0.00  0.00    -0.360 OA
ENDROOT
BRANCH   6   9
ATOM      9  C   LIG    1        3.924   0.427   2.618  0.00  0.00    -0.120 A 
ATOM     10  C   LIG    1        5.198  -0.109   2.640  0.00  0.00    +0.160 A 
ATOM     11  C   LIG    1        5.830  -0.328   3.873  0.00  0.00    +0.010 A 
ATOM     12  N   LIG    1        6.998  -0.802   4.280  0.00  0.00    -0.250 NA
ATOM     13  N   LIG    1        7.031  -0.776   5.566  0.00  0.00    -0.190 N 
ATOM     14  H   LIG    1        7.790  -1.075   6.090  0.00  0.00    +0.480 HD
ATOM     15  N   LIG    1        5.949  -0.309   6.084  0.00  0.00    -0.270 NA
ATOM     16  C   LIG    1        5.111   0.010   5.111  0.00  0.00    +0.040 A 
ATOM     17  C   LIG    1        3.813   0.548   5.024  0.00  0.00    +0.090 A 
ATOM     18  C   LIG    1        3.245   0.746   3.810  0.00  0.00    +0.060 A 
ENDBRANCH   6   9
BRANCH   1  22
ATOM     19  C   LIG    1       -1.496   0.051  -3.542  0.00  0.00    +0.200 A 
ATOM     20  N   LIG    1       -1.916   1.052  -2.818  0.00  0.00    -0.290 NA
ATOM     21  N   LIG    1       -1.335   1.030  -1.671  0.00  0.00    -0.260 NA
ATOM     22  C   LIG    1       -0.517   0.015  -1.612  0.00  0.00    +0.170 A 
ATOM     23  N   LIG    1       -0.592  -0.633  -2.800  0.00  0.00    -0.570 N 
ATOM     24  H   LIG    1       -0.101  -1.426  -3.064  0.00  0.00    +0.430 HD
BRANCH  19  26
ATOM     25  C   LIG    1       -0.942   0.331  -5.943  0.00  0.00    +0.050 C 
ATOM     26  C   LIG    1       -1.930  -0.279  -4.947  0.00  0.00    +0.100 C 
ATOM     27  C   LIG    1       -1.964  -1.798  -5.127  0.00  0.00    +0.040 C 
ENDBRANCH  19  26
ENDBRANCH   1  22
TORSDOF 3
