REMARK  Name = ZINCpk00000K6P0X.1
REMARK                            x       y       z     vdW  Elec       q    Type
REMARK                         _______ _______ _______ _____ _____    ______ ____
ROOT
ATOM      1  C   LIG    1       -1.924   7.942   1.474  0.00  0.00    +0.280 C 
ATOM      2  C   LIG    1       -2.296   7.059   0.278  0.00  0.00    +0.290 C 
ATOM      3  N   LIG    1       -1.284   5.999   0.150  0.00  0.00    -0.610 N 
ATOM      4  C   LIG    1        0.134   6.393   0.148  0.00  0.00    +0.260 C 
ATOM      5  C   LIG    1        0.388   7.308   1.345  0.00  0.00    +0.230 C 
ATOM      6  C   LIG    1       -1.645   4.705   0.044  0.00  0.00    +0.570 C 
ATOM      7  O   LIG    1       -2.821   4.404  -0.017  0.00  0.00    -0.520 OA
ATOM      8  O   LIG    1       -0.568   8.372   1.338  0.00  0.00    -0.360 OA
ENDROOT
BRANCH   6   9
ATOM      9  C   LIG    1       -0.611   3.651   0.002  0.00  0.00    -0.100 A 
ATOM     10  C   LIG    1        0.455   3.780  -0.870  0.00  0.00    +0.120 A 
ATOM     11  C   LIG    1        1.438   2.781  -0.905  0.00  0.00    +0.020 A 
ATOM     12  N   LIG    1        2.559   2.563  -1.577  0.00  0.00    -0.260 NA
ATOM     13  N   LIG    1        3.064   1.444  -1.189  0.00  0.00    -0.190 N 
ATOM     14  H   LIG    1        3.889   1.076  -1.543  0.00  0.00    +0.480 HD
ATOM     15  N   LIG    1        2.358   0.866  -0.281  0.00  0.00    -0.270 NA
ATOM     16  C   LIG    1        1.302   1.616  -0.017  0.00  0.00    +0.040 A 
ATOM     17  C   LIG    1        0.192   1.539   0.846  0.00  0.00    +0.090 A 
ATOM     18  C   LIG    1       -0.730   2.531   0.848  0.00  0.00    +0.090 A 
ENDBRANCH   6   9
BRANCH   1  21
ATOM     19  C   LIG    1       -4.423  10.472   2.129  0.00  0.00    +0.300 A 
ATOM     20  N   LIG    1       -3.844   9.322   2.363  0.00  0.00    -0.530 NA
ATOM     21  C   LIG    1       -2.832   9.144   1.515  0.00  0.00    +0.230 A 
ATOM     22  N   LIG    1       -2.757  10.179   0.721  0.00  0.00    -0.280 NA
ATOM     23  N   LIG    1       -3.784  11.058   1.102  0.00  0.00    -0.480 N 
ATOM     24  H   LIG    1       -3.992  11.918   0.703  0.00  0.00    +0.440 HD
BRANCH  19  26
ATOM     25  C   LIG    1       -5.466  12.558   2.971  0.00  0.00    +0.040 C 
ATOM     26  C   LIG    1       -5.603  11.037   2.877  0.00  0.00    +0.090 C 
ATOM     27  C   LIG    1       -6.893  10.686   2.133  0.00  0.00    +0.060 C 
ENDBRANCH  19  26
ENDBRANCH   1  21
TORSDOF 3
