REMARK  Name = ZINCrg000000tags.0
REMARK                            x       y       z     vdW  Elec       q    Type
REMARK                         _______ _______ _______ _____ _____    ______ ____
ROOT
ATOM      1  O   LIG    1       -1.040  -0.625   0.009  0.00  0.00    -0.540 OA
ATOM      2  C   LIG    1        0.002  -0.004   0.002  0.00  0.00    +0.520 C 
ATOM      3  N   LIG    1       -0.016   1.344   0.009  0.00  0.00    -0.710 N 
ATOM      4  H   LIG    1        0.817   1.840   0.004  0.00  0.00    +0.400 HD
ENDROOT
BRANCH   3   5
ATOM      5  C   LIG    1       -1.295   2.059   0.019  0.00  0.00    +0.340 C 
BRANCH   5   6
ATOM      6  C   LIG    1       -1.040   3.544   0.026  0.00  0.00    -0.150 A 
ATOM      7  C   LIG    1       -1.125   4.265   1.205  0.00  0.00    +0.110 A 
ATOM      8  C   LIG    1       -0.877   5.630   1.165  0.00  0.00    -0.020 A 
ATOM      9  C   LIG    1       -0.565   6.225  -0.042  0.00  0.00    +0.310 A 
ATOM     10  N   LIG    1       -0.496   5.513  -1.149  0.00  0.00    -0.500 NA
ATOM     11  C   LIG    1       -0.721   4.209  -1.151  0.00  0.00    +0.370 A 
BRANCH  11  12
ATOM     12  N   LIG    1       -0.636   3.493  -2.350  0.00  0.00    -0.340 N 
ATOM     13  C   LIG    1       -0.806   3.980  -3.595  0.00  0.00    +0.520 A 
ATOM     14  N   LIG    1       -0.645   2.994  -4.440  0.00  0.00    -0.530 NA
ATOM     15  C   LIG    1       -0.373   1.870  -3.778  0.00  0.00    +0.430 A 
ATOM     16  N   LIG    1       -0.352   2.126  -2.496  0.00  0.00    -0.300 NA
ENDBRANCH  11  12
ENDBRANCH   5   6
ENDBRANCH   3   5
BRANCH   2  17
ATOM     17  C   LIG    1        1.317  -0.740  -0.015  0.00  0.00    +0.050 C 
BRANCH  17  18
ATOM     18  C   LIG    1        1.058  -2.248  -0.020  0.00  0.00    +0.300 C 
BRANCH  18  19
ATOM     19  N   LIG    1        2.337  -2.963  -0.036  0.00  0.00    -0.740 N 
ATOM     20  H   LIG    1        3.170  -2.466  -0.042  0.00  0.00    +0.400 HD
ATOM     21  C   LIG    1        2.355  -4.310  -0.044  0.00  0.00    +0.510 C 
ATOM     22  O   LIG    1        1.313  -4.931  -0.037  0.00  0.00    -0.520 OA
BRANCH  21  23
ATOM     23  C   LIG    1        3.670  -5.046  -0.060  0.00  0.00    +0.100 C 
BRANCH  23  24
ATOM     24  C   LIG    1        3.415  -6.531  -0.066  0.00  0.00    -0.070 A 
ATOM     25  C   LIG    1        3.315  -7.220   1.129  0.00  0.00    +0.010 A 
ATOM     26  C   LIG    1        3.076  -8.581   1.124  0.00  0.00    +0.000 A 
ATOM     27  C   LIG    1        2.947  -9.256  -0.076  0.00  0.00    +0.000 A 
ATOM     28  C   LIG    1        3.053  -8.568  -1.270  0.00  0.00    +0.000 A 
ATOM     29  C   LIG    1        3.286  -7.206  -1.265  0.00  0.00    +0.010 A 
ENDBRANCH  23  24
ENDBRANCH  21  23
ENDBRANCH  18  19
ENDBRANCH  17  18
ENDBRANCH   2  17
TORSDOF 8
