REMARK  Name = ZINCpk00000y6wdo.0
REMARK                            x       y       z     vdW  Elec       q    Type
REMARK                         _______ _______ _______ _____ _____    ______ ____
ROOT
ATOM      1  C   LIG    1       -1.282   4.813  -1.279  0.00  0.00    -0.030 C 
ATOM      2  C   LIG    1       -2.338   5.765  -0.702  0.00  0.00    +0.070 C 
ATOM      3  C   LIG    1       -1.620   6.854   0.099  0.00  0.00    +0.090 C 
ATOM      4  C   LIG    1       -0.627   6.229   1.036  0.00  0.00    +0.510 C 
ATOM      5  N   LIG    1       -0.178   4.980   0.907  0.00  0.00    -0.600 N 
ATOM      6  C   LIG    1        0.828   4.510   1.862  0.00  0.00    +0.290 C 
ATOM      7  O   LIG    1       -0.211   6.896   1.959  0.00  0.00    -0.540 OA
ATOM      8  C   LIG    1       -0.626   4.053  -0.125  0.00  0.00    +0.370 C 
ENDROOT
BRANCH   8   9
ATOM      9  C   LIG    1        0.557   3.280  -0.647  0.00  0.00    +0.180 A 
ATOM     10  N   LIG    1        0.636   1.980  -0.738  0.00  0.00    -0.460 NA
ATOM     11  C   LIG    1        1.832   1.644  -1.245  0.00  0.00    +0.150 A 
ATOM     12  C   LIG    1        2.519   2.779  -1.477  0.00  0.00    +0.130 A 
ATOM     13  N   LIG    1        1.713   3.816  -1.094  0.00  0.00    -0.450 N 
ATOM     14  C   LIG    1        2.042   5.242  -1.158  0.00  0.00    +0.320 C 
ENDBRANCH   8   9
BRANCH   1  17
ATOM     15  N   LIG    1       -1.959   4.081  -3.542  0.00  0.00    -0.730 N 
ATOM     16  H   LIG    1       -1.546   4.886  -3.892  0.00  0.00    +0.400 HD
ATOM     17  C   LIG    1       -1.942   3.836  -2.217  0.00  0.00    +0.530 C 
ATOM     18  O   LIG    1       -2.458   2.829  -1.780  0.00  0.00    -0.510 OA
BRANCH  15  22
ATOM     19  C   LIG    1       -2.717   1.764  -7.044  0.00  0.00    +0.150 C 
ATOM     20  C   LIG    1       -3.709   2.869  -6.678  0.00  0.00    +0.050 C 
ATOM     21  C   LIG    1       -3.040   3.861  -5.725  0.00  0.00    +0.030 C 
ATOM     22  C   LIG    1       -2.600   3.131  -4.455  0.00  0.00    +0.230 C 
ATOM     23  C   LIG    1       -1.607   2.025  -4.821  0.00  0.00    +0.010 C 
ATOM     24  C   LIG    1       -2.276   1.033  -5.774  0.00  0.00    +0.010 C 
BRANCH  19  26
ATOM     25  C   LIG    1       -2.439   0.205  -8.843  0.00  0.00    +0.200 C 
ATOM     26  O   LIG    1       -3.342   0.837  -7.934  0.00  0.00    -0.380 OA
ENDBRANCH  19  26
ENDBRANCH  15  22
ENDBRANCH   1  17
TORSDOF 4
