REMARK  Name = ZINCqH0000051A9b.0
REMARK                            x       y       z     vdW  Elec       q    Type
REMARK                         _______ _______ _______ _____ _____    ______ ____
ROOT
ATOM      1  O   LIG    1        4.485   8.099  -0.000  0.00  0.00    -0.470 OA
ATOM      2  C   LIG    1        3.455   7.457   0.007  0.00  0.00    +0.520 C 
ENDROOT
BRANCH   2   3
ATOM      3  C   LIG    1        3.506   5.974  -0.001  0.00  0.00    +0.150 A 
ATOM      4  C   LIG    1        4.732   5.307  -0.017  0.00  0.00    +0.000 A 
ATOM      5  C   LIG    1        4.729   3.918  -0.023  0.00  0.00    +0.350 A 
ATOM      6  N   LIG    1        3.575   3.275  -0.015  0.00  0.00    -0.490 NA
ATOM      7  C   LIG    1        2.425   3.937  -0.001  0.00  0.00    +0.360 A 
ATOM      8  N   LIG    1        2.383   5.260   0.001  0.00  0.00    -0.470 NA
BRANCH   7   9
ATOM      9  C   LIG    1        1.153   3.174   0.008  0.00  0.00    -0.050 A 
ATOM     10  C   LIG    1        1.173   1.781   0.000  0.00  0.00    +0.100 A 
ATOM     11  C   LIG    1       -0.013   1.076   0.008  0.00  0.00    +0.020 A 
ATOM     12  C   LIG    1       -1.222   1.751   0.017  0.00  0.00    -0.010 A 
ATOM     13  C   LIG    1       -1.247   3.135   0.030  0.00  0.00    +0.020 A 
ATOM     14 CL   LIG    1       -2.711   0.858   0.019  0.00  0.00    -0.060 Cl
ATOM     15  C   LIG    1       -0.067   3.849   0.022  0.00  0.00    +0.090 A 
ENDBRANCH   7   9
ENDBRANCH   2   3
BRANCH   2  16
ATOM     16  O   LIG    1        2.267   8.090   0.021  0.00  0.00    -0.310 OA
BRANCH  16  17
ATOM     17  C   LIG    1        2.293   9.541   0.029  0.00  0.00    +0.170 C 
ATOM     18  C   LIG    1        1.033  10.100  -0.648  0.00  0.00    +0.140 C 
ATOM     19  C   LIG    1        0.314  10.913   0.401  0.00  0.00    -0.040 A 
ATOM     20  C   LIG    1       -0.866  11.628   0.328  0.00  0.00    +0.010 A 
ATOM     21  C   LIG    1       -1.341  12.307   1.436  0.00  0.00    +0.050 A 
ATOM     22  C   LIG    1       -0.636  12.275   2.626  0.00  0.00    +0.000 A 
ATOM     23  C   LIG    1        0.541  11.567   2.715  0.00  0.00    +0.090 A 
ATOM     24  C   LIG    1        1.031  10.874   1.596  0.00  0.00    -0.190 A 
ATOM     25  C   LIG    1        2.250  10.059   1.446  0.00  0.00    +0.390 C 
ATOM     26  O   LIG    1        3.073   9.840   2.309  0.00  0.00    -0.410 OA
ENDBRANCH  16  17
ENDBRANCH   2  16
TORSDOF 4
