REMARK  Name = ZINCc70000006ls2.0
REMARK                            x       y       z     vdW  Elec       q    Type
REMARK                         _______ _______ _______ _____ _____    ______ ____
ROOT
ATOM      1  C   LIG    1       -2.006   1.014   1.232  0.00  0.00    +0.090 C 
ATOM      2  C   LIG    1       -2.713   1.799   0.115  0.00  0.00    +0.120 C 
ATOM      3  C   LIG    1       -4.000   1.670   0.945  0.00  0.00    -0.070 C 
ATOM      4  C   LIG    1       -3.096   1.539   2.182  0.00  0.00    +0.080 C 
ENDROOT
BRANCH   1   5
ATOM      5  C   LIG    1       -2.044  -0.480   1.040  0.00  0.00    +0.460 C 
ATOM      6  O   LIG    1       -3.003  -1.114   1.411  0.00  0.00    -0.490 OA
BRANCH   5   8
ATOM      7  C   LIG    1       -1.115  -2.548   0.302  0.00  0.00    +0.270 C 
ATOM      8  O   LIG    1       -1.011  -1.108   0.455  0.00  0.00    -0.340 OA
ENDBRANCH   5   8
ENDBRANCH   1   5
BRANCH   3   9
ATOM      9  C   LIG    1       -4.846   2.918   0.945  0.00  0.00    +0.460 C 
ATOM     10  O   LIG    1       -6.050   2.831   0.920  0.00  0.00    -0.450 OA
ENDBRANCH   3   9
BRANCH   1  11
ATOM     11  O   LIG    1       -0.698   1.502   1.536  0.00  0.00    -0.350 OA
ATOM     12  C   LIG    1       -0.226   1.131   2.833  0.00  0.00    +0.210 C 
ENDBRANCH   1  11
TORSDOF 4
