REMARK  Name = ZINCpk00000xI2yi.0
REMARK                            x       y       z     vdW  Elec       q    Type
REMARK                         _______ _______ _______ _____ _____    ______ ____
ROOT
ATOM      1  C   LIG    1       -1.029  -3.665  -3.966  0.00  0.00    +0.100 A 
ATOM      2  C   LIG    1       -1.512  -3.955  -5.241  0.00  0.00    +0.090 A 
ATOM      3  C   LIG    1       -1.055  -5.096  -5.875  0.00  0.00    +0.000 A 
ATOM      4  C   LIG    1       -0.143  -5.917  -5.220  0.00  0.00    +0.280 A 
ATOM      5  N   LIG    1        0.290  -5.613  -4.006  0.00  0.00    -0.490 NA
ATOM      6  C   LIG    1       -0.121  -4.530  -3.374  0.00  0.00    +0.260 A 
ENDROOT
BRANCH   4   7
ATOM      7  N   LIG    1        0.319  -7.070  -5.847  0.00  0.00    -0.470 N 
ATOM      8  C   LIG    1        1.196  -6.739  -6.982  0.00  0.00    +0.250 C 
ATOM      9  C   LIG    1        2.315  -5.821  -6.486  0.00  0.00    +0.230 C 
ATOM     10  N   LIG    1        2.944  -6.395  -5.300  0.00  0.00    -0.720 N 
ATOM     11  H   LIG    1        3.821  -6.072  -5.039  0.00  0.00    +0.400 HD
ATOM     12  C   LIG    1        2.366  -7.345  -4.558  0.00  0.00    +0.510 C 
ATOM     13  O   LIG    1        2.945  -7.744  -3.571  0.00  0.00    -0.550 OA
ATOM     14  C   LIG    1        1.028  -7.938  -4.897  0.00  0.00    +0.290 C 
ENDBRANCH   4   7
BRANCH   1  17
ATOM     15  N   LIG    1       -2.280  -0.331  -3.339  0.00  0.00    -0.620 N 
ATOM     16  C   LIG    1       -1.766  -1.401  -3.979  0.00  0.00    +0.710 C 
ATOM     17  N   LIG    1       -1.461  -2.517  -3.288  0.00  0.00    -0.680 N 
ATOM     18  H   LIG    1       -1.540  -2.525  -2.321  0.00  0.00    +0.410 HD
ATOM     19  O   LIG    1       -1.578  -1.358  -5.179  0.00  0.00    -0.560 OA
ATOM     20  C   LIG    1       -2.507  -0.382  -1.893  0.00  0.00    +0.280 C 
BRANCH  15  21
ATOM     21  C   LIG    1       -2.612   0.882  -4.091  0.00  0.00    +0.410 C 
BRANCH  21  26
ATOM     22  C   LIG    1       -7.391   0.188  -6.579  0.00  0.00    +0.180 C 
ATOM     23  C   LIG    1       -6.200   0.483  -5.704  0.00  0.00    +0.040 A 
ATOM     24  N   LIG    1       -6.257   1.047  -4.545  0.00  0.00    -0.480 NA
ATOM     25  C   LIG    1       -5.116   1.232  -3.910  0.00  0.00    +0.230 A 
ATOM     26  C   LIG    1       -4.038   0.801  -4.571  0.00  0.00    -0.260 A 
ATOM     27  S   LIG    1       -4.578   0.121  -6.105  0.00  0.00    +0.160 S 
ENDBRANCH  21  26
ENDBRANCH  15  21
ENDBRANCH   1  17
TORSDOF 4
