REMARK  Name = ZINCrg000000siGn.0
REMARK                            x       y       z     vdW  Elec       q    Type
REMARK                         _______ _______ _______ _____ _____    ______ ____
ROOT
ATOM      1  C   LIG    1        5.574   1.870  -0.042  0.00  0.00    +0.060 C 
ATOM      2  N   LIG    1        6.328   0.821  -0.050  0.00  0.00    -0.150 NA
ATOM      3  N   LIG    1        7.693   1.104  -0.067  0.00  0.00    -0.450 N 
ATOM      4  C   LIG    1        7.877   2.563  -0.061  0.00  0.00    +0.200 C 
ATOM      5  C   LIG    1        6.437   3.112  -0.043  0.00  0.00    +0.120 C 
ENDROOT
BRANCH   3   6
ATOM      6  C   LIG    1        8.718   0.156  -0.082  0.00  0.00    +0.230 A 
ATOM      7  C   LIG    1       10.045   0.567  -0.098  0.00  0.00    -0.060 A 
ATOM      8  C   LIG    1       11.057  -0.373  -0.107  0.00  0.00    +0.040 A 
ATOM      9  C   LIG    1       10.749  -1.722  -0.111  0.00  0.00    -0.040 A 
ATOM     10  C   LIG    1        9.429  -2.134  -0.101  0.00  0.00    +0.050 A 
ATOM     11  C   LIG    1        8.413  -1.200  -0.086  0.00  0.00    -0.020 A 
ENDBRANCH   3   6
BRANCH   4  12
ATOM     12  C   LIG    1        8.626   3.001   1.172  0.00  0.00    +0.510 C 
ATOM     13  O   LIG    1        8.757   2.237   2.105  0.00  0.00    -0.510 OA
ATOM     14  N   LIG    1        9.149   4.241   1.238  0.00  0.00    -0.850 N 
ATOM     15  H   LIG    1        9.631   4.523   2.031  0.00  0.00    +0.410 HD
ATOM     16  H   LIG    1        9.044   4.852   0.492  0.00  0.00    +0.400 HD
ENDBRANCH   4  12
BRANCH   1  17
ATOM     17  C   LIG    1        4.106   1.858  -0.028  0.00  0.00    +0.570 C 
ATOM     18  O   LIG    1        3.487   2.911  -0.015  0.00  0.00    -0.540 OA
BRANCH  17  26
ATOM     19  C   LIG    1       -1.817  -3.322   0.001  0.00  0.00    +0.130 C 
ATOM     20  C   LIG    1       -0.724  -2.285  -0.003  0.00  0.00    +0.030 C 
ATOM     21  C   LIG    1       -1.039  -0.966   0.007  0.00  0.00    +0.000 C 
ATOM     22  C   LIG    1        0.002  -0.004   0.002  0.00  0.00    +0.350 C 
ATOM     23  N   LIG    1       -0.016   1.310   0.009  0.00  0.00    -0.420 NA
ATOM     24  N   LIG    1        1.309   1.766  -0.001  0.00  0.00    -0.330 NA
ATOM     25  C   LIG    1        2.114   0.684  -0.015  0.00  0.00    +0.520 C 
ATOM     26  N   LIG    1        3.446   0.695  -0.028  0.00  0.00    -0.650 NA
ATOM     27  H   LIG    1       -0.809   1.868   0.016  0.00  0.00    +0.470 HD
ATOM     28  N   LIG    1        1.317  -0.424  -0.013  0.00  0.00    -0.400 N 
ATOM     29  C   LIG    1        1.611  -1.764  -0.023  0.00  0.00    +0.340 C 
ATOM     30  C   LIG    1        0.627  -2.683  -0.018  0.00  0.00    -0.010 C 
ENDBRANCH  17  26
ENDBRANCH   1  17
TORSDOF 4
