REMARK  Name = ZINCvU0000000COr.0
REMARK                            x       y       z     vdW  Elec       q    Type
REMARK                         _______ _______ _______ _____ _____    ______ ____
ROOT
ATOM      1  N   LIG    1       -4.068   1.771   1.028  0.00  0.00    -0.740 N 
ATOM      2  H   LIG    1       -3.474   2.494   1.284  0.00  0.00    +0.400 HD
ATOM      3  C   LIG    1       -5.290   1.672   1.587  0.00  0.00    +0.710 C 
ATOM      4  N   LIG    1       -5.654   2.523   2.567  0.00  0.00    -0.630 N 
ATOM      5  C   LIG    1       -4.771   3.628   2.964  0.00  0.00    +0.260 C 
ATOM      6  C   LIG    1       -4.538   3.562   4.472  0.00  0.00    +0.020 C 
ATOM      7  C   LIG    1       -5.887   3.544   5.194  0.00  0.00    -0.030 C 
ATOM      8  C   LIG    1       -6.678   2.304   4.770  0.00  0.00    +0.030 C 
ATOM      9  C   LIG    1       -6.938   2.360   3.262  0.00  0.00    +0.300 C 
ATOM     10  O   LIG    1       -6.065   0.814   1.208  0.00  0.00    -0.580 OA
ENDROOT
BRANCH   1  11
ATOM     11  C   LIG    1       -3.636   0.786   0.032  0.00  0.00    +0.370 C 
BRANCH  11  14
ATOM     12  C   LIG    1       -1.954  -1.826  -0.022  0.00  0.00    +0.120 C 
ATOM     13  C   LIG    1       -1.417  -0.418  -0.007  0.00  0.00    -0.150 A 
ATOM     14  C   LIG    1       -2.131   0.715   0.016  0.00  0.00    +0.020 A 
ATOM     15  O   LIG    1       -1.310   1.780   0.029  0.00  0.00    -0.190 OA
ATOM     16  C   LIG    1       -0.019   1.392   0.005  0.00  0.00    +0.060 A 
ATOM     17  C   LIG    1        1.186   2.083   0.003  0.00  0.00    +0.020 A 
ATOM     18  C   LIG    1        2.377   1.390  -0.019  0.00  0.00    +0.050 A 
ATOM     19  C   LIG    1        2.389   0.003  -0.039  0.00  0.00    -0.010 A 
ATOM     20  C   LIG    1        1.206  -0.702  -0.037  0.00  0.00    +0.060 A 
ATOM     21  C   LIG    1       -0.006  -0.013  -0.015  0.00  0.00    -0.130 A 
ENDBRANCH  11  14
BRANCH  11  22
ATOM     22  C   LIG    1       -4.142   1.203  -1.350  0.00  0.00    -0.040 C 
ATOM     23  C   LIG    1       -5.670   1.275  -1.334  0.00  0.00    +0.050 C 
ATOM     24  C   LIG    1       -3.691   0.175  -2.390  0.00  0.00    +0.030 C 
ENDBRANCH  11  22
ENDBRANCH   1  11
BRANCH   7  25
ATOM     25  C   LIG    1       -5.656   3.509   6.706  0.00  0.00    +0.260 C 
BRANCH  25  26
ATOM     26  C   LIG    1       -4.985   4.786   7.141  0.00  0.00    -0.120 A 
ATOM     27  C   LIG    1       -3.622   4.942   6.976  0.00  0.00    +0.010 A 
ATOM     28  C   LIG    1       -3.008   6.116   7.372  0.00  0.00    +0.000 A 
ATOM     29  C   LIG    1       -3.756   7.130   7.941  0.00  0.00    +0.000 A 
ATOM     30  C   LIG    1       -5.119   6.972   8.110  0.00  0.00    +0.000 A 
ATOM     31  C   LIG    1       -5.733   5.800   7.711  0.00  0.00    +0.010 A 
ENDBRANCH  25  26
BRANCH  25  32
ATOM     32  O   LIG    1       -4.820   2.397   7.034  0.00  0.00    -0.550 OA
ATOM     33  H   LIG    1       -3.950   2.421   6.613  0.00  0.00    +0.370 HD
ENDBRANCH  25  32
ENDBRANCH   7  25
TORSDOF 6
