REMARK  Name = ZINCpe000000YCYX.0
REMARK                            x       y       z     vdW  Elec       q    Type
REMARK                         _______ _______ _______ _____ _____    ______ ____
ROOT
ATOM      1  C   LIG    1        1.234   1.705  -0.001  0.00  0.00    +0.200 A 
ATOM      2  N   LIG    1       -0.015   1.284   0.009  0.00  0.00    -0.280 NA
ATOM      3  N   LIG    1        0.002  -0.004   0.002  0.00  0.00    -0.130 N 
ATOM      4  N   LIG    1        1.222  -0.414  -0.012  0.00  0.00    -0.050 NA
ATOM      5  N   LIG    1        2.008   0.610  -0.014  0.00  0.00    -0.270 NA
ENDROOT
BRANCH   1   9
ATOM      6  C   LIG    1        2.556   5.751   0.005  0.00  0.00    -0.120 A 
ATOM      7  C   LIG    1        3.489   4.711  -0.008  0.00  0.00    +0.090 A 
ATOM      8  C   LIG    1        3.060   3.402  -0.009  0.00  0.00    +0.070 A 
ATOM      9  C   LIG    1        1.695   3.115   0.002  0.00  0.00    +0.010 A 
ATOM     10  C   LIG    1        0.763   4.153   0.010  0.00  0.00    +0.050 A 
ATOM     11  C   LIG    1        1.189   5.462   0.017  0.00  0.00    +0.040 A 
BRANCH   6  15
ATOM     12  N   LIG    1        2.115   8.158   0.020  0.00  0.00    -0.850 N 
ATOM     13  H   LIG    1        2.416   9.080   0.021  0.00  0.00    +0.410 HD
ATOM     14  H   LIG    1        1.165   7.958   0.028  0.00  0.00    +0.400 HD
ATOM     15  C   LIG    1        3.015   7.155   0.007  0.00  0.00    +0.560 C 
ATOM     16  O   LIG    1        4.204   7.406  -0.003  0.00  0.00    -0.530 OA
ENDBRANCH   6  15
ENDBRANCH   1   9
BRANCH   3  17
ATOM     17  C   LIG    1       -1.181  -0.868   0.009  0.00  0.00    +0.360 C 
BRANCH  17  18
ATOM     18  C   LIG    1       -1.607  -1.160  -1.431  0.00  0.00    +0.220 C 
BRANCH  18  19
ATOM     19  O   LIG    1       -2.027   0.052  -2.060  0.00  0.00    -0.540 OA
ATOM     20  H   LIG    1       -2.775   0.483  -1.623  0.00  0.00    +0.380 HD
ENDBRANCH  18  19
BRANCH  18  21
ATOM     21  C   LIG    1       -2.765  -2.161  -1.428  0.00  0.00    +0.180 C 
BRANCH  21  22
ATOM     22  O   LIG    1       -3.086  -2.523  -2.772  0.00  0.00    -0.300 OA
BRANCH  22  23
ATOM     23  C   LIG    1       -4.100  -3.411  -2.947  0.00  0.00    +0.130 A 
ATOM     24  C   LIG    1       -4.769  -3.927  -1.846  0.00  0.00    -0.080 A 
ATOM     25  C   LIG    1       -5.803  -4.825  -2.026  0.00  0.00    +0.050 A 
ATOM     26  C   LIG    1       -6.165  -5.218  -3.302  0.00  0.00    -0.030 A 
ATOM     27  C   LIG    1       -5.496  -4.709  -4.400  0.00  0.00    +0.050 A 
ATOM     28  C   LIG    1       -4.464  -3.807  -4.225  0.00  0.00    -0.020 A 
ENDBRANCH  22  23
ENDBRANCH  21  22
ENDBRANCH  18  21
ENDBRANCH  17  18
ENDBRANCH   3  17
TORSDOF 8
