REMARK  Name = ZINCpk00000KfKpU.0
REMARK                            x       y       z     vdW  Elec       q    Type
REMARK                         _______ _______ _______ _____ _____    ______ ____
ROOT
ATOM      1  N   LIG    1        4.207   1.971  -0.691  0.00  0.00    -0.460 N 
ATOM      2  C   LIG    1        5.034   1.563   0.452  0.00  0.00    +0.210 C 
ATOM      3  C   LIG    1        6.237   2.505   0.569  0.00  0.00    +0.300 C 
ATOM      4  N   LIG    1        5.744   3.889   0.621  0.00  0.00    -0.610 N 
ATOM      5  C   LIG    1        4.800   4.331  -0.417  0.00  0.00    +0.310 C 
ATOM      6  C   LIG    1        6.147   4.731   1.593  0.00  0.00    +0.600 C 
ATOM      7  O   LIG    1        5.791   5.894   1.576  0.00  0.00    -0.530 OA
ATOM      8  C   LIG    1        3.654   3.318  -0.495  0.00  0.00    +0.220 C 
ENDROOT
BRANCH   1  13
ATOM      9  C   LIG    1        0.953   0.605  -1.175  0.00  0.00    +0.390 A 
ATOM     10  C   LIG    1        1.258  -0.739  -1.388  0.00  0.00    -0.130 A 
ATOM     11  C   LIG    1        2.584  -1.128  -1.358  0.00  0.00    +0.230 A 
ATOM     12  N   LIG    1        3.520  -0.219  -1.128  0.00  0.00    -0.550 NA
ATOM     13  C   LIG    1        3.200   1.051  -0.928  0.00  0.00    +0.530 A 
ATOM     14  C   LIG    1        2.961  -2.569  -1.583  0.00  0.00    +0.150 C 
ATOM     15  N   LIG    1        1.941   1.462  -0.950  0.00  0.00    -0.610 NA
BRANCH   9  16
ATOM     16  O   LIG    1       -0.333   1.030  -1.201  0.00  0.00    -0.300 OA
BRANCH  16  18
ATOM     17  C   LIG    1       -2.062   2.711  -1.041  0.00  0.00    +0.070 C 
ATOM     18  C   LIG    1       -0.561   2.422  -0.973  0.00  0.00    +0.200 C 
ENDBRANCH  16  18
ENDBRANCH   9  16
ENDBRANCH   1  13
BRANCH   6  19
ATOM     19  C   LIG    1        7.018   4.243   2.678  0.00  0.00    -0.280 A 
ATOM     20  C   LIG    1        8.174   3.504   2.530  0.00  0.00    +0.290 A 
ATOM     21  N   LIG    1        8.661   3.269   3.759  0.00  0.00    -0.460 N 
ATOM     22  H   LIG    1        9.469   2.773   3.963  0.00  0.00    +0.450 HD
ATOM     23  N   LIG    1        7.803   3.856   4.696  0.00  0.00    -0.290 NA
ATOM     24  C   LIG    1        6.822   4.438   4.063  0.00  0.00    +0.130 A 
BRANCH  24  25
ATOM     25  C   LIG    1        5.679   5.187   4.699  0.00  0.00    +0.130 C 
ATOM     26  C   LIG    1        4.527   4.219   4.978  0.00  0.00    +0.040 C 
ENDBRANCH  24  25
ENDBRANCH   6  19
TORSDOF 5
