REMARK  Name = ZINCrg000000qmAX.0
REMARK                            x       y       z     vdW  Elec       q    Type
REMARK                         _______ _______ _______ _____ _____    ______ ____
ROOT
ATOM      1  C   LIG    1       -1.229   1.759   0.017  0.00  0.00    -0.110 A 
ATOM      2  C   LIG    1       -1.240   3.155   0.030  0.00  0.00    +0.050 A 
ATOM      3  C   LIG    1       -0.050   3.854   0.023  0.00  0.00    +0.040 A 
ATOM      4  C   LIG    1        1.155   3.177   0.008  0.00  0.00    +0.020 A 
ATOM      5  C   LIG    1        1.177   1.787   0.000  0.00  0.00    +0.150 A 
ATOM      6  C   LIG    1       -0.013   1.076   0.008  0.00  0.00    +0.100 A 
ENDROOT
BRANCH   5   7
ATOM      7  N   LIG    1        2.401   1.105  -0.014  0.00  0.00    -0.340 N 
ATOM      8  N   LIG    1        2.669  -0.108   0.628  0.00  0.00    -0.290 NA
ATOM      9  C   LIG    1        3.907  -0.449   0.401  0.00  0.00    +0.340 A 
ATOM     10  C   LIG    1        4.500   0.546  -0.410  0.00  0.00    -0.260 A 
ATOM     11  C   LIG    1        3.522   1.506  -0.657  0.00  0.00    +0.430 A 
BRANCH  11  12
ATOM     12  N   LIG    1        3.669   2.653  -1.412  0.00  0.00    -0.830 N 
ATOM     13  H   LIG    1        4.520   2.850  -1.834  0.00  0.00    +0.420 HD
ATOM     14  H   LIG    1        2.921   3.262  -1.521  0.00  0.00    +0.410 HD
ENDBRANCH  11  12
BRANCH  10  15
ATOM     15  C   LIG    1        5.848   0.562  -0.890  0.00  0.00    +0.290 C 
ATOM     16  N   LIG    1        6.918   0.575  -1.272  0.00  0.00    -0.440 NA
ENDBRANCH  10  15
ENDBRANCH   5   7
BRANCH   1  19
ATOM     17  N   LIG    1       -3.676   1.670   0.029  0.00  0.00    -0.710 N 
ATOM     18  H   LIG    1       -3.685   2.640   0.034  0.00  0.00    +0.400 HD
ATOM     19  C   LIG    1       -2.502   1.007   0.019  0.00  0.00    +0.570 C 
ATOM     20  O   LIG    1       -2.490  -0.208   0.013  0.00  0.00    -0.520 OA
BRANCH  17  21
ATOM     21  C   LIG    1       -4.937   0.925   0.030  0.00  0.00    +0.200 C 
ATOM     22  C   LIG    1       -5.016   0.051  -1.223  0.00  0.00    +0.050 C 
BRANCH  21  23
ATOM     23  C   LIG    1       -5.004   0.038   1.275  0.00  0.00    +0.190 C 
BRANCH  23  25
ATOM     24  C   LIG    1       -4.985   0.119   3.671  0.00  0.00    +0.200 C 
ATOM     25  O   LIG    1       -4.931   0.854   2.446  0.00  0.00    -0.390 OA
ENDBRANCH  23  25
ENDBRANCH  21  23
BRANCH  21  26
ATOM     26  C   LIG    1       -6.110   1.908   0.041  0.00  0.00    +0.110 C 
BRANCH  26  27
ATOM     27  C   LIG    1       -7.407   1.142   0.043  0.00  0.00    +0.470 C 
ATOM     28  O   LIG    1       -7.396  -0.066   0.037  0.00  0.00    -0.500 OA
BRANCH  27  29
ATOM     29  O   LIG    1       -8.576   1.802   0.052  0.00  0.00    -0.360 OA
ATOM     30  C   LIG    1       -9.786   0.999   0.054  0.00  0.00    +0.270 C 
ENDBRANCH  27  29
ENDBRANCH  26  27
ENDBRANCH  21  26
ENDBRANCH  17  21
ENDBRANCH   1  19
TORSDOF 10
