REMARK  Name = ZINCvU0000000GA0.0
REMARK                            x       y       z     vdW  Elec       q    Type
REMARK                         _______ _______ _______ _____ _____    ______ ____
ROOT
ATOM      1  N   LIG    1        1.834  -1.596   0.156  0.00  0.00    -0.530 N 
ATOM      2  C   LIG    1        2.976  -0.861   0.138  0.00  0.00    +0.600 A 
ATOM      3  N   LIG    1        2.972   0.417   0.374  0.00  0.00    -0.500 NA
ATOM      4  C   LIG    1        1.831   1.085   0.650  0.00  0.00    +0.070 A 
ATOM      5  C   LIG    1        0.625   0.395   0.685  0.00  0.00    -0.220 A 
ATOM      6  C   LIG    1       -0.500   1.268   0.991  0.00  0.00    +0.010 A 
ATOM      7  C   LIG    1       -0.169   2.544   1.186  0.00  0.00    -0.040 A 
ATOM      8  S   LIG    1        1.557   2.787   0.999  0.00  0.00    +0.220 S 
ATOM      9  C   LIG    1        0.651  -1.009   0.423  0.00  0.00    +0.550 A 
ATOM     10  O   LIG    1       -0.377  -1.663   0.441  0.00  0.00    -0.490 OA
ENDROOT
BRANCH   6  11
ATOM     11  C   LIG    1       -1.896   0.777   1.081  0.00  0.00    -0.050 A 
ATOM     12  C   LIG    1       -2.431  -0.003   0.056  0.00  0.00    +0.100 A 
ATOM     13  C   LIG    1       -3.728  -0.462   0.148  0.00  0.00    -0.010 A 
ATOM     14  C   LIG    1       -4.504  -0.140   1.250  0.00  0.00    +0.110 A 
ATOM     15  C   LIG    1       -3.978   0.639   2.268  0.00  0.00    -0.020 A 
ATOM     16  F   LIG    1       -5.776  -0.588   1.332  0.00  0.00    -0.140 F 
ATOM     17  C   LIG    1       -2.680   1.098   2.188  0.00  0.00    +0.060 A 
ENDBRANCH   6  11
BRANCH   1  18
ATOM     18  C   LIG    1        1.889  -3.034  -0.116  0.00  0.00    +0.420 C 
BRANCH  18  21
ATOM     19  C   LIG    1        0.807  -3.578  -3.523  0.00  0.00    +0.240 A 
ATOM     20  N   LIG    1        0.556  -3.376  -2.251  0.00  0.00    -0.440 NA
ATOM     21  C   LIG    1        1.721  -3.273  -1.594  0.00  0.00    -0.040 A 
ATOM     22  C   LIG    1        2.714  -3.426  -2.490  0.00  0.00    +0.170 A 
ATOM     23  O   LIG    1        2.140  -3.617  -3.694  0.00  0.00    -0.190 OA
BRANCH  19  28
ATOM     24  C   LIG    1       -3.133  -4.222  -7.667  0.00  0.00    +0.100 C 
ATOM     25  C   LIG    1       -2.101  -4.053  -6.582  0.00  0.00    -0.060 A 
ATOM     26  C   LIG    1       -2.232  -4.749  -5.393  0.00  0.00    +0.000 A 
ATOM     27  C   LIG    1       -1.287  -4.604  -4.398  0.00  0.00    +0.070 A 
ATOM     28  C   LIG    1       -0.205  -3.743  -4.587  0.00  0.00    -0.030 A 
ATOM     29  C   LIG    1       -0.080  -3.044  -5.788  0.00  0.00    -0.040 A 
ATOM     30  C   LIG    1        1.089  -2.116  -6.004  0.00  0.00    +0.090 C 
ATOM     31  C   LIG    1       -1.027  -3.203  -6.778  0.00  0.00    +0.010 A 
ENDBRANCH  19  28
ENDBRANCH  18  21
ENDBRANCH   1  18
TORSDOF 4
