REMARK  Name = ZINCpk000000mQ3g.0
REMARK                            x       y       z     vdW  Elec       q    Type
REMARK                         _______ _______ _______ _____ _____    ______ ____
ROOT
ATOM      1  C   LIG    1       -0.042   3.956   1.094  0.00  0.00    +0.250 C 
ATOM      2  C   LIG    1        1.221   3.095   1.174  0.00  0.00    +0.010 C 
ATOM      3  C   LIG    1        1.238   2.109   0.002  0.00  0.00    +0.290 C 
ATOM      4  N   LIG    1       -0.016   1.344   0.009  0.00  0.00    -0.610 N 
ATOM      5  C   LIG    1       -1.290   2.075   0.019  0.00  0.00    +0.280 C 
ATOM      6  C   LIG    1        0.002  -0.004   0.002  0.00  0.00    +0.500 C 
ATOM      7  O   LIG    1        1.060  -0.596  -0.011  0.00  0.00    -0.500 OA
ATOM      8  C   LIG    1       -1.279   3.061   1.198  0.00  0.00    +0.010 C 
ENDROOT
BRANCH   1  11
ATOM      9  C   LIG    1       -0.069   7.237   3.065  0.00  0.00    +0.100 C 
ATOM     10  C   LIG    1       -0.066   6.243   1.932  0.00  0.00    +0.510 C 
ATOM     11  N   LIG    1       -0.045   4.922   2.195  0.00  0.00    -0.620 N 
ATOM     12  C   LIG    1       -0.025   4.451   3.583  0.00  0.00    +0.280 C 
ATOM     13  O   LIG    1       -0.082   6.633   0.784  0.00  0.00    -0.540 OA
ENDBRANCH   1  11
BRANCH   6  14
ATOM     14  C   LIG    1       -1.293  -0.775   0.010  0.00  0.00    +0.360 C 
BRANCH  14  15
ATOM     15  N   LIG    1       -1.005  -2.212  -0.000  0.00  0.00    -0.370 N 
ATOM     16  C   LIG    1       -1.441  -3.126   0.885  0.00  0.00    +0.480 A 
ATOM     17  N   LIG    1       -0.973  -4.294   0.533  0.00  0.00    -0.530 NA
ATOM     18  C   LIG    1       -0.224  -4.168  -0.571  0.00  0.00    +0.260 A 
ATOM     19  N   LIG    1       -0.216  -2.904  -0.933  0.00  0.00    -0.280 NA
BRANCH  18  20
ATOM     20  C   LIG    1        0.481  -5.272  -1.269  0.00  0.00    -0.020 A 
ATOM     21  C   LIG    1        1.227  -5.011  -2.416  0.00  0.00    +0.050 A 
ATOM     22  C   LIG    1        1.884  -6.040  -3.058  0.00  0.00    +0.010 A 
ATOM     23  C   LIG    1        1.794  -7.332  -2.571  0.00  0.00    +0.020 A 
ATOM     24  C   LIG    1        1.051  -7.598  -1.436  0.00  0.00    +0.000 A 
ATOM     25  C   LIG    1        0.394  -6.575  -0.782  0.00  0.00    +0.050 A 
ENDBRANCH  18  20
ENDBRANCH  14  15
ENDBRANCH   6  14
TORSDOF 4
