REMARK  Name = ZINCnE00000dSSVK.0
REMARK                            x       y       z     vdW  Elec       q    Type
REMARK                         _______ _______ _______ _____ _____    ______ ____
ROOT
ATOM      1  C   LIG    1       -3.290   2.962  -0.974  0.00  0.00    +0.550 C 
ATOM      2  N   LIG    1       -4.342   2.640  -1.752  0.00  0.00    -0.660 N 
ATOM      3  H   LIG    1       -4.281   1.891  -2.365  0.00  0.00    +0.410 HD
ATOM      4  O   LIG    1       -3.332   3.959  -0.276  0.00  0.00    -0.520 OA
ENDROOT
BRANCH   2   5
ATOM      5  C   LIG    1       -5.524   3.387  -1.676  0.00  0.00    +0.120 A 
ATOM      6  C   LIG    1       -6.301   3.574  -2.813  0.00  0.00    -0.010 A 
ATOM      7  C   LIG    1       -7.467   4.309  -2.743  0.00  0.00    +0.050 A 
ATOM      8  C   LIG    1       -7.863   4.862  -1.535  0.00  0.00    +0.040 A 
ATOM      9  N   LIG    1       -8.960   5.636  -1.151  0.00  0.00    -0.540 NA
ATOM     10  C   LIG    1       -8.833   5.894   0.165  0.00  0.00    +0.400 A 
ATOM     11  O   LIG    1       -7.709   5.321   0.627  0.00  0.00    -0.230 OA
ATOM     12  S   LIG    1       -9.932   6.811   1.104  0.00  0.00    -0.700 S 
ATOM     13  C   LIG    1       -7.087   4.677  -0.391  0.00  0.00    +0.000 A 
ATOM     14  C   LIG    1       -5.920   3.934  -0.464  0.00  0.00    +0.050 A 
ENDBRANCH   2   5
BRANCH   1  16
ATOM     15  C   LIG    1       -1.080   2.464  -0.188  0.00  0.00    +0.170 C 
ATOM     16  C   LIG    1       -2.135   2.141  -0.969  0.00  0.00    -0.090 C 
BRANCH  15  24
ATOM     17  C   LIG    1        1.908   3.464  -0.563  0.00  0.00    +0.180 C 
ATOM     18  C   LIG    1        1.454   2.042  -0.350  0.00  0.00    +0.110 A 
ATOM     19  N   LIG    1        2.226   0.993  -0.289  0.00  0.00    -0.280 NA
ATOM     20  N   LIG    1        1.436  -0.143  -0.083  0.00  0.00    -0.360 N 
ATOM     21  C   LIG    1        0.148   0.238  -0.018  0.00  0.00    +0.140 A 
ATOM     22 CL   LIG    1       -1.221  -0.800   0.227  0.00  0.00    +0.010 Cl
ATOM     23  C   LIG    1        1.929  -1.517   0.042  0.00  0.00    +0.360 C 
ATOM     24  C   LIG    1        0.117   1.613  -0.182  0.00  0.00    -0.200 A 
ENDBRANCH  15  24
ENDBRANCH   1  16
TORSDOF 3
