REMARK  Name = ZINCpk000000obdq.0
REMARK                            x       y       z     vdW  Elec       q    Type
REMARK                         _______ _______ _______ _____ _____    ______ ____
ROOT
ATOM      1  S   LIG    1       -0.602   5.526   3.317  0.00  0.00    +2.690 S 
ATOM      2  O   LIG    1       -1.167   5.570   4.620  0.00  0.00    -0.950 OA
ATOM      3  O   LIG    1       -1.118   6.267   2.220  0.00  0.00    -0.950 OA
ENDROOT
BRANCH   1   4
ATOM      4  C   LIG    1        1.085   6.004   3.490  0.00  0.00    -0.700 A 
ATOM      5  C   LIG    1        1.771   6.526   2.409  0.00  0.00    +0.190 A 
ATOM      6  C   LIG    1        3.094   6.901   2.546  0.00  0.00    -0.010 A 
ATOM      7  C   LIG    1        3.732   6.755   3.763  0.00  0.00    +0.180 A 
ATOM      8  C   LIG    1        3.047   6.232   4.844  0.00  0.00    -0.700 A 
ATOM      9  C   LIG    1        1.722   5.862   4.710  0.00  0.00    +0.240 A 
BRANCH   8  10
ATOM     10  S   LIG    1        3.860   6.045   6.396  0.00  0.00    +2.700 S 
ATOM     11  O   LIG    1        5.251   5.970   6.114  0.00  0.00    -0.960 OA
ATOM     12  O   LIG    1        3.154   5.033   7.100  0.00  0.00    -0.950 OA
BRANCH  10  13
ATOM     13  N   LIG    1        3.631   7.450   7.242  0.00  0.00    -1.250 NA
ATOM     14  H   LIG    1        4.005   7.547   8.132  0.00  0.00    +0.420 HD
ATOM     15  H   LIG    1        3.121   8.176   6.849  0.00  0.00    +0.420 HD
ENDBRANCH  10  13
ENDBRANCH   8  10
ENDBRANCH   1   4
BRANCH   1  16
ATOM     16  N   LIG    1       -0.615   3.936   2.854  0.00  0.00    -1.090 NA
ATOM     17  H   LIG    1       -0.959   3.688   1.982  0.00  0.00    +0.430 HD
BRANCH  16  22
ATOM     18  C   LIG    1       -0.876   1.575   3.674  0.00  0.00    -0.070 C 
ATOM     19  C   LIG    1        0.115   1.166   2.571  0.00  0.00    +0.160 C 
ATOM     20  C   LIG    1        1.114   2.144   3.212  0.00  0.00    -0.060 C 
ATOM     21  C   LIG    1        1.982   1.509   4.300  0.00  0.00    +0.060 C 
ATOM     22  C   LIG    1       -0.108   2.904   3.762  0.00  0.00    +0.250 C 
BRANCH  18  24
ATOM     23  C   LIG    1       -2.850   0.367   2.733  0.00  0.00    +0.000 C 
ATOM     24  C   LIG    1       -2.315   1.729   3.179  0.00  0.00    +0.040 C 
ENDBRANCH  18  24
BRANCH  19  25
ATOM     25  O   LIG    1       -0.300   1.549   1.259  0.00  0.00    -0.370 OA
ATOM     26  C   LIG    1        0.188   0.695   0.223  0.00  0.00    +0.200 C 
ENDBRANCH  19  25
BRANCH  18  27
ATOM     27  C   LIG    1       -0.771   0.720   4.939  0.00  0.00    +0.040 C 
ATOM     28  C   LIG    1       -1.892   1.104   5.908  0.00  0.00    +0.020 C 
ENDBRANCH  18  27
ENDBRANCH  16  22
ENDBRANCH   1  16
TORSDOF 8
