REMARK  Name = ZINCtV00000tHGz3.0
REMARK                            x       y       z     vdW  Elec       q    Type
REMARK                         _______ _______ _______ _____ _____    ______ ____
ROOT
ATOM      1  C   LIG    1       -1.681   4.371   0.248  0.00  0.00    +0.570 C 
ATOM      2  N   LIG    1       -2.785   3.600   0.310  0.00  0.00    -0.600 N 
ATOM      3  O   LIG    1       -0.586   3.881   0.446  0.00  0.00    -0.520 OA
ENDROOT
BRANCH   1   7
ATOM      4  C   LIG    1       -2.026   8.516  -0.643  0.00  0.00    -0.100 A 
ATOM      5  C   LIG    1       -3.170   7.719  -0.575  0.00  0.00    +0.010 A 
ATOM      6  C   LIG    1       -3.058   6.377  -0.281  0.00  0.00    +0.110 A 
ATOM      7  C   LIG    1       -1.801   5.813  -0.062  0.00  0.00    -0.160 A 
ATOM      8  C   LIG    1       -0.657   6.610  -0.129  0.00  0.00    +0.100 A 
ATOM      9  C   LIG    1       -0.768   7.953  -0.418  0.00  0.00    +0.020 A 
BRANCH   4  11
ATOM     10  O   LIG    1       -2.990  10.342  -1.738  0.00  0.00    -0.440 OA
ATOM     11  C   LIG    1       -2.146   9.958  -0.953  0.00  0.00    +0.440 C 
BRANCH  11  12
ATOM     12  C   LIG    1       -1.239  10.930  -0.309  0.00  0.00    -0.170 A 
ATOM     13  C   LIG    1       -0.215  10.485   0.530  0.00  0.00    +0.060 A 
ATOM     14  C   LIG    1        0.631  11.398   1.125  0.00  0.00    +0.000 A 
ATOM     15  C   LIG    1        0.460  12.752   0.899  0.00  0.00    +0.040 A 
ATOM     16  C   LIG    1       -0.556  13.201   0.073  0.00  0.00    +0.000 A 
ATOM     17  C   LIG    1       -1.406  12.299  -0.532  0.00  0.00    +0.070 A 
ENDBRANCH  11  12
ENDBRANCH   4  11
ENDBRANCH   1   7
BRANCH   2  18
ATOM     18  C   LIG    1       -4.106   4.196   0.094  0.00  0.00    +0.240 C 
ATOM     19  C   LIG    1       -4.172   4.794  -1.313  0.00  0.00    +0.010 C 
ATOM     20  C   LIG    1       -5.552   5.415  -1.538  0.00  0.00    +0.030 C 
ATOM     21  C   LIG    1       -5.790   6.517  -0.504  0.00  0.00    +0.000 C 
ATOM     22  C   LIG    1       -5.724   5.919   0.903  0.00  0.00    +0.030 C 
ATOM     23  C   LIG    1       -4.345   5.297   1.129  0.00  0.00    +0.010 C 
ENDBRANCH   2  18
BRANCH   2  24
ATOM     24  C   LIG    1       -2.664   2.168   0.594  0.00  0.00    +0.240 C 
ATOM     25  C   LIG    1       -1.891   1.971   1.899  0.00  0.00    +0.010 C 
ATOM     26  C   LIG    1       -1.764   0.475   2.196  0.00  0.00    +0.010 C 
ATOM     27  C   LIG    1       -1.016  -0.211   1.051  0.00  0.00    +0.010 C 
ATOM     28  C   LIG    1       -1.790  -0.013  -0.255  0.00  0.00    +0.010 C 
ATOM     29  C   LIG    1       -1.916   1.483  -0.551  0.00  0.00    +0.010 C 
ENDBRANCH   2  24
TORSDOF 5
