REMARK  Name = ZINCrD000000BsRV.0
REMARK                            x       y       z     vdW  Elec       q    Type
REMARK                         _______ _______ _______ _____ _____    ______ ____
ROOT
ATOM      1  C   LIG    1        3.689  -0.604   0.314  0.00  0.00    +0.060 A 
ATOM      2  N   LIG    1        4.776   0.128   0.270  0.00  0.00    -0.200 NA
ATOM      3  N   LIG    1        4.795   1.370  -0.035  0.00  0.00    -0.310 N 
ATOM      4  C   LIG    1        3.690   2.078  -0.349  0.00  0.00    +0.520 A 
ATOM      5  C   LIG    1        2.393   1.389  -0.343  0.00  0.00    -0.140 A 
ATOM      6  C   LIG    1        1.196   2.028  -0.651  0.00  0.00    +0.090 A 
ATOM      7  C   LIG    1        0.019   1.310  -0.621  0.00  0.00    +0.030 A 
ATOM      8  C   LIG    1        0.019  -0.038  -0.288  0.00  0.00    +0.050 A 
ATOM      9  C   LIG    1        1.194  -0.690   0.021  0.00  0.00    +0.080 A 
ATOM     10  O   LIG    1        3.767   3.259  -0.631  0.00  0.00    -0.480 OA
ATOM     11  C   LIG    1        2.392   0.015  -0.003  0.00  0.00    -0.040 A 
ENDROOT
BRANCH   3  12
ATOM     12  C   LIG    1        6.028   2.031  -0.043  0.00  0.00    +0.120 A 
ATOM     13  C   LIG    1        6.395   2.808  -1.134  0.00  0.00    +0.040 A 
ATOM     14  C   LIG    1        7.611   3.463  -1.136  0.00  0.00    +0.020 A 
ATOM     15  C   LIG    1        8.468   3.336  -0.058  0.00  0.00    +0.020 A 
ATOM     16  C   LIG    1        8.108   2.559   1.028  0.00  0.00    +0.020 A 
ATOM     17  C   LIG    1        6.891   1.906   1.039  0.00  0.00    +0.030 A 
ENDBRANCH   3  12
BRANCH   1  19
ATOM     18  O   LIG    1        2.752  -2.705   0.716  0.00  0.00    -0.520 OA
ATOM     19  C   LIG    1        3.765  -2.033   0.677  0.00  0.00    +0.600 C 
ATOM     20  N   LIG    1        4.956  -2.592   0.966  0.00  0.00    -0.710 N 
ATOM     21  H   LIG    1        5.764  -2.056   0.935  0.00  0.00    +0.410 HD
BRANCH  20  22
ATOM     22  C   LIG    1        5.032  -4.010   1.327  0.00  0.00    +0.320 C 
BRANCH  22  23
ATOM     23  C   LIG    1        6.466  -4.383   1.600  0.00  0.00    -0.110 A 
ATOM     24  C   LIG    1        7.268  -4.846   0.573  0.00  0.00    +0.020 A 
ATOM     25  C   LIG    1        8.585  -5.183   0.823  0.00  0.00    +0.010 A 
ATOM     26  C   LIG    1        9.097  -5.069   2.102  0.00  0.00    +0.010 A 
ATOM     27  C   LIG    1        8.294  -4.612   3.130  0.00  0.00    +0.010 A 
ATOM     28  C   LIG    1        6.979  -4.269   2.879  0.00  0.00    +0.020 A 
ENDBRANCH  22  23
ENDBRANCH  20  22
ENDBRANCH   1  19
TORSDOF 4
