REMARK  Name = ZINCqH00000076kI.0
REMARK                            x       y       z     vdW  Elec       q    Type
REMARK                         _______ _______ _______ _____ _____    ______ ____
ROOT
ATOM      1  N   LIG    1        2.299  -0.281  -0.605  0.00  0.00    -0.720 N 
ATOM      2  H   LIG    1        1.426  -0.703  -0.578  0.00  0.00    +0.400 HD
ATOM      3  C   LIG    1        3.337  -0.916  -1.185  0.00  0.00    +0.600 C 
ATOM      4  O   LIG    1        4.432  -0.387  -1.219  0.00  0.00    -0.510 OA
ENDROOT
BRANCH   3   5
ATOM      5  C   LIG    1        3.146  -2.247  -1.775  0.00  0.00    -0.310 A 
ATOM      6  C   LIG    1        4.106  -3.000  -2.398  0.00  0.00    +0.160 A 
ATOM      7  N   LIG    1        3.677  -4.153  -2.834  0.00  0.00    -0.430 NA
ATOM      8  C   LIG    1        2.421  -4.437  -2.639  0.00  0.00    +0.090 A 
ATOM      9  C   LIG    1        5.532  -2.539  -2.561  0.00  0.00    +0.170 C 
ATOM     10  S   LIG    1        1.639  -3.159  -1.817  0.00  0.00    +0.260 S 
BRANCH   8  11
ATOM     11  C   LIG    1        1.763  -5.690  -3.070  0.00  0.00    +0.380 A 
ATOM     12  N   LIG    1        0.474  -5.867  -2.810  0.00  0.00    -0.510 NA
ATOM     13  C   LIG    1       -0.145  -6.973  -3.186  0.00  0.00    +0.340 A 
ATOM     14  C   LIG    1        0.572  -7.958  -3.850  0.00  0.00    -0.050 A 
ATOM     15  C   LIG    1        1.919  -7.742  -4.101  0.00  0.00    +0.330 A 
ATOM     16  N   LIG    1        2.477  -6.612  -3.703  0.00  0.00    -0.470 NA
ENDBRANCH   8  11
ENDBRANCH   3   5
BRANCH   1  17
ATOM     17  C   LIG    1        2.490   1.046  -0.016  0.00  0.00    +0.310 C 
ATOM     18  C   LIG    1        3.010   0.899   1.415  0.00  0.00    +0.040 C 
BRANCH  17  25
ATOM     19  C   LIG    1        1.155   3.169   0.008  0.00  0.00    +0.130 A 
ATOM     20  C   LIG    1       -0.057   3.844   0.022  0.00  0.00    -0.070 A 
ATOM     21  C   LIG    1       -1.242   3.132   0.030  0.00  0.00    +0.050 A 
ATOM     22  C   LIG    1       -1.220   1.750   0.017  0.00  0.00    -0.120 A 
ATOM     23  C   LIG    1       -0.013   1.076   0.008  0.00  0.00    +0.040 A 
ATOM     24  C   LIG    1       -2.513   0.977   0.020  0.00  0.00    +0.100 C 
ATOM     25  C   LIG    1        1.174   1.782   0.000  0.00  0.00    -0.120 A 
BRANCH  19  27
ATOM     26  C   LIG    1        2.225   5.292   0.009  0.00  0.00    +0.250 C 
ATOM     27  O   LIG    1        2.321   3.867   0.001  0.00  0.00    -0.310 OA
ENDBRANCH  19  27
ENDBRANCH  17  25
ENDBRANCH   1  17
TORSDOF 5
