REMARK  Name = ZINCpe000000UIjp.0
REMARK                            x       y       z     vdW  Elec       q    Type
REMARK                         _______ _______ _______ _____ _____    ______ ____
ROOT
ATOM      1  C   LIG    1       -0.760   7.048   3.810  0.00  0.00    +0.530 C 
ATOM      2  N   LIG    1       -0.741   5.737   3.500  0.00  0.00    -0.730 N 
ATOM      3  H   LIG    1        0.021   5.190   3.749  0.00  0.00    +0.410 HD
ATOM      4  O   LIG    1       -1.712   7.731   3.498  0.00  0.00    -0.520 OA
ENDROOT
BRANCH   1   7
ATOM      5  N   LIG    1        0.740   9.449   6.112  0.00  0.00    -0.610 N 
ATOM      6  C   LIG    1        0.162   9.172   4.791  0.00  0.00    +0.310 C 
ATOM      7  C   LIG    1        0.402   7.666   4.544  0.00  0.00    +0.000 C 
ATOM      8  C   LIG    1        0.497   7.121   5.988  0.00  0.00    +0.080 C 
ATOM      9  C   LIG    1        0.933   8.316   6.808  0.00  0.00    +0.520 C 
ATOM     10  O   LIG    1        1.390   8.259   7.930  0.00  0.00    -0.520 OA
BRANCH   5  14
ATOM     11  C   LIG    1        1.834  11.419   9.767  0.00  0.00    +0.170 C 
ATOM     12  N   LIG    1        1.589  11.748   8.356  0.00  0.00    -0.480 NA
ATOM     13  C   LIG    1        0.307  11.174   7.892  0.00  0.00    +0.160 C 
ATOM     14  C   LIG    1        1.063  10.789   6.607  0.00  0.00    +0.250 C 
ATOM     15  C   LIG    1        2.342  10.841   7.462  0.00  0.00    +0.170 C 
ENDBRANCH   5  14
ENDBRANCH   1   7
BRANCH   2  16
ATOM     16  C   LIG    1       -1.870   5.136   2.786  0.00  0.00    +0.340 C 
BRANCH  16  17
ATOM     17  C   LIG    1       -1.601   3.670   2.564  0.00  0.00    -0.060 A 
ATOM     18  C   LIG    1       -1.997   2.726   3.499  0.00  0.00    +0.030 A 
ATOM     19  C   LIG    1       -1.733   1.390   3.261  0.00  0.00    +0.290 A 
ATOM     20  N   LIG    1       -1.113   1.011   2.161  0.00  0.00    -0.440 NA
ATOM     21  C   LIG    1       -0.722   1.881   1.250  0.00  0.00    +0.040 A 
ATOM     22  C   LIG    1       -0.947   3.233   1.421  0.00  0.00    +0.050 A 
BRANCH  21  23
ATOM     23  C   LIG    1       -0.017   1.395   0.010  0.00  0.00    +0.520 C 
ATOM     24  F   LIG    1       -0.694   1.858  -1.124  0.00  0.00    -0.170 F 
ATOM     25  F   LIG    1        1.296   1.879  -0.000  0.00  0.00    -0.170 F 
ATOM     26  F   LIG    1        0.002  -0.004   0.002  0.00  0.00    -0.160 F 
ENDBRANCH  21  23
ENDBRANCH  16  17
ENDBRANCH   2  16
TORSDOF 5
