REMARK  Name = ZINCrD00000c63N1.0
REMARK                            x       y       z     vdW  Elec       q    Type
REMARK                         _______ _______ _______ _____ _____    ______ ____
ROOT
ATOM      1  C   LIG    1       -3.162  -0.235   1.621  0.00  0.00    +0.200 C 
ATOM      2  C   LIG    1       -4.472   0.053   0.858  0.00  0.00    +0.050 C 
ATOM      3  C   LIG    1       -4.676  -1.235   0.018  0.00  0.00    +0.030 C 
ATOM      4  C   LIG    1       -3.215  -1.609  -0.338  0.00  0.00    +0.260 C 
ATOM      5  N   LIG    1       -2.434  -1.265   0.865  0.00  0.00    -0.600 N 
ATOM      6  C   LIG    1       -1.250  -1.805   1.213  0.00  0.00    +0.510 C 
ATOM      7  O   LIG    1       -0.743  -1.520   2.277  0.00  0.00    -0.520 OA
ENDROOT
BRANCH   6   8
ATOM      8  C   LIG    1       -0.555  -2.763   0.280  0.00  0.00    +0.110 C 
ATOM      9  C   LIG    1        0.884  -2.964   0.746  0.00  0.00    +0.050 C 
ATOM     10  C   LIG    1        1.549  -1.608   0.992  0.00  0.00    +0.130 C 
ATOM     11  S   LIG    1        1.621  -0.698  -0.579  0.00  0.00    -0.260 S 
ATOM     12  C   LIG    1       -0.110  -0.744  -1.131  0.00  0.00    +0.110 C 
ATOM     13  C   LIG    1       -0.588  -2.198  -1.137  0.00  0.00    +0.070 C 
BRANCH   8  14
ATOM     14  O   LIG    1       -1.236  -4.019   0.302  0.00  0.00    -0.360 OA
BRANCH  14  15
ATOM     15  C   LIG    1       -1.263  -4.644   1.587  0.00  0.00    +0.160 C 
ATOM     16  C   LIG    1       -1.986  -5.988   1.485  0.00  0.00    +0.050 C 
ENDBRANCH  14  15
ENDBRANCH   8  14
ENDBRANCH   6   8
BRANCH   1  17
ATOM     17  C   LIG    1       -2.319   1.039   1.708  0.00  0.00    +0.280 C 
BRANCH  17  19
ATOM     18  C   LIG    1       -3.781   2.972   1.958  0.00  0.00    +0.520 C 
ATOM     19  N   LIG    1       -3.013   2.027   2.537  0.00  0.00    -0.610 N 
ATOM     20  C   LIG    1       -2.872   1.989   3.994  0.00  0.00    +0.280 C 
ATOM     21  O   LIG    1       -3.962   2.956   0.759  0.00  0.00    -0.530 OA
BRANCH  18  22
ATOM     22  C   LIG    1       -4.414   4.048   2.802  0.00  0.00    -0.010 C 
BRANCH  22  23
ATOM     23  C   LIG    1       -3.341   5.041   3.252  0.00  0.00    +0.040 C 
ATOM     24  C   LIG    1       -2.714   5.707   2.026  0.00  0.00    +0.010 C 
ENDBRANCH  22  23
BRANCH  22  25
ATOM     25  C   LIG    1       -5.475   4.783   1.979  0.00  0.00    +0.080 C 
BRANCH  25  27
ATOM     26  C   LIG    1       -6.159   7.047   2.586  0.00  0.00    +0.010 C 
ATOM     27  C   LIG    1       -6.202   5.766   2.860  0.00  0.00    -0.050 C 
ENDBRANCH  25  27
ENDBRANCH  22  25
ENDBRANCH  18  22
ENDBRANCH  17  19
ENDBRANCH   1  17
TORSDOF 9
