REMARK  Name = ZINCrg000000slr2.0
REMARK                            x       y       z     vdW  Elec       q    Type
REMARK                         _______ _______ _______ _____ _____    ______ ____
ROOT
ATOM      1  C   LIG    1        1.295  -2.578  -3.998  0.00  0.00    +0.120 A 
ATOM      2  C   LIG    1        1.706  -1.490  -4.756  0.00  0.00    +0.120 A 
ATOM      3  C   LIG    1        1.323  -0.213  -4.395  0.00  0.00    +0.000 A 
ATOM      4  C   LIG    1        0.526  -0.018  -3.280  0.00  0.00    +0.180 A 
ATOM      5  C   LIG    1        0.120  -1.101  -2.518  0.00  0.00    -0.700 A 
ATOM      6  F   LIG    1        0.149   1.232  -2.930  0.00  0.00    -0.120 F 
ATOM      7  C   LIG    1        0.500  -2.379  -2.876  0.00  0.00    +0.140 A 
ENDROOT
BRANCH   1   9
ATOM      8  C   LIG    1        1.796  -4.200  -5.665  0.00  0.00    +0.500 C 
ATOM      9  N   LIG    1        1.681  -3.873  -4.363  0.00  0.00    -0.670 N 
ATOM     10  H   LIG    1        1.866  -4.535  -3.679  0.00  0.00    +0.420 HD
ATOM     11  O   LIG    1        1.647  -3.352  -6.519  0.00  0.00    -0.500 OA
BRANCH   8  12
ATOM     12  C   LIG    1        2.110  -5.620  -6.061  0.00  0.00    +0.340 C 
BRANCH  12  19
ATOM     13  C   LIG    1       -0.267  -6.246  -7.633  0.00  0.00    +0.160 C 
ATOM     14  C   LIG    1        1.079  -6.008  -8.268  0.00  0.00    +0.100 A 
ATOM     15  C   LIG    1        1.248  -6.067  -9.582  0.00  0.00    -0.030 A 
ATOM     16  S   LIG    1        2.967  -5.729  -9.848  0.00  0.00    +0.020 S 
ATOM     17  C   LIG    1        3.336  -5.525  -8.179  0.00  0.00    +0.480 A 
ATOM     18  O   LIG    1        4.422  -5.262  -7.694  0.00  0.00    -0.470 OA
ATOM     19  N   LIG    1        2.181  -5.716  -7.521  0.00  0.00    -0.520 N 
ENDBRANCH  12  19
ENDBRANCH   8  12
ENDBRANCH   1   9
BRANCH   5  20
ATOM     20  S   LIG    1       -0.888  -0.849  -1.095  0.00  0.00    +2.690 S 
ATOM     21  O   LIG    1       -1.944   0.012  -1.500  0.00  0.00    -0.940 OA
ATOM     22  O   LIG    1       -1.106  -2.132  -0.525  0.00  0.00    -0.940 OA
BRANCH  20  23
ATOM     23  N   LIG    1        0.015   0.003   0.001  0.00  0.00    -1.000 NA
ATOM     24  C   LIG    1        0.005   1.474   0.010  0.00  0.00    +0.280 C 
ATOM     25  C   LIG    1        1.456   1.968   0.004  0.00  0.00    +0.220 C 
ATOM     26  O   LIG    1        2.175   1.331   1.063  0.00  0.00    -0.370 OA
ATOM     27  C   LIG    1        2.262  -0.091   0.940  0.00  0.00    +0.210 C 
ATOM     28  C   LIG    1        0.852  -0.690   0.994  0.00  0.00    +0.280 C 
ENDBRANCH  20  23
ENDBRANCH   5  20
TORSDOF 5
