REMARK  Name = ZINCzw00000003I7.0
REMARK                            x       y       z     vdW  Elec       q    Type
REMARK                         _______ _______ _______ _____ _____    ______ ____
ROOT
ATOM      1  C   LIG    1       -1.446   3.668   2.682  0.00  0.00    +0.140 A 
ATOM      2  C   LIG    1       -1.854   2.714   3.604  0.00  0.00    +0.010 A 
ATOM      3  C   LIG    1       -2.424   3.108   4.798  0.00  0.00    -0.010 A 
ATOM      4  C   LIG    1       -2.600   4.458   5.072  0.00  0.00    +0.070 A 
ATOM      5  C   LIG    1       -2.197   5.412   4.147  0.00  0.00    +0.020 A 
ATOM      6  C   LIG    1       -1.621   5.018   2.955  0.00  0.00    +0.060 A 
ENDROOT
BRANCH   4   7
ATOM      7  N   LIG    1       -3.183   4.857   6.279  0.00  0.00    -0.480 N 
ATOM      8  C   LIG    1       -2.299   5.772   7.014  0.00  0.00    +0.230 C 
ATOM      9  C   LIG    1       -2.997   6.231   8.297  0.00  0.00    +0.270 C 
ATOM     10  N   LIG    1       -3.317   5.061   9.125  0.00  0.00    -0.390 N 
ATOM     11  C   LIG    1       -4.220   4.168   8.387  0.00  0.00    +0.280 C 
ATOM     12  H   LIG    1       -2.467   4.566   9.352  0.00  0.00    +0.420 HD
ATOM     13  C   LIG    1       -3.533   3.692   7.105  0.00  0.00    +0.220 C 
BRANCH  10  14
ATOM     14  C   LIG    1       -3.971   5.503  10.364  0.00  0.00    +0.330 C 
BRANCH  14  15
ATOM     15  C   LIG    1       -3.002   6.318  11.181  0.00  0.00    -0.160 A 
ATOM     16  C   LIG    1       -2.189   5.698  12.111  0.00  0.00    +0.040 A 
ATOM     17  C   LIG    1       -1.296   6.445  12.856  0.00  0.00    +0.030 A 
ATOM     18  C   LIG    1       -1.223   7.814  12.678  0.00  0.00    +0.060 A 
ATOM     19  C   LIG    1       -2.041   8.435  11.752  0.00  0.00    +0.030 A 
ATOM     20  C   LIG    1       -2.929   7.687  11.003  0.00  0.00    +0.030 A 
ENDBRANCH  14  15
ENDBRANCH  10  14
ENDBRANCH   4   7
BRANCH   1  23
ATOM     21  O   LIG    1        0.432   5.070   1.420  0.00  0.00    -0.490 OA
ATOM     22  C   LIG    1        0.115   4.013   0.917  0.00  0.00    +0.520 C 
ATOM     23  N   LIG    1       -0.862   3.269   1.472  0.00  0.00    -0.680 N 
ATOM     24  H   LIG    1       -1.162   2.457   1.034  0.00  0.00    +0.420 HD
BRANCH  22  25
ATOM     25  C   LIG    1        0.815   3.531  -0.328  0.00  0.00    +0.230 C 
BRANCH  25  26
ATOM     26  N   LIG    1        1.828   4.510  -0.729  0.00  0.00    -0.490 NA
ATOM     27  C   LIG    1        3.090   4.189  -0.702  0.00  0.00    +0.400 C 
ATOM     28  N   LIG    1        3.502   2.943  -0.304  0.00  0.00    -1.050 N 
ATOM     29  H   LIG    1        2.943   2.204  -0.016  0.00  0.00    +0.450 HD
ATOM     30  S   LIG    1        5.170   2.961  -0.420  0.00  0.00    +2.670 S 
ATOM     31  C   LIG    1        5.423   4.615  -1.001  0.00  0.00    -0.630 A 
ATOM     32  C   LIG    1        6.534   5.345  -1.323  0.00  0.00    +0.160 A 
ATOM     33  C   LIG    1        6.395   6.654  -1.760  0.00  0.00    +0.050 A 
ATOM     34  C   LIG    1        5.132   7.207  -1.866  0.00  0.00    +0.080 A 
ATOM     35  C   LIG    1        4.012   6.475  -1.542  0.00  0.00    +0.100 A 
ATOM     36  O   LIG    1        5.534   2.075  -1.470  0.00  0.00    -0.920 OA
ATOM     37  O   LIG    1        5.690   2.887   0.900  0.00  0.00    -0.930 OA
ATOM     38  C   LIG    1        4.134   5.146  -1.104  0.00  0.00    -0.030 A 
ENDBRANCH  25  26
ENDBRANCH  22  25
ENDBRANCH   1  23
TORSDOF 6
