REMARK  Name = ZINCrH000004jZfy.0
REMARK                            x       y       z     vdW  Elec       q    Type
REMARK                         _______ _______ _______ _____ _____    ______ ____
ROOT
ATOM      1  C   LIG    1        1.183   6.717  -0.103  0.00  0.00    -0.070 A 
ATOM      2  C   LIG    1       -0.207   6.843  -0.065  0.00  0.00    +0.060 A 
ATOM      3  C   LIG    1       -0.988   5.748   0.239  0.00  0.00    +0.130 A 
ATOM      4  C   LIG    1       -0.397   4.525   0.505  0.00  0.00    -0.660 A 
ATOM      5  C   LIG    1        0.980   4.394   0.474  0.00  0.00    +0.130 A 
ATOM      6  C   LIG    1        1.772   5.481   0.167  0.00  0.00    +0.030 A 
ENDROOT
BRANCH   1   9
ATOM      7  C   LIG    1        3.803   6.909   0.924  0.00  0.00    +0.290 C 
ATOM      8  N   LIG    1        3.263   7.992   0.099  0.00  0.00    -0.600 N 
ATOM      9  C   LIG    1        2.026   7.887  -0.427  0.00  0.00    +0.560 C 
ATOM     10  O   LIG    1        1.604   8.754  -1.167  0.00  0.00    -0.520 OA
BRANCH   8  11
ATOM     11  C   LIG    1        4.068   9.190  -0.157  0.00  0.00    +0.340 C 
BRANCH  11  12
ATOM     12  C   LIG    1        3.799  10.213   0.916  0.00  0.00    -0.110 A 
ATOM     13  C   LIG    1        2.790  11.143   0.747  0.00  0.00    +0.030 A 
ATOM     14  C   LIG    1        2.541  12.079   1.733  0.00  0.00    +0.000 A 
ATOM     15  C   LIG    1        3.306  12.092   2.884  0.00  0.00    +0.010 A 
ATOM     16  C   LIG    1        4.318  11.165   3.051  0.00  0.00    +0.000 A 
ATOM     17  C   LIG    1        4.564  10.226   2.067  0.00  0.00    +0.010 A 
ENDBRANCH  11  12
ENDBRANCH   8  11
ENDBRANCH   1   9
BRANCH   4  18
ATOM     18  S   LIG    1       -1.403   3.131   0.892  0.00  0.00    +2.690 S 
ATOM     19  O   LIG    1       -0.616   2.287   1.721  0.00  0.00    -0.940 OA
ATOM     20  O   LIG    1       -2.668   3.645   1.284  0.00  0.00    -0.950 OA
BRANCH  18  21
ATOM     21  N   LIG    1       -1.652   2.300  -0.519  0.00  0.00    -1.060 N 
ATOM     22  H   LIG    1       -2.547   2.227  -0.887  0.00  0.00    +0.430 HD
BRANCH  21  23
ATOM     23  C   LIG    1       -0.575   1.705  -1.179  0.00  0.00    +0.120 A 
ATOM     24  C   LIG    1       -0.074   2.271  -2.344  0.00  0.00    +0.020 A 
ATOM     25  C   LIG    1        0.988   1.677  -2.997  0.00  0.00    +0.020 A 
ATOM     26  C   LIG    1        1.552   0.520  -2.493  0.00  0.00    +0.020 A 
ATOM     27  C   LIG    1        1.056  -0.046  -1.333  0.00  0.00    +0.020 A 
ATOM     28  C   LIG    1       -0.006   0.542  -0.675  0.00  0.00    +0.040 A 
ENDBRANCH  21  23
ENDBRANCH  18  21
ENDBRANCH   4  18
TORSDOF 6
