REMARK  Name = ZINCrH000004qSje.0
REMARK                            x       y       z     vdW  Elec       q    Type
REMARK                         _______ _______ _______ _____ _____    ______ ____
ROOT
ATOM      1  C   LIG    1       -3.956  -4.641   0.016  0.00  0.00    +0.250 C 
ENDROOT
BRANCH   1   4
ATOM      2  N   LIG    1       -5.043  -6.748  -0.689  0.00  0.00    -0.720 N 
ATOM      3  H   LIG    1       -5.883  -6.385  -0.367  0.00  0.00    +0.400 HD
ATOM      4  C   LIG    1       -3.914  -6.019  -0.592  0.00  0.00    +0.520 C 
ATOM      5  O   LIG    1       -2.863  -6.472  -0.994  0.00  0.00    -0.530 OA
BRANCH   2   6
ATOM      6  C   LIG    1       -5.003  -8.087  -1.280  0.00  0.00    +0.310 C 
ATOM      7  C   LIG    1       -5.118  -7.977  -2.802  0.00  0.00    +0.040 C 
BRANCH   6  11
ATOM      8  C   LIG    1       -9.581  -8.831   0.725  0.00  0.00    +0.140 C 
ATOM      9  C   LIG    1       -8.232  -9.201   0.163  0.00  0.00    -0.170 A 
ATOM     10  C   LIG    1       -7.316  -8.334  -0.272  0.00  0.00    +0.000 A 
ATOM     11  C   LIG    1       -6.150  -8.907  -0.748  0.00  0.00    -0.120 A 
ATOM     12  C   LIG    1       -6.120 -10.240  -0.704  0.00  0.00    -0.170 A 
ATOM     13  C   LIG    1       -4.971 -11.098  -1.165  0.00  0.00    +0.140 C 
ATOM     14  S   LIG    1       -7.626 -10.841  -0.022  0.00  0.00    +0.110 S 
ENDBRANCH   6  11
ENDBRANCH   2   6
ENDBRANCH   1   4
BRANCH   1  15
ATOM     15  N   LIG    1       -2.610  -4.061   0.006  0.00  0.00    -0.710 N 
ATOM     16  H   LIG    1       -1.833  -4.641  -0.005  0.00  0.00    +0.410 HD
ATOM     17  C   LIG    1       -2.453  -2.723   0.012  0.00  0.00    +0.520 C 
ATOM     18  O   LIG    1       -3.426  -1.998   0.025  0.00  0.00    -0.510 OA
BRANCH  17  19
ATOM     19  C   LIG    1       -1.069  -2.126   0.001  0.00  0.00    +0.230 C 
BRANCH  19  20
ATOM     20  O   LIG    1       -1.165  -0.701   0.010  0.00  0.00    -0.290 OA
BRANCH  20  21
ATOM     21  C   LIG    1        0.002  -0.004   0.002  0.00  0.00    +0.130 A 
ATOM     22  C   LIG    1       -0.017   1.383   0.010  0.00  0.00    -0.020 A 
ATOM     23  C   LIG    1        1.171   2.089   0.002  0.00  0.00    +0.050 A 
ATOM     24  C   LIG    1        2.377   1.414  -0.013  0.00  0.00    -0.030 A 
ATOM     25  C   LIG    1        2.399   0.031  -0.021  0.00  0.00    +0.050 A 
ATOM     26  C   LIG    1        1.214  -0.679  -0.013  0.00  0.00    -0.080 A 
ENDBRANCH  20  21
ENDBRANCH  19  20
ENDBRANCH  17  19
ENDBRANCH   1  15
BRANCH   1  27
ATOM     27  C   LIG    1       -4.460  -4.735   1.458  0.00  0.00    -0.020 C 
ATOM     28  C   LIG    1       -4.621  -3.327   2.035  0.00  0.00    +0.030 C 
ATOM     29  C   LIG    1       -3.451  -5.519   2.301  0.00  0.00    +0.020 C 
ENDBRANCH   1  27
TORSDOF 8
