REMARK  Name = ZINCrD000000A7xf.0
REMARK                            x       y       z     vdW  Elec       q    Type
REMARK                         _______ _______ _______ _____ _____    ______ ____
ROOT
ATOM      1  C   LIG    1       -6.067   4.063  -3.495  0.00  0.00    -0.020 C 
ATOM      2  C   LIG    1       -6.449   2.794  -2.728  0.00  0.00    +0.060 C 
ATOM      3  C   LIG    1       -6.053   2.954  -1.258  0.00  0.00    +0.190 C 
ATOM      4  N   LIG    1       -4.606   3.189  -1.163  0.00  0.00    -0.560 NA
ATOM      5  C   LIG    1       -4.222   4.427  -1.852  0.00  0.00    +0.180 C 
ATOM      6  C   LIG    1       -4.564   4.311  -3.340  0.00  0.00    +0.050 C 
ENDROOT
BRANCH   1   8
ATOM      7  O   LIG    1       -6.341   2.788  -5.463  0.00  0.00    -0.530 OA
ATOM      8  C   LIG    1       -6.400   3.888  -4.955  0.00  0.00    +0.520 C 
ATOM      9  N   LIG    1       -6.763   4.954  -5.695  0.00  0.00    -0.610 N 
ATOM     10  C   LIG    1       -7.180   4.738  -7.063  0.00  0.00    +0.270 C 
ATOM     11  C   LIG    1       -5.957   4.797  -8.001  0.00  0.00    +0.010 C 
ATOM     12  C   LIG    1       -5.465   6.179  -8.112  0.00  0.00    +0.000 C 
ATOM     13  C   LIG    1       -4.966   6.776  -6.800  0.00  0.00    +0.000 C 
ATOM     14  C   LIG    1       -6.133   7.351  -6.036  0.00  0.00    +0.020 C 
ATOM     15  C   LIG    1       -6.712   6.294  -5.079  0.00  0.00    +0.250 C 
ENDBRANCH   1   8
BRANCH   4  16
ATOM     16  C   LIG    1       -4.168   3.209   0.239  0.00  0.00    +0.490 C 
BRANCH  16  17
ATOM     17  N   LIG    1       -2.750   2.848   0.313  0.00  0.00    -0.540 N 
ATOM     18  C   LIG    1       -1.706   3.699   0.253  0.00  0.00    +0.640 A 
ATOM     19  O   LIG    1       -0.560   3.008   0.353  0.00  0.00    -0.230 OA
ATOM     20  C   LIG    1       -0.844   1.688   0.480  0.00  0.00    +0.050 A 
ATOM     21  C   LIG    1       -0.052   0.560   0.617  0.00  0.00    +0.080 A 
ATOM     22  C   LIG    1       -0.640  -0.686   0.730  0.00  0.00    -0.030 A 
ATOM     23  C   LIG    1       -2.019  -0.812   0.707  0.00  0.00    +0.060 A 
ATOM     24  C   LIG    1       -2.816   0.308   0.566  0.00  0.00    +0.070 A 
ATOM     25 CL   LIG    1        0.354  -2.099   0.901  0.00  0.00    -0.050 Cl
ATOM     26  O   LIG    1       -1.790   4.905   0.128  0.00  0.00    -0.480 OA
ATOM     27  C   LIG    1       -2.233   1.560   0.458  0.00  0.00    +0.090 A 
ENDBRANCH  16  17
ENDBRANCH   4  16
TORSDOF 3
