REMARK  Name = ZINCrH000004mt7G.0
REMARK                            x       y       z     vdW  Elec       q    Type
REMARK                         _______ _______ _______ _____ _____    ______ ____
ROOT
ATOM      1  C   LIG    1        2.716   2.882   4.051  0.00  0.00    +0.570 C 
ATOM      2  N   LIG    1        2.068   2.681   2.887  0.00  0.00    -0.610 N 
ATOM      3  C   LIG    1        2.644   1.812   1.851  0.00  0.00    +0.270 C 
ATOM      4  C   LIG    1        2.743   2.607   0.543  0.00  0.00    +0.290 C 
ATOM      5  N   LIG    1        1.448   3.253   0.287  0.00  0.00    -0.600 N 
ATOM      6  C   LIG    1        0.875   4.127   1.321  0.00  0.00    +0.270 C 
ATOM      7  C   LIG    1        0.800   3.053  -0.878  0.00  0.00    +0.560 C 
ATOM      8  O   LIG    1        1.310   2.374  -1.748  0.00  0.00    -0.500 OA
ATOM      9  C   LIG    1        0.773   3.327   2.630  0.00  0.00    +0.290 C 
ATOM     10  O   LIG    1        2.205   3.559   4.923  0.00  0.00    -0.530 OA
ENDROOT
BRANCH   7  11
ATOM     11  C   LIG    1       -0.527   3.662  -1.099  0.00  0.00    -0.090 A 
ATOM     12  C   LIG    1       -0.792   4.952  -0.636  0.00  0.00    +0.060 A 
ATOM     13  C   LIG    1       -2.033   5.519  -0.850  0.00  0.00    +0.110 A 
ATOM     14  C   LIG    1       -3.019   4.803  -1.514  0.00  0.00    -0.040 A 
ATOM     15  C   LIG    1       -2.764   3.522  -1.971  0.00  0.00    +0.080 A 
ATOM     16 CL   LIG    1       -4.579   5.519  -1.774  0.00  0.00    -0.020 Cl
ATOM     17  F   LIG    1       -2.289   6.769  -0.408  0.00  0.00    -0.110 F 
ATOM     18  C   LIG    1       -1.525   2.947  -1.767  0.00  0.00    +0.010 A 
ATOM     19 CL   LIG    1       -1.207   1.340  -2.341  0.00  0.00    -0.020 Cl
ENDBRANCH   7  11
BRANCH   1  23
ATOM     20  C   LIG    1        6.543   1.151   4.678  0.00  0.00    +0.160 A 
ATOM     21  C   LIG    1        6.258   2.408   5.197  0.00  0.00    -0.020 A 
ATOM     22  C   LIG    1        5.018   2.973   4.996  0.00  0.00    +0.120 A 
ATOM     23  C   LIG    1        4.047   2.280   4.269  0.00  0.00    -0.170 A 
ATOM     24  C   LIG    1        4.336   1.014   3.753  0.00  0.00    +0.080 A 
ATOM     25  C   LIG    1        5.579   0.459   3.954  0.00  0.00    -0.080 A 
BRANCH  20  27
ATOM     26  C   LIG    1        7.992  -0.697   4.318  0.00  0.00    +0.240 C 
ATOM     27  O   LIG    1        7.766   0.598   4.878  0.00  0.00    -0.310 OA
ENDBRANCH  20  27
ENDBRANCH   1  23
TORSDOF 3
