REMARK  Name = ZINCpe000000Yrn4.0
REMARK                            x       y       z     vdW  Elec       q    Type
REMARK                         _______ _______ _______ _____ _____    ______ ____
ROOT
ATOM      1  C   LIG    1       -1.271  -0.823   0.158  0.00  0.00    +0.270 C 
ATOM      2  C   LIG    1       -1.022  -1.747   1.350  0.00  0.00    +0.250 C 
ATOM      3  O   LIG    1        0.142  -2.538   1.099  0.00  0.00    -0.370 OA
ATOM      4  C   LIG    1        1.345  -1.779   0.955  0.00  0.00    +0.220 C 
ATOM      5  C   LIG    1        1.216  -0.857  -0.263  0.00  0.00    +0.260 C 
ATOM      6  N   LIG    1       -0.030  -0.086  -0.132  0.00  0.00    -0.610 N 
ATOM      7  C   LIG    1       -0.035   1.255  -0.268  0.00  0.00    +0.600 C 
ATOM      8  O   LIG    1       -1.089   1.863  -0.268  0.00  0.00    -0.470 OA
ENDROOT
BRANCH   1  14
ATOM      9  C   LIG    1       -3.860  -0.318  -1.471  0.00  0.00    +0.350 C 
ATOM     10  N   LIG    1       -3.495   0.360  -0.225  0.00  0.00    -0.360 N 
ATOM     11  N   LIG    1       -4.250   1.341   0.432  0.00  0.00    -0.290 NA
ATOM     12  C   LIG    1       -3.600   1.705   1.507  0.00  0.00    +0.230 A 
ATOM     13  C   LIG    1       -2.414   0.966   1.573  0.00  0.00    -0.110 A 
ATOM     14  C   LIG    1       -2.372   0.150   0.494  0.00  0.00    +0.100 A 
ENDBRANCH   1  14
BRANCH   7  15
ATOM     15  C   LIG    1        1.230   1.980  -0.423  0.00  0.00    -0.060 A 
ATOM     16  C   LIG    1        1.379   3.337  -0.447  0.00  0.00    +0.050 A 
ATOM     17  C   LIG    1        2.750   3.590  -0.611  0.00  0.00    +0.000 A 
ATOM     18  C   LIG    1        3.370   2.392  -0.680  0.00  0.00    -0.030 A 
ATOM     19  O   LIG    1        2.451   1.424  -0.561  0.00  0.00    -0.160 OA
BRANCH  18  20
ATOM     20  C   LIG    1        4.851   2.179  -0.856  0.00  0.00    +0.470 C 
BRANCH  20  21
ATOM     21  N   LIG    1        5.495   2.115   0.459  0.00  0.00    -0.300 N 
ATOM     22  C   LIG    1        6.276   1.107   0.912  0.00  0.00    +0.140 A 
ATOM     23  C   LIG    1        6.655   1.458   2.163  0.00  0.00    +0.140 A 
ATOM     24  N   LIG    1        6.096   2.647   2.411  0.00  0.00    -0.270 NA
ATOM     25  N   LIG    1        5.419   3.012   1.379  0.00  0.00    -0.080 NA
ENDBRANCH  20  21
ENDBRANCH  18  20
ENDBRANCH   7  15
TORSDOF 4
