REMARK  Name = ZINCrD0000074ly7.0
REMARK                            x       y       z     vdW  Elec       q    Type
REMARK                         _______ _______ _______ _____ _____    ______ ____
ROOT
ATOM      1  C   LIG    1        1.396   1.969  -0.001  0.00  0.00    +0.520 C 
ATOM      2  N   LIG    1        1.625   3.298   0.004  0.00  0.00    -0.690 N 
ATOM      3  H   LIG    1        0.879   3.918   0.015  0.00  0.00    +0.410 HD
ATOM      4  C   LIG    1        2.889   3.764  -0.005  0.00  0.00    +0.700 C 
ATOM      5  N   LIG    1        3.117   5.093  -0.000  0.00  0.00    -0.730 N 
ATOM      6  H   LIG    1        2.371   5.713   0.010  0.00  0.00    +0.400 HD
ATOM      7  O   LIG    1        3.823   2.987  -0.018  0.00  0.00    -0.520 OA
ATOM      8  O   LIG    1        2.328   1.194  -0.014  0.00  0.00    -0.440 OA
ENDROOT
BRANCH   5   9
ATOM      9  C   LIG    1        4.492   5.599  -0.011  0.00  0.00    +0.260 C 
ATOM     10  C   LIG    1        5.027   5.650   1.421  0.00  0.00    +0.020 C 
ATOM     11  C   LIG    1        4.148   6.578   2.262  0.00  0.00    +0.000 C 
ATOM     12  C   LIG    1        4.168   7.984   1.660  0.00  0.00    +0.000 C 
ATOM     13  C   LIG    1        3.632   7.934   0.228  0.00  0.00    +0.010 C 
ATOM     14  C   LIG    1        4.512   7.006  -0.613  0.00  0.00    -0.010 C 
ATOM     15  C   LIG    1        3.976   6.955  -2.045  0.00  0.00    +0.020 C 
ENDBRANCH   5   9
BRANCH   1  16
ATOM     16  C   LIG    1       -0.018   1.448   0.010  0.00  0.00    +0.270 C 
BRANCH  16  17
ATOM     17  O   LIG    1        0.002  -0.004   0.002  0.00  0.00    -0.320 OA
BRANCH  17  18
ATOM     18  C   LIG    1       -1.191  -0.633   0.010  0.00  0.00    +0.560 C 
ATOM     19  O   LIG    1       -2.220   0.016   0.023  0.00  0.00    -0.480 OA
BRANCH  18  22
ATOM     20  C   LIG    1       -3.804  -2.320   0.026  0.00  0.00    +0.150 C 
ATOM     21  C   LIG    1       -2.389  -2.838   0.010  0.00  0.00    -0.050 A 
ATOM     22  C   LIG    1       -1.248  -2.100   0.003  0.00  0.00    -0.030 A 
ATOM     23  O   LIG    1       -0.175  -2.918  -0.018  0.00  0.00    -0.170 OA
ATOM     24  C   LIG    1       -0.558  -4.210  -0.016  0.00  0.00    +0.080 A 
ATOM     25  C   LIG    1        0.143  -5.410  -0.031  0.00  0.00    +0.030 A 
ATOM     26  C   LIG    1       -0.544  -6.606  -0.031  0.00  0.00    +0.070 A 
ATOM     27  C   LIG    1       -1.932  -6.627  -0.017  0.00  0.00    +0.000 A 
ATOM     28  C   LIG    1       -2.642  -5.460  -0.003  0.00  0.00    +0.080 A 
ATOM     29  C   LIG    1       -1.965  -4.237  -0.003  0.00  0.00    -0.150 A 
ENDBRANCH  18  22
ENDBRANCH  17  18
ENDBRANCH  16  17
ENDBRANCH   1  16
TORSDOF 5
