REMARK  Name = ZINCtV00000L6knH.0
REMARK                            x       y       z     vdW  Elec       q    Type
REMARK                         _______ _______ _______ _____ _____    ______ ____
ROOT
ATOM      1  C   LIG    1       -0.015   1.323  -0.035  0.00  0.00    +0.410 A 
ATOM      2  C   LIG    1        1.212   2.028   0.003  0.00  0.00    -0.180 A 
ATOM      3  C   LIG    1        1.476   3.458   0.102  0.00  0.00    -0.010 A 
ATOM      4  C   LIG    1        2.769   3.779   0.112  0.00  0.00    -0.020 A 
ATOM      5  S   LIG    1        3.781   2.352   0.001  0.00  0.00    +0.200 S 
ATOM      6  C   LIG    1        2.390   1.281  -0.062  0.00  0.00    +0.110 A 
ATOM      7  N   LIG    1        2.310  -0.052  -0.156  0.00  0.00    -0.510 NA
ATOM      8  C   LIG    1        1.146  -0.660  -0.187  0.00  0.00    +0.560 A 
ATOM      9  N   LIG    1        0.006   0.004  -0.129  0.00  0.00    -0.570 NA
ENDROOT
BRANCH   3  10
ATOM     10  C   LIG    1        0.397   4.470   0.184  0.00  0.00    -0.040 A 
ATOM     11  C   LIG    1       -0.650   4.454  -0.737  0.00  0.00    +0.050 A 
ATOM     12  C   LIG    1       -1.654   5.396  -0.653  0.00  0.00    +0.010 A 
ATOM     13  C   LIG    1       -1.619   6.362   0.337  0.00  0.00    -0.070 A 
ATOM     14  C   LIG    1       -0.581   6.386   1.251  0.00  0.00    +0.000 A 
ATOM     15  C   LIG    1        0.427   5.446   1.179  0.00  0.00    +0.020 A 
BRANCH  13  16
ATOM     16  C   LIG    1       -2.716   7.392   0.419  0.00  0.00    +0.020 C 
ATOM     17  C   LIG    1       -4.059   6.691   0.633  0.00  0.00    +0.040 C 
ATOM     18  C   LIG    1       -2.761   8.195  -0.882  0.00  0.00    +0.030 C 
ENDBRANCH  13  16
ENDBRANCH   3  10
BRANCH   1  19
ATOM     19  O   LIG    1       -1.192   1.991   0.018  0.00  0.00    -0.220 OA
BRANCH  19  24
ATOM     20  C   LIG    1       -4.222   0.515  -1.377  0.00  0.00    -0.110 A 
ATOM     21  C   LIG    1       -4.681  -0.211  -0.276  0.00  0.00    +0.100 A 
ATOM     22  C   LIG    1       -3.969  -0.192   0.906  0.00  0.00    +0.020 A 
ATOM     23  C   LIG    1       -2.800   0.539   1.003  0.00  0.00    +0.060 A 
ATOM     24  C   LIG    1       -2.340   1.269  -0.085  0.00  0.00    +0.070 A 
ATOM     25  C   LIG    1       -3.045   1.258  -1.276  0.00  0.00    +0.090 A 
BRANCH  20  26
ATOM     26  C   LIG    1       -4.981   0.498  -2.645  0.00  0.00    +0.510 C 
ATOM     27  O   LIG    1       -4.581   1.131  -3.601  0.00  0.00    -0.500 OA
BRANCH  26  29
ATOM     28  C   LIG    1       -6.811  -0.190  -4.015  0.00  0.00    +0.290 C 
ATOM     29  O   LIG    1       -6.117  -0.219  -2.740  0.00  0.00    -0.350 OA
ENDBRANCH  26  29
ENDBRANCH  20  26
ENDBRANCH  19  24
ENDBRANCH   1  19
TORSDOF 6
