REMARK  Name = ZINCrg00000SjSJ2.0
REMARK                            x       y       z     vdW  Elec       q    Type
REMARK                         _______ _______ _______ _____ _____    ______ ____
ROOT
ATOM      1  N   LIG    1       -0.986   1.764   1.036  0.00  0.00    -0.390 N 
ATOM      2  N   LIG    1       -1.804   0.999   1.884  0.00  0.00    -0.040 NA
ATOM      3  N   LIG    1       -1.825   1.601   3.024  0.00  0.00    -0.020 NA
ATOM      4  N   LIG    1       -1.105   2.663   2.981  0.00  0.00    -0.350 NA
ATOM      5  C   LIG    1       -0.566   2.806   1.791  0.00  0.00    +0.410 A 
ENDROOT
BRANCH   5   6
ATOM      6  N   LIG    1        0.271   3.831   1.385  0.00  0.00    -0.440 N 
ATOM      7  C   LIG    1        1.681   3.352   1.256  0.00  0.00    +0.260 C 
ATOM      8  C   LIG    1        2.430   4.059   2.353  0.00  0.00    -0.070 C 
ATOM      9  C   LIG    1        3.624   4.955   2.326  0.00  0.00    +0.120 C 
ATOM     10  C   LIG    1        2.721   5.769   3.316  0.00  0.00    +0.280 C 
ATOM     11  F   LIG    1        2.493   5.142   4.545  0.00  0.00    -0.160 F 
ATOM     12  F   LIG    1        3.057   7.122   3.431  0.00  0.00    -0.180 F 
ATOM     13  C   LIG    1        1.701   5.467   2.263  0.00  0.00    -0.050 C 
ATOM     14  C   LIG    1        0.286   4.942   2.391  0.00  0.00    +0.280 C 
ENDBRANCH   5   6
BRANCH   1  15
ATOM     15  C   LIG    1       -0.652   1.489  -0.364  0.00  0.00    +0.390 C 
BRANCH  15  21
ATOM     16  C   LIG    1       -2.808   1.705  -1.618  0.00  0.00    -0.650 A 
ATOM     17  C   LIG    1       -3.670   2.408  -2.439  0.00  0.00    +0.100 A 
ATOM     18  C   LIG    1       -3.310   3.656  -2.912  0.00  0.00    +0.020 A 
ATOM     19  C   LIG    1       -2.090   4.202  -2.562  0.00  0.00    +0.070 A 
ATOM     20  C   LIG    1       -1.230   3.501  -1.737  0.00  0.00    +0.040 A 
ATOM     21  C   LIG    1       -1.590   2.254  -1.263  0.00  0.00    -0.030 A 
BRANCH  16  22
ATOM     22  S   LIG    1       -3.265   0.112  -1.020  0.00  0.00    +2.680 S 
ATOM     23  O   LIG    1       -3.741   0.302   0.305  0.00  0.00    -0.920 OA
ATOM     24  O   LIG    1       -2.190  -0.761  -1.342  0.00  0.00    -0.950 OA
BRANCH  22  26
ATOM     25  C   LIG    1       -4.350  -1.056  -3.204  0.00  0.00    +0.310 C 
ATOM     26  N   LIG    1       -4.563  -0.395  -1.915  0.00  0.00    -1.010 NA
ATOM     27  C   LIG    1       -5.924  -0.181  -1.417  0.00  0.00    +0.310 C 
ENDBRANCH  22  26
ENDBRANCH  16  22
ENDBRANCH  15  21
ENDBRANCH   1  15
TORSDOF 5
