REMARK  Name = ZINCvU0000000Eb9.0
REMARK                            x       y       z     vdW  Elec       q    Type
REMARK                         _______ _______ _______ _____ _____    ______ ____
ROOT
ATOM      1  C   LIG    1        2.487   1.054  -0.015  0.00  0.00    +0.200 C 
ENDROOT
BRANCH   1   2
ATOM      2  N   LIG    1        3.425   1.742  -0.911  0.00  0.00    -0.510 NA
ATOM      3  C   LIG    1        2.857   1.885  -2.259  0.00  0.00    +0.190 C 
ATOM      4  C   LIG    1        3.830   2.674  -3.138  0.00  0.00    +0.210 C 
ATOM      5  N   LIG    1        5.122   1.975  -3.186  0.00  0.00    -0.490 N 
ATOM      6  C   LIG    1        5.689   1.833  -1.838  0.00  0.00    +0.210 C 
ATOM      7  C   LIG    1        4.717   1.043  -0.959  0.00  0.00    +0.190 C 
BRANCH   5   8
ATOM      8  C   LIG    1        6.014   2.630  -4.038  0.00  0.00    +0.130 A 
ATOM      9  C   LIG    1        5.666   2.865  -5.362  0.00  0.00    -0.010 A 
ATOM     10  C   LIG    1        6.550   3.512  -6.203  0.00  0.00    +0.050 A 
ATOM     11  C   LIG    1        7.781   3.926  -5.729  0.00  0.00    -0.010 A 
ATOM     12  C   LIG    1        8.131   3.694  -4.410  0.00  0.00    -0.010 A 
ATOM     13 CL   LIG    1        9.678   4.216  -3.818  0.00  0.00    -0.070 Cl
ATOM     14  C   LIG    1        7.248   3.052  -3.562  0.00  0.00    -0.020 A 
ENDBRANCH   5   8
ENDBRANCH   1   2
BRANCH   1  15
ATOM     15  C   LIG    1        1.177   1.798   0.008  0.00  0.00    -0.100 A 
ATOM     16  C   LIG    1       -0.016   1.098   0.017  0.00  0.00    +0.010 A 
ATOM     17  C   LIG    1       -1.218   1.780   0.032  0.00  0.00    +0.010 A 
ATOM     18  C   LIG    1       -1.228   3.163   0.049  0.00  0.00    +0.010 A 
ATOM     19  C   LIG    1       -0.035   3.862   0.040  0.00  0.00    +0.010 A 
ATOM     20  C   LIG    1        1.167   3.180   0.019  0.00  0.00    +0.050 A 
ENDBRANCH   1  15
BRANCH   1  23
ATOM     21  N   LIG    1        2.372   0.421   2.374  0.00  0.00    -0.670 N 
ATOM     22  H   LIG    1        1.476   0.086   2.211  0.00  0.00    +0.410 HD
ATOM     23  C   LIG    1        3.063   1.008   1.377  0.00  0.00    +0.530 C 
ATOM     24  O   LIG    1        4.149   1.501   1.600  0.00  0.00    -0.490 OA
BRANCH  21  29
ATOM     25  C   LIG    1        4.701  -0.099   7.522  0.00  0.00    +0.100 C 
ATOM     26  C   LIG    1        4.083   0.039   6.154  0.00  0.00    -0.090 A 
ATOM     27  C   LIG    1        3.247  -0.951   5.672  0.00  0.00    +0.050 A 
ATOM     28  C   LIG    1        2.675  -0.825   4.421  0.00  0.00    -0.010 A 
ATOM     29  C   LIG    1        2.947   0.293   3.643  0.00  0.00    +0.150 A 
ATOM     30  C   LIG    1        3.787   1.286   4.130  0.00  0.00    +0.040 A 
ATOM     31  C   LIG    1        4.353   1.157   5.384  0.00  0.00    -0.020 A 
ATOM     32 CL   LIG    1        5.403   2.398   5.994  0.00  0.00    -0.060 Cl
ENDBRANCH  21  29
ENDBRANCH   1  23
TORSDOF 5
