REMARK  Name = ZINCpk00000y6xG0.0
REMARK                            x       y       z     vdW  Elec       q    Type
REMARK                         _______ _______ _______ _____ _____    ______ ____
ROOT
ATOM      1  C   LIG    1       -3.578   6.423   0.286  0.00  0.00    +0.350 C 
ATOM      2  C   LIG    1       -3.099   6.918  -1.083  0.00  0.00    +0.030 C 
ATOM      3  C   LIG    1       -1.802   7.711  -0.908  0.00  0.00    +0.030 C 
ATOM      4  C   LIG    1       -0.722   6.802  -0.318  0.00  0.00    +0.010 C 
ATOM      5  C   LIG    1       -1.175   6.309   1.065  0.00  0.00    +0.280 C 
ATOM      6  N   LIG    1       -2.491   5.669   0.924  0.00  0.00    -0.600 N 
ATOM      7  C   LIG    1       -2.697   4.416   1.376  0.00  0.00    +0.570 C 
ATOM      8  O   LIG    1       -3.758   3.862   1.167  0.00  0.00    -0.520 OA
ENDROOT
BRANCH   7   9
ATOM      9  C   LIG    1       -1.634   3.718   2.126  0.00  0.00    -0.170 A 
ATOM     10  C   LIG    1       -0.862   4.403   3.064  0.00  0.00    +0.330 A 
ATOM     11  N   LIG    1        0.088   3.788   3.738  0.00  0.00    -0.460 NA
ATOM     12  C   LIG    1        0.352   2.504   3.559  0.00  0.00    +0.320 A 
ATOM     13  O   LIG    1        1.338   1.900   4.270  0.00  0.00    -0.280 OA
ATOM     14  C   LIG    1        1.138   0.525   4.609  0.00  0.00    +0.320 C 
ATOM     15  C   LIG    1        0.671  -0.235   3.393  0.00  0.00    +0.490 C 
ATOM     16  N   LIG    1       -0.081   0.392   2.462  0.00  0.00    -0.660 N 
ATOM     17  H   LIG    1       -0.409  -0.090   1.687  0.00  0.00    +0.420 HD
ATOM     18  O   LIG    1        0.969  -1.402   3.252  0.00  0.00    -0.490 OA
ATOM     19  C   LIG    1       -0.379   1.750   2.635  0.00  0.00    +0.050 A 
ATOM     20  C   LIG    1       -1.381   2.355   1.901  0.00  0.00    +0.130 A 
ENDBRANCH   7   9
BRANCH   1  24
ATOM     21  C   LIG    1       -8.074   4.277   0.788  0.00  0.00    +0.230 C 
ATOM     22  C   LIG    1       -6.682   4.631   0.335  0.00  0.00    +0.180 A 
ATOM     23  N   LIG    1       -5.921   5.582   0.820  0.00  0.00    -0.480 NA
ATOM     24  C   LIG    1       -4.779   5.529   0.112  0.00  0.00    +0.190 A 
ATOM     25  N   LIG    1       -4.898   4.561  -0.747  0.00  0.00    -0.360 NA
ATOM     26  O   LIG    1       -5.984   4.032  -0.635  0.00  0.00    +0.080 OA
ENDBRANCH   1  24
TORSDOF 2
