REMARK  Name = ZINCrH000004pVtq.0
REMARK                            x       y       z     vdW  Elec       q    Type
REMARK                         _______ _______ _______ _____ _____    ______ ____
ROOT
ATOM      1  C   LIG    1        1.235   5.673   2.930  0.00  0.00    +0.050 C 
ENDROOT
BRANCH   1   2
ATOM      2  C   LIG    1        0.918   7.142   2.822  0.00  0.00    +0.540 C 
ATOM      3  N   LIG    1        1.913   8.036   2.657  0.00  0.00    -0.610 N 
ATOM      4  C   LIG    1        3.354   7.729   2.667  0.00  0.00    +0.250 C 
ATOM      5  C   LIG    1        4.009   8.871   1.851  0.00  0.00    +0.040 C 
ATOM      6  C   LIG    1        3.148  10.090   2.275  0.00  0.00    +0.040 C 
ATOM      7  C   LIG    1        1.740   9.478   2.430  0.00  0.00    +0.220 C 
ATOM      8  O   LIG    1       -0.233   7.520   2.884  0.00  0.00    -0.530 OA
BRANCH   7   9
ATOM      9  C   LIG    1        1.029  10.112   3.628  0.00  0.00    -0.010 C 
ATOM     10  C   LIG    1        0.905  11.621   3.407  0.00  0.00    +0.010 C 
ATOM     11  C   LIG    1        0.194  12.255   4.605  0.00  0.00    +0.000 C 
ATOM     12  C   LIG    1        1.002  11.990   5.876  0.00  0.00    +0.000 C 
ATOM     13  C   LIG    1        1.127  10.481   6.097  0.00  0.00    +0.000 C 
ATOM     14  C   LIG    1        1.838   9.847   4.899  0.00  0.00    +0.010 C 
ENDBRANCH   7   9
ENDBRANCH   1   2
BRANCH   1  15
ATOM     15  C   LIG    1       -0.063   4.883   3.111  0.00  0.00    +0.330 C 
BRANCH  15  25
ATOM     16  C   LIG    1        1.262   0.702   0.971  0.00  0.00    +0.100 C 
ATOM     17  C   LIG    1        0.573   1.205   2.241  0.00  0.00    +0.180 C 
ATOM     18  O   LIG    1        1.425   0.976   3.367  0.00  0.00    -0.300 OA
ATOM     19  C   LIG    1        1.097   1.613   4.522  0.00  0.00    +0.080 A 
ATOM     20  C   LIG    1        1.351   1.025   5.749  0.00  0.00    +0.030 A 
ATOM     21  C   LIG    1        1.009   1.688   6.914  0.00  0.00    +0.030 A 
ATOM     22  C   LIG    1        0.413   2.934   6.858  0.00  0.00    +0.020 A 
ATOM     23  C   LIG    1        0.156   3.528   5.636  0.00  0.00    +0.010 A 
ATOM     24  C   LIG    1        0.496   2.870   4.465  0.00  0.00    +0.090 A 
ATOM     25  N   LIG    1        0.246   3.454   3.216  0.00  0.00    -0.550 N 
ATOM     26  C   LIG    1        0.293   2.680   2.110  0.00  0.00    +0.490 C 
ATOM     27  O   LIG    1        0.110   3.170   1.016  0.00  0.00    -0.500 OA
ENDBRANCH  15  25
ENDBRANCH   1  15
TORSDOF 4
