REMARK  Name = ZINCpk000000pIy7.0
REMARK                            x       y       z     vdW  Elec       q    Type
REMARK                         _______ _______ _______ _____ _____    ______ ____
ROOT
ATOM      1  C   LIG    1       -2.455   0.869   0.018  0.00  0.00    -0.160 A 
ATOM      2  C   LIG    1       -2.442  -0.529   0.011  0.00  0.00    +0.080 A 
ATOM      3  C   LIG    1       -3.623  -1.229   0.013  0.00  0.00    -0.010 A 
ATOM      4  C   LIG    1       -4.849  -0.552   0.023  0.00  0.00    +0.190 A 
ATOM      5  C   LIG    1       -4.857   0.838   0.031  0.00  0.00    -0.140 A 
ATOM      6  C   LIG    1       -6.295   1.308   0.040  0.00  0.00    +0.110 C 
ATOM      7  C   LIG    1       -7.122   0.012   0.036  0.00  0.00    +0.230 C 
ATOM      8  C   LIG    1       -8.001  -0.056  -1.215  0.00  0.00    +0.050 C 
ATOM      9  N   LIG    1       -6.138  -1.073   0.026  0.00  0.00    -0.930 N 
ATOM     10  C   LIG    1       -3.677   1.546   0.034  0.00  0.00    +0.130 A 
ENDROOT
BRANCH   1  13
ATOM     11  N   LIG    1       -0.011   0.966   0.007  0.00  0.00    -0.720 N 
ATOM     12  H   LIG    1        0.002  -0.004   0.002  0.00  0.00    +0.410 HD
ATOM     13  C   LIG    1       -1.187   1.624   0.017  0.00  0.00    +0.570 C 
ATOM     14  O   LIG    1       -1.204   2.840   0.023  0.00  0.00    -0.530 OA
BRANCH  11  15
ATOM     15  C   LIG    1        1.248   1.716  -0.001  0.00  0.00    +0.200 C 
ATOM     16  C   LIG    1        1.329   2.589   1.253  0.00  0.00    +0.070 C 
BRANCH  15  18
ATOM     17  C   LIG    1        1.099   1.743  -2.494  0.00  0.00    +0.010 C 
ATOM     18  C   LIG    1        1.305   2.603  -1.246  0.00  0.00    +0.060 C 
ENDBRANCH  15  18
BRANCH  15  19
ATOM     19  C   LIG    1        2.406   0.752  -0.017  0.00  0.00    +0.460 C 
ATOM     20  O   LIG    1        3.413   1.028  -0.625  0.00  0.00    -0.490 OA
BRANCH  19  21
ATOM     21  O   LIG    1        2.320  -0.413   0.644  0.00  0.00    -0.360 OA
ATOM     22  C   LIG    1        3.474  -1.292   0.585  0.00  0.00    +0.280 C 
ENDBRANCH  19  21
ENDBRANCH  15  19
ENDBRANCH  11  15
ENDBRANCH   1  13
BRANCH   9  23
ATOM     23  S   LIG    1       -6.508  -2.687   0.018  0.00  0.00    +2.610 S 
ATOM     24  O   LIG    1       -5.383  -3.301  -0.596  0.00  0.00    -0.940 OA
ATOM     25  O   LIG    1       -7.794  -2.749  -0.582  0.00  0.00    -0.930 OA
ATOM     26  C   LIG    1       -6.601  -3.138   1.772  0.00  0.00    -0.270 C 
ENDBRANCH   9  23
TORSDOF 6
