REMARK  Name = ZINCrH000004tfKU.0
REMARK                            x       y       z     vdW  Elec       q    Type
REMARK                         _______ _______ _______ _____ _____    ______ ____
ROOT
ATOM      1  C   LIG    1        3.373   7.765  -0.273  0.00  0.00    -0.090 A 
ATOM      2  C   LIG    1        2.146   8.403  -0.251  0.00  0.00    +0.020 A 
ATOM      3  C   LIG    1        0.982   7.665  -0.144  0.00  0.00    +0.030 A 
ATOM      4  C   LIG    1        1.040   6.288  -0.065  0.00  0.00    +0.030 A 
ATOM      5  C   LIG    1        2.271   5.644  -0.082  0.00  0.00    +0.140 A 
ATOM      6  C   LIG    1        3.439   6.388  -0.189  0.00  0.00    +0.010 A 
ENDROOT
BRANCH   5   7
ATOM      7  N   LIG    1        2.334   4.250   0.003  0.00  0.00    -0.670 N 
ATOM      8  H   LIG    1        3.034   3.767  -0.465  0.00  0.00    +0.410 HD
ATOM      9  C   LIG    1        1.423   3.577   0.733  0.00  0.00    +0.560 C 
ATOM     10  O   LIG    1        0.606   4.186   1.395  0.00  0.00    -0.510 OA
BRANCH   9  11
ATOM     11  C   LIG    1        1.418   2.099   0.729  0.00  0.00    -0.110 A 
ATOM     12  C   LIG    1        2.355   1.397  -0.030  0.00  0.00    +0.030 A 
ATOM     13  C   LIG    1        2.346   0.017  -0.031  0.00  0.00    +0.050 A 
ATOM     14  C   LIG    1        1.411  -0.672   0.719  0.00  0.00    +0.020 A 
ATOM     15  C   LIG    1        0.476   0.018   1.476  0.00  0.00    +0.100 A 
ATOM     16  F   LIG    1       -0.434  -0.662   2.207  0.00  0.00    -0.130 F 
ATOM     17  C   LIG    1        0.475   1.399   1.484  0.00  0.00    +0.060 A 
ENDBRANCH   9  11
ENDBRANCH   5   7
BRANCH   1  18
ATOM     18  C   LIG    1        4.640   8.574  -0.389  0.00  0.00    +0.320 C 
BRANCH  18  20
ATOM     19  C   LIG    1        6.080   9.444  -2.150  0.00  0.00    +0.530 C 
ATOM     20  N   LIG    1        4.979   8.749  -1.803  0.00  0.00    -0.720 N 
ATOM     21  H   LIG    1        4.412   8.364  -2.489  0.00  0.00    +0.400 HD
ATOM     22  O   LIG    1        6.790   9.925  -1.292  0.00  0.00    -0.510 OA
BRANCH  19  23
ATOM     23  C   LIG    1        6.430   9.624  -3.605  0.00  0.00    +0.020 C 
ATOM     24  C   LIG    1        6.713   8.253  -4.254  0.00  0.00    +0.060 C 
ATOM     25  C   LIG    1        7.873   8.532  -5.241  0.00  0.00    +0.020 C 
ATOM     26  C   LIG    1        8.745   9.550  -4.464  0.00  0.00    +0.040 C 
ATOM     27  C   LIG    1        7.722  10.448  -3.739  0.00  0.00    +0.080 C 
BRANCH  23  29
ATOM     28  N   LIG    1        4.475  10.819  -4.852  0.00  0.00    -0.400 NA
ATOM     29  C   LIG    1        5.327  10.298  -4.309  0.00  0.00    +0.210 C 
ENDBRANCH  23  29
ENDBRANCH  19  23
ENDBRANCH  18  20
ENDBRANCH   1  18
TORSDOF 6
