REMARK  Name = ZINCvU000000086Q.0
REMARK                            x       y       z     vdW  Elec       q    Type
REMARK                         _______ _______ _______ _____ _____    ______ ____
ROOT
ATOM      1  C   LIG    1       -4.010   0.692  -0.981  0.00  0.00    +0.130 C 
ATOM      2  N   LIG    1       -2.800   0.873  -0.577  0.00  0.00    -0.200 NA
ATOM      3  N   LIG    1       -2.035   1.683  -1.413  0.00  0.00    -0.460 N 
ATOM      4  C   LIG    1       -2.861   2.099  -2.558  0.00  0.00    +0.250 C 
ATOM      5  C   LIG    1       -0.748   2.025  -1.210  0.00  0.00    +0.560 C 
ATOM      6  O   LIG    1       -0.175   2.735  -2.011  0.00  0.00    -0.510 OA
ATOM      7  C   LIG    1       -4.223   1.430  -2.284  0.00  0.00    +0.100 C 
ENDROOT
BRANCH   1  12
ATOM      8  C   LIG    1       -9.427  -1.972   0.104  0.00  0.00    +0.130 A 
ATOM      9  C   LIG    1       -8.546  -1.207  -0.602  0.00  0.00    -0.020 A 
ATOM     10  C   LIG    1       -7.237  -1.030  -0.119  0.00  0.00    -0.090 A 
ATOM     11  C   LIG    1       -6.305  -0.248  -0.821  0.00  0.00    +0.150 A 
ATOM     12  C   LIG    1       -5.027  -0.117  -0.286  0.00  0.00    -0.070 A 
ATOM     13  C   LIG    1       -4.713  -0.767   0.923  0.00  0.00    +0.230 A 
ATOM     14  N   LIG    1       -5.601  -1.487   1.562  0.00  0.00    -0.460 NA
ATOM     15 CL   LIG    1       -3.116  -0.605   1.583  0.00  0.00    +0.010 Cl
ATOM     16  C   LIG    1       -6.845  -1.649   1.096  0.00  0.00    +0.170 A 
ATOM     17  C   LIG    1       -7.777  -2.430   1.797  0.00  0.00    -0.020 A 
ATOM     18  C   LIG    1       -9.041  -2.585   1.306  0.00  0.00    +0.150 A 
BRANCH   8  20
ATOM     19  C   LIG    1      -11.025  -1.493  -1.591  0.00  0.00    +0.250 C 
ATOM     20  O   LIG    1      -10.693  -2.142  -0.362  0.00  0.00    -0.300 OA
ENDBRANCH   8  20
BRANCH  18  21
ATOM     21  O   LIG    1       -9.938  -3.342   1.990  0.00  0.00    -0.300 OA
ATOM     22  C   LIG    1       -9.488  -3.940   3.207  0.00  0.00    +0.250 C 
ENDBRANCH  18  21
ENDBRANCH   1  12
BRANCH   4  23
ATOM     23  C   LIG    1       -2.270   1.595  -3.849  0.00  0.00    -0.090 A 
ATOM     24  C   LIG    1       -1.695   0.340  -3.903  0.00  0.00    +0.010 A 
ATOM     25  C   LIG    1       -1.157  -0.124  -5.089  0.00  0.00    +0.000 A 
ATOM     26  C   LIG    1       -1.185   0.672  -6.219  0.00  0.00    +0.010 A 
ATOM     27  C   LIG    1       -1.756   1.930  -6.164  0.00  0.00    +0.010 A 
ATOM     28  C   LIG    1       -2.298   2.392  -4.979  0.00  0.00    +0.020 A 
ENDBRANCH   4  23
BRANCH   5  29
ATOM     29  C   LIG    1       -0.019   1.526   0.010  0.00  0.00    +0.000 C 
ATOM     30  C   LIG    1        1.417   2.055  -0.000  0.00  0.00    +0.050 C 
ATOM     31  C   LIG    1        0.002  -0.004   0.002  0.00  0.00    +0.050 C 
ENDBRANCH   5  29
TORSDOF 5
