REMARK  Name = ZINCrD000000Ao2v.0
REMARK                            x       y       z     vdW  Elec       q    Type
REMARK                         _______ _______ _______ _____ _____    ______ ____
ROOT
ATOM      1  N   LIG    1       -2.468  -0.346   0.037  0.00  0.00    -0.720 N 
ATOM      2  H   LIG    1       -1.621  -0.821   0.027  0.00  0.00    +0.410 HD
ATOM      3  C   LIG    1       -2.485   1.001   0.056  0.00  0.00    +0.560 C 
ATOM      4  O   LIG    1       -3.545   1.595   0.070  0.00  0.00    -0.510 OA
ENDROOT
BRANCH   3   5
ATOM      5  C   LIG    1       -1.216   1.755   0.060  0.00  0.00    -0.160 A 
ATOM      6  C   LIG    1       -0.010   1.073   0.045  0.00  0.00    +0.100 A 
ATOM      7  C   LIG    1        1.192   1.796   0.043  0.00  0.00    -0.070 A 
ATOM      8  C   LIG    1        2.434   1.136   0.022  0.00  0.00    +0.040 A 
ATOM      9  C   LIG    1        3.584   1.865   0.020  0.00  0.00    +0.010 A 
ATOM     10  C   LIG    1        3.550   3.258   0.040  0.00  0.00    +0.030 A 
ATOM     11  C   LIG    1        2.367   3.930   0.062  0.00  0.00    +0.020 A 
ATOM     12  C   LIG    1        1.158   3.214   0.063  0.00  0.00    -0.020 A 
ATOM     13  C   LIG    1       -0.079   3.881   0.085  0.00  0.00    +0.000 A 
ATOM     14  C   LIG    1       -1.239   3.166   0.086  0.00  0.00    +0.160 A 
BRANCH  14  15
ATOM     15  O   LIG    1       -2.430   3.818   0.107  0.00  0.00    -0.480 OA
ATOM     16  H   LIG    1       -2.783   4.019  -0.770  0.00  0.00    +0.400 HD
ENDBRANCH  14  15
ENDBRANCH   3   5
BRANCH   1  17
ATOM     17  C   LIG    1       -3.727  -1.095   0.033  0.00  0.00    +0.320 C 
BRANCH  17  19
ATOM     18  O   LIG    1       -2.284  -2.963   0.000  0.00  0.00    -0.510 OA
ATOM     19  C   LIG    1       -3.433  -2.573   0.011  0.00  0.00    +0.520 C 
ATOM     20  N   LIG    1       -4.446  -3.462   0.004  0.00  0.00    -0.660 N 
ATOM     21  H   LIG    1       -5.362  -3.153   0.078  0.00  0.00    +0.420 HD
BRANCH  20  22
ATOM     22  C   LIG    1       -4.175  -4.832  -0.111  0.00  0.00    +0.130 A 
ATOM     23  C   LIG    1       -3.035  -5.366   0.472  0.00  0.00    +0.100 A 
ATOM     24  C   LIG    1       -2.768  -6.717   0.359  0.00  0.00    +0.050 A 
ATOM     25  C   LIG    1       -3.638  -7.540  -0.335  0.00  0.00    +0.090 A 
ATOM     26  C   LIG    1       -4.779  -7.011  -0.919  0.00  0.00    +0.050 A 
ATOM     27  F   LIG    1       -5.627  -7.816  -1.596  0.00  0.00    -0.110 F 
ATOM     28  F   LIG    1       -3.375  -8.861  -0.443  0.00  0.00    -0.120 F 
ATOM     29  C   LIG    1       -5.052  -5.659  -0.803  0.00  0.00    +0.070 A 
ATOM     30  F   LIG    1       -6.166  -5.143  -1.367  0.00  0.00    -0.110 F 
ENDBRANCH  20  22
ENDBRANCH  17  19
ENDBRANCH   1  17
TORSDOF 5
