REMARK  Name = ZINCrD000000fofk.0
REMARK                            x       y       z     vdW  Elec       q    Type
REMARK                         _______ _______ _______ _____ _____    ______ ____
ROOT
ATOM      1  C   LIG    1       -0.026   1.759   0.107  0.00  0.00    -0.660 A 
ATOM      2  C   LIG    1       -1.102   2.442   0.645  0.00  0.00    +0.120 A 
ATOM      3  C   LIG    1       -1.123   3.821   0.634  0.00  0.00    +0.030 A 
ATOM      4  C   LIG    1       -0.061   4.528   0.068  0.00  0.00    -0.070 A 
ATOM      5  C   LIG    1        1.019   3.833  -0.478  0.00  0.00    +0.060 A 
ATOM      6  C   LIG    1        1.030   2.453  -0.456  0.00  0.00    +0.130 A 
ENDROOT
BRANCH   4   7
ATOM      7  C   LIG    1       -0.080   6.006   0.047  0.00  0.00    +0.550 C 
ATOM      8  N   LIG    1       -1.252   6.663  -0.052  0.00  0.00    -0.600 N 
ATOM      9  C   LIG    1       -2.513   5.918  -0.044  0.00  0.00    +0.290 C 
ATOM     10  O   LIG    1        0.962   6.628   0.119  0.00  0.00    -0.520 OA
BRANCH   8  11
ATOM     11  C   LIG    1       -1.265   8.124  -0.169  0.00  0.00    +0.290 C 
ATOM     12  C   LIG    1       -2.029   8.716   1.014  0.00  0.00    +0.010 C 
ATOM     13  C   LIG    1       -2.219  10.217   0.764  0.00  0.00    +0.030 C 
ATOM     14  C   LIG    1       -3.216  10.391  -0.380  0.00  0.00    +0.080 C 
ATOM     15  C   LIG    1       -2.812   9.557  -1.567  0.00  0.00    -0.060 A 
ATOM     16  C   LIG    1       -3.374   9.868  -2.797  0.00  0.00    +0.000 A 
ATOM     17  C   LIG    1       -3.049   9.137  -3.922  0.00  0.00    +0.010 A 
ATOM     18  C   LIG    1       -2.156   8.087  -3.823  0.00  0.00    +0.000 A 
ATOM     19  C   LIG    1       -1.594   7.777  -2.601  0.00  0.00    +0.010 A 
ATOM     20  C   LIG    1       -1.919   8.513  -1.469  0.00  0.00    -0.100 A 
ENDBRANCH   8  11
ENDBRANCH   4   7
BRANCH   1  21
ATOM     21  S   LIG    1       -0.004  -0.003   0.131  0.00  0.00    +2.700 S 
ATOM     22  O   LIG    1        0.860  -0.408  -0.922  0.00  0.00    -0.950 OA
ATOM     23  O   LIG    1       -1.359  -0.420   0.230  0.00  0.00    -0.950 OA
BRANCH  21  24
ATOM     24  N   LIG    1        0.731  -0.464   1.542  0.00  0.00    -1.110 NA
ATOM     25  H   LIG    1        1.578  -0.936   1.516  0.00  0.00    +0.420 HD
BRANCH  24  26
ATOM     26  C   LIG    1        0.102  -0.159   2.829  0.00  0.00    +0.300 C 
BRANCH  26  28
ATOM     27  C   LIG    1        1.258  -0.393   4.967  0.00  0.00    +0.050 C 
ATOM     28  C   LIG    1        0.751  -0.981   3.913  0.00  0.00    -0.050 C 
ENDBRANCH  26  28
ENDBRANCH  24  26
ENDBRANCH  21  24
ENDBRANCH   1  21
TORSDOF 6
