REMARK  Name = ZINCpe000000Zlst.0
REMARK                            x       y       z     vdW  Elec       q    Type
REMARK                         _______ _______ _______ _____ _____    ______ ____
ROOT
ATOM      1  C   LIG    1       -0.013   1.086   0.008  0.00  0.00    +0.180 C 
ENDROOT
BRANCH   1   2
ATOM      2  C   LIG    1       -0.500   1.810   1.236  0.00  0.00    -0.060 A 
ATOM      3  C   LIG    1       -1.384   1.189   2.099  0.00  0.00    +0.010 A 
ATOM      4  C   LIG    1       -1.831   1.852   3.227  0.00  0.00    +0.050 A 
ATOM      5  C   LIG    1       -1.396   3.136   3.493  0.00  0.00    -0.010 A 
ATOM      6  C   LIG    1       -0.511   3.759   2.629  0.00  0.00    +0.100 A 
ATOM      7  F   LIG    1       -0.085   5.014   2.888  0.00  0.00    -0.140 F 
ATOM      8  C   LIG    1       -0.059   3.092   1.503  0.00  0.00    +0.030 A 
ENDBRANCH   1   2
BRANCH   1   9
ATOM      9  N   LIG    1        1.444   1.236  -0.103  0.00  0.00    -0.510 NA
ATOM     10  C   LIG    1        1.961   0.514  -1.275  0.00  0.00    +0.150 C 
ATOM     11  C   LIG    1        3.470   0.746  -1.386  0.00  0.00    +0.230 C 
ATOM     12  O   LIG    1        4.102   0.330  -0.173  0.00  0.00    -0.380 OA
ATOM     13  C   LIG    1        3.623   1.013   0.989  0.00  0.00    +0.220 C 
ATOM     14  C   LIG    1        2.116   0.783   1.124  0.00  0.00    +0.160 C 
ENDBRANCH   1   9
BRANCH   1  16
ATOM     15  O   LIG    1       -0.131   2.567  -1.825  0.00  0.00    -0.500 OA
ATOM     16  C   LIG    1       -0.672   1.670  -1.214  0.00  0.00    +0.520 C 
ATOM     17  N   LIG    1       -1.864   1.196  -1.629  0.00  0.00    -0.720 N 
ATOM     18  H   LIG    1       -2.297   0.478  -1.141  0.00  0.00    +0.400 HD
BRANCH  17  19
ATOM     19  C   LIG    1       -2.505   1.764  -2.817  0.00  0.00    +0.270 C 
ATOM     20  C   LIG    1       -1.956   1.079  -4.066  0.00  0.00    +0.020 C 
ATOM     21  C   LIG    1       -2.410   1.813  -5.325  0.00  0.00    +0.070 C 
ATOM     22  C   LIG    1       -3.911   1.605  -5.536  0.00  0.00    -0.320 C 
ATOM     23  S   LIG    1       -4.813   2.357  -4.150  0.00  0.00    +2.420 S 
ATOM     24  O   LIG    1       -4.512   3.746  -4.111  0.00  0.00    -0.930 OA
ATOM     25  O   LIG    1       -6.170   1.939  -4.210  0.00  0.00    -0.930 OA
ATOM     26  C   LIG    1       -4.018   1.551  -2.729  0.00  0.00    -0.350 C 
ENDBRANCH  17  19
ENDBRANCH   1  16
TORSDOF 4
