REMARK  Name = ZINCrg000000ssx7.0
REMARK                            x       y       z     vdW  Elec       q    Type
REMARK                         _______ _______ _______ _____ _____    ______ ____
ROOT
ATOM      1  C   LIG    1        0.258  -1.543   2.165  0.00  0.00    +0.610 C 
ATOM      2  N   LIG    1        0.469  -0.617   1.208  0.00  0.00    -0.600 N 
ATOM      3  C   LIG    1       -0.593  -0.274   0.252  0.00  0.00    +0.290 C 
ATOM      4  C   LIG    1       -0.833   1.239   0.307  0.00  0.00    +0.300 C 
ATOM      5  N   LIG    1        0.463   1.924   0.202  0.00  0.00    -1.010 NA
ATOM      6  C   LIG    1        1.525   1.581   1.159  0.00  0.00    +0.280 C 
ATOM      7  C   LIG    1        1.765   0.068   1.103  0.00  0.00    +0.280 C 
ATOM      8  O   LIG    1       -0.819  -2.103   2.242  0.00  0.00    -0.530 OA
ENDROOT
BRANCH   1  15
ATOM      9  C   LIG    1        0.778  -0.116   4.951  0.00  0.00    +0.170 C 
ATOM     10  C   LIG    1        1.576  -1.250   4.360  0.00  0.00    +0.120 A 
ATOM     11  N   LIG    1        2.610  -1.827   4.909  0.00  0.00    -0.280 NA
ATOM     12  N   LIG    1        3.077  -2.830   4.052  0.00  0.00    -0.310 N 
ATOM     13  C   LIG    1        2.293  -2.856   2.959  0.00  0.00    +0.130 A 
ATOM     14  C   LIG    1        2.437  -3.782   1.779  0.00  0.00    +0.160 C 
ATOM     15  C   LIG    1        1.333  -1.877   3.117  0.00  0.00    -0.280 A 
BRANCH  12  16
ATOM     16  C   LIG    1        4.176  -3.666   4.292  0.00  0.00    +0.140 A 
ATOM     17  C   LIG    1        4.376  -4.207   5.555  0.00  0.00    +0.030 A 
ATOM     18  C   LIG    1        5.457  -5.035   5.787  0.00  0.00    +0.030 A 
ATOM     19  C   LIG    1        6.345  -5.317   4.766  0.00  0.00    +0.020 A 
ATOM     20  C   LIG    1        6.152  -4.776   3.508  0.00  0.00    +0.040 A 
ATOM     21  C   LIG    1        5.070  -3.951   3.268  0.00  0.00    +0.010 A 
ENDBRANCH  12  16
ENDBRANCH   1  15
BRANCH   5  22
ATOM     22  S   LIG    1        0.723   3.062  -0.973  0.00  0.00    +2.780 S 
ATOM     23  O   LIG    1       -0.201   2.779  -2.015  0.00  0.00    -0.970 OA
ATOM     24  O   LIG    1        2.128   3.118  -1.174  0.00  0.00    -0.970 OA
BRANCH  22  25
ATOM     25  N   LIG    1        0.282   4.528  -0.342  0.00  0.00    -1.010 NA
ATOM     26  C   LIG    1       -1.095   5.005  -0.490  0.00  0.00    +0.300 C 
ATOM     27  C   LIG    1        1.269   5.348   0.364  0.00  0.00    +0.290 C 
ENDBRANCH  22  25
ENDBRANCH   5  22
TORSDOF 4
