REMARK  Name = ZINCvU0000000ERy.0
REMARK                            x       y       z     vdW  Elec       q    Type
REMARK                         _______ _______ _______ _____ _____    ______ ____
ROOT
ATOM      1  N   LIG    1        2.987   0.948  -1.391  0.00  0.00    -0.530 NA
ATOM      2  C   LIG    1        2.090   0.098  -2.185  0.00  0.00    +0.190 C 
ATOM      3  C   LIG    1        2.574   0.066  -3.637  0.00  0.00    +0.220 C 
ATOM      4  N   LIG    1        3.952  -0.443  -3.680  0.00  0.00    -0.480 N 
ATOM      5  C   LIG    1        4.849   0.407  -2.885  0.00  0.00    +0.220 C 
ATOM      6  C   LIG    1        4.365   0.440  -1.434  0.00  0.00    +0.200 C 
ENDROOT
BRANCH   4   7
ATOM      7  C   LIG    1        4.402  -0.554  -4.991  0.00  0.00    +0.340 A 
ATOM      8  N   LIG    1        4.958   0.490  -5.585  0.00  0.00    -0.490 NA
ATOM      9  C   LIG    1        5.403   0.426  -6.825  0.00  0.00    +0.360 A 
ATOM     10  C   LIG    1        5.293  -0.739  -7.558  0.00  0.00    -0.240 A 
ATOM     11  C   LIG    1        4.710  -1.857  -6.974  0.00  0.00    +0.150 A 
ATOM     12  C   LIG    1        4.258  -1.761  -5.670  0.00  0.00    -0.080 A 
ATOM     13 CL   LIG    1        3.521  -3.127  -4.892  0.00  0.00    -0.020 Cl
BRANCH  10  14
ATOM     14  C   LIG    1        5.799  -0.797  -8.976  0.00  0.00    +0.520 C 
ATOM     15  F   LIG    1        6.216  -2.100  -9.269  0.00  0.00    -0.170 F 
ATOM     16  F   LIG    1        6.877   0.082  -9.123  0.00  0.00    -0.170 F 
ATOM     17  F   LIG    1        4.773  -0.427  -9.853  0.00  0.00    -0.170 F 
ENDBRANCH  10  14
ENDBRANCH   4   7
BRANCH   1  18
ATOM     18  C   LIG    1        2.512   1.065  -0.006  0.00  0.00    +0.250 C 
BRANCH  18  24
ATOM     19  C   LIG    1        1.015   7.551   0.101  0.00  0.00    +0.120 C 
ATOM     20  C   LIG    1        1.066   6.045   0.078  0.00  0.00    -0.020 A 
ATOM     21  C   LIG    1       -0.109   5.323   0.076  0.00  0.00    +0.020 A 
ATOM     22  C   LIG    1       -0.069   3.935   0.055  0.00  0.00    +0.160 A 
ATOM     23  C   LIG    1        1.173   3.278   0.037  0.00  0.00    -0.140 A 
ATOM     24  C   LIG    1        1.203   1.813   0.015  0.00  0.00    +0.040 A 
ATOM     25  C   LIG    1        0.021   1.147   0.013  0.00  0.00    -0.080 A 
ATOM     26  C   LIG    1       -1.191   1.871   0.027  0.00  0.00    +0.510 A 
ATOM     27  O   LIG    1       -2.246   1.263   0.019  0.00  0.00    -0.460 OA
ATOM     28  C   LIG    1        2.357   4.023   0.039  0.00  0.00    +0.120 A 
ATOM     29  O   LIG    1       -1.211   3.213   0.052  0.00  0.00    -0.270 OA
ATOM     30  C   LIG    1        2.295   5.399   0.060  0.00  0.00    -0.060 A 
ATOM     31 CL   LIG    1        3.760   6.330   0.064  0.00  0.00    -0.050 Cl
ENDBRANCH  18  24
ENDBRANCH   1  18
TORSDOF 4
