REMARK  Name = ZINCpk000000mF7b.2
REMARK                            x       y       z     vdW  Elec       q    Type
REMARK                         _______ _______ _______ _____ _____    ______ ____
ROOT
ATOM      1  C   LIG    1        7.753   1.429   5.694  0.00  0.00    +0.410 A 
ATOM      2  N   LIG    1        7.524   2.010   4.542  0.00  0.00    -0.340 NA
ATOM      3  N   LIG    1        6.193   1.758   4.186  0.00  0.00    -0.300 NA
ATOM      4  C   LIG    1        5.650   1.036   5.136  0.00  0.00    +0.200 A 
ATOM      5  N   LIG    1        6.601   0.811   6.091  0.00  0.00    -0.460 N 
ENDROOT
BRANCH   1   8
ATOM      6  C   LIG    1       11.301   2.135   6.429  0.00  0.00    +0.240 C 
ATOM      7  C   LIG    1        9.979   2.201   5.660  0.00  0.00    +0.200 C 
ATOM      8  N   LIG    1        8.956   1.438   6.388  0.00  0.00    -0.450 N 
ATOM      9  C   LIG    1        8.776   1.972   7.746  0.00  0.00    +0.170 C 
ATOM     10  C   LIG    1       10.110   1.908   8.495  0.00  0.00    +0.250 C 
ATOM     11  O   LIG    1       11.100   2.629   7.756  0.00  0.00    -0.380 OA
ENDBRANCH   1   8
BRANCH   5  12
ATOM     12  C   LIG    1        6.417   0.043   7.325  0.00  0.00    +0.190 C 
ATOM     13  C   LIG    1        5.216  -0.902   7.396  0.00  0.00    +0.070 C 
ATOM     14  C   LIG    1        5.217   0.396   8.206  0.00  0.00    +0.050 C 
ENDBRANCH   5  12
BRANCH   4  15
ATOM     15  S   LIG    1        3.987   0.453   5.171  0.00  0.00    +0.020 S 
BRANCH  15  16
ATOM     16  C   LIG    1        3.294   1.103   3.626  0.00  0.00    +0.080 C 
BRANCH  16  17
ATOM     17  C   LIG    1        1.830   0.676   3.505  0.00  0.00    +0.210 C 
BRANCH  17  18
ATOM     18  N   LIG    1        1.268   1.202   2.253  0.00  0.00    -0.520 NA
ATOM     19  C   LIG    1       -0.190   1.018   2.212  0.00  0.00    +0.170 C 
ATOM     20  C   LIG    1       -0.731   1.624   0.907  0.00  0.00    +0.190 C 
ATOM     21  C   LIG    1        0.123   1.092  -0.268  0.00  0.00    +0.010 C 
ATOM     22  C   LIG    1        1.283   2.109  -0.371  0.00  0.00    +0.010 C 
ATOM     23  C   LIG    1        0.983   3.127   0.755  0.00  0.00    +0.190 C 
ATOM     24  O   LIG    1       -0.449   3.042   0.943  0.00  0.00    -0.370 OA
ATOM     25  C   LIG    1        1.632   2.614   2.065  0.00  0.00    +0.160 C 
ENDBRANCH  17  18
ENDBRANCH  16  17
ENDBRANCH  15  16
ENDBRANCH   4  15
TORSDOF 6
