REMARK  Name = ZINCqH0000032d4t.0
REMARK                            x       y       z     vdW  Elec       q    Type
REMARK                         _______ _______ _______ _____ _____    ______ ____
ROOT
ATOM      1  C   LIG    1       -5.509   1.588   2.166  0.00  0.00    +0.210 C 
ATOM      2  C   LIG    1       -5.985   0.924   3.458  0.00  0.00    +0.220 C 
ATOM      3  O   LIG    1       -5.792  -0.490   3.362  0.00  0.00    -0.380 OA
ATOM      4  C   LIG    1       -4.426  -0.885   3.216  0.00  0.00    +0.220 C 
ATOM      5  C   LIG    1       -3.872  -0.314   1.906  0.00  0.00    +0.240 C 
ATOM      6  N   LIG    1       -4.139   1.133   1.881  0.00  0.00    -0.630 N 
ATOM      7  C   LIG    1       -3.158   2.015   1.609  0.00  0.00    +0.700 C 
ATOM      8  N   LIG    1       -1.940   1.574   1.234  0.00  0.00    -0.740 N 
ATOM      9  H   LIG    1       -1.748   0.624   1.232  0.00  0.00    +0.390 HD
ATOM     10  O   LIG    1       -3.370   3.208   1.703  0.00  0.00    -0.560 OA
ENDROOT
BRANCH   8  11
ATOM     11  C   LIG    1       -0.907   2.532   0.831  0.00  0.00    +0.310 C 
ATOM     12  C   LIG    1       -1.078   2.873  -0.651  0.00  0.00    +0.040 C 
BRANCH  11  13
ATOM     13  C   LIG    1        0.454   1.924   1.053  0.00  0.00    -0.060 A 
ATOM     14  C   LIG    1        0.604   0.551   1.058  0.00  0.00    +0.030 A 
ATOM     15  C   LIG    1        1.857  -0.011   1.256  0.00  0.00    +0.070 A 
ATOM     16  C   LIG    1        2.961   0.811   1.447  0.00  0.00    +0.060 A 
ATOM     17  O   LIG    1        4.200   0.281   1.639  0.00  0.00    -0.300 OA
ATOM     18  C   LIG    1        4.258  -1.101   2.011  0.00  0.00    +0.230 C 
ATOM     19  C   LIG    1        3.311  -1.886   1.093  0.00  0.00    +0.230 C 
ATOM     20  C   LIG    1        2.804   2.189   1.441  0.00  0.00    +0.070 A 
ATOM     21  O   LIG    1        1.988  -1.366   1.263  0.00  0.00    -0.300 OA
ATOM     22  C   LIG    1        1.553   2.743   1.244  0.00  0.00    -0.080 A 
ATOM     23 BR   LIG    1        1.342   4.622   1.238  0.00  0.00    -0.020 Br
ENDBRANCH  11  13
ENDBRANCH   8  11
BRANCH   1  24
ATOM     24  C   LIG    1       -5.522   3.108   2.335  0.00  0.00    +0.040 C 
BRANCH  24  26
ATOM     25  C   LIG    1       -6.753   3.491   0.194  0.00  0.00    -0.010 C 
ATOM     26  C   LIG    1       -5.459   3.775   0.959  0.00  0.00    +0.010 C 
ATOM     27  C   LIG    1       -5.288   5.285   1.131  0.00  0.00    +0.010 C 
ENDBRANCH  24  26
ENDBRANCH   1  24
TORSDOF 4
