REMARK  Name = ZINCqH0000004pgi.0
REMARK                            x       y       z     vdW  Elec       q    Type
REMARK                         _______ _______ _______ _____ _____    ______ ____
ROOT
ATOM      1  N   LIG    1        1.144   1.901   0.032  0.00  0.00    -0.720 N 
ATOM      2  H   LIG    1        1.130   2.871   0.027  0.00  0.00    +0.400 HD
ATOM      3  C   LIG    1       -0.014   1.211   0.040  0.00  0.00    +0.560 C 
ATOM      4  O   LIG    1        0.002  -0.004   0.046  0.00  0.00    -0.520 OA
ENDROOT
BRANCH   3   5
ATOM      5  C   LIG    1       -1.305   1.933   0.034  0.00  0.00    -0.110 A 
ATOM      6  C   LIG    1       -1.327   3.329   0.032  0.00  0.00    +0.020 A 
ATOM      7  C   LIG    1       -2.532   4.000   0.022  0.00  0.00    +0.030 A 
ATOM      8  C   LIG    1       -3.721   3.295   0.024  0.00  0.00    +0.000 A 
ATOM      9  C   LIG    1       -3.710   1.905   0.030  0.00  0.00    +0.160 A 
ATOM     10  C   LIG    1       -2.505   1.222   0.036  0.00  0.00    +0.070 A 
BRANCH   9  11
ATOM     11  N   LIG    1       -4.917   1.196   0.032  0.00  0.00    -0.560 N 
ATOM     12  C   LIG    1       -6.242   1.816   0.154  0.00  0.00    +0.260 C 
ATOM     13  C   LIG    1       -7.243   0.741  -0.329  0.00  0.00    +0.060 C 
ATOM     14  C   LIG    1       -6.463  -0.564  -0.046  0.00  0.00    +0.070 C 
ATOM     15  C   LIG    1       -5.011  -0.141  -0.073  0.00  0.00    +0.510 C 
ATOM     16  O   LIG    1       -4.069  -0.898  -0.174  0.00  0.00    -0.500 OA
ENDBRANCH   9  11
ENDBRANCH   3   5
BRANCH   1  17
ATOM     17  C   LIG    1        2.422   1.186   0.032  0.00  0.00    +0.290 C 
BRANCH  17  18
ATOM     18  C   LIG    1        3.491   2.067   0.624  0.00  0.00    -0.130 A 
ATOM     19  C   LIG    1        3.521   3.416   0.319  0.00  0.00    +0.050 A 
ATOM     20  C   LIG    1        4.497   4.227   0.865  0.00  0.00    -0.070 A 
ATOM     21  C   LIG    1        5.453   3.686   1.712  0.00  0.00    +0.130 A 
ATOM     22  C   LIG    1        5.424   2.332   2.012  0.00  0.00    -0.020 A 
ATOM     23  C   LIG    1        4.443   1.526   1.468  0.00  0.00    +0.060 A 
BRANCH  21  24
ATOM     24  O   LIG    1        6.417   4.481   2.246  0.00  0.00    -0.320 OA
ATOM     25  C   LIG    1        6.386   5.866   1.893  0.00  0.00    +0.250 C 
ENDBRANCH  21  24
ENDBRANCH  17  18
BRANCH  17  27
ATOM     26  C   LIG    1        1.781  -0.175  -1.963  0.00  0.00    +0.020 C 
ATOM     27  C   LIG    1        2.801   0.819  -1.404  0.00  0.00    +0.000 C 
ENDBRANCH  17  27
ENDBRANCH   1  17
TORSDOF 6
