REMARK  Name = ZINC9l0000002rgv.0
REMARK                            x       y       z     vdW  Elec       q    Type
REMARK                         _______ _______ _______ _____ _____    ______ ____
ROOT
ATOM      1  C   LIG    1       -0.729   1.579   1.267  0.00  0.00    +0.010 C 
ATOM      2  C   LIG    1       -0.013   1.086   0.008  0.00  0.00    -0.090 C 
ENDROOT
BRANCH   2   3
ATOM      3  C   LIG    1        1.423   1.615  -0.003  0.00  0.00    +0.010 C 
ATOM      4  C   LIG    1        2.379   0.784  -0.874  0.00  0.00    -0.010 C 
ATOM      5  C   LIG    1        3.430   0.981   0.231  0.00  0.00    -0.010 C 
ATOM      6  C   LIG    1        2.256   1.161   1.207  0.00  0.00    -0.010 C 
ENDBRANCH   2   3
BRANCH   2   7
ATOM      7  C   LIG    1       -0.742   1.585  -1.213  0.00  0.00    +0.500 C 
ATOM      8  O   LIG    1       -0.570   2.728  -1.600  0.00  0.00    -0.700 OA
ATOM      9  O   LIG    1       -1.503   0.846  -1.813  0.00  0.00    -0.710 OA
ENDBRANCH   2   7
TORSDOF 2
