REMARK  Name = ZINCpe00000Re3w1.2
REMARK                            x       y       z     vdW  Elec       q    Type
REMARK                         _______ _______ _______ _____ _____    ______ ____
ROOT
ATOM      1  N   LIG    1        2.440   6.819   2.459  0.00  0.00    -0.710 N 
ATOM      2  H   LIG    1        2.207   7.426   1.740  0.00  0.00    +0.410 HD
ATOM      3  C   LIG    1        1.985   5.551   2.445  0.00  0.00    +0.490 C 
ATOM      4  O   LIG    1        2.276   4.792   3.344  0.00  0.00    -0.520 OA
ENDROOT
BRANCH   1   5
ATOM      5  C   LIG    1        3.288   7.281   3.561  0.00  0.00    +0.270 C 
BRANCH   5   6
ATOM      6  C   LIG    1        3.770   8.704   3.273  0.00  0.00    +0.170 C 
BRANCH   6   7
ATOM      7  N   LIG    1        4.486   8.728   1.991  0.00  0.00    -0.530 NA
ATOM      8  C   LIG    1        5.877   8.282   2.156  0.00  0.00    +0.190 C 
ATOM      9  C   LIG    1        6.564   8.245   0.789  0.00  0.00    +0.180 C 
ATOM     10  N   LIG    1        6.512   9.582   0.181  0.00  0.00    -0.540 NA
ATOM     11  C   LIG    1        5.121  10.028   0.016  0.00  0.00    +0.180 C 
ATOM     12  C   LIG    1        7.228   9.606  -1.101  0.00  0.00    +0.190 C 
ATOM     13  C   LIG    1        4.434  10.065   1.383  0.00  0.00    +0.180 C 
ENDBRANCH   6   7
BRANCH   6  15
ATOM     14  C   LIG    1        5.099  10.623   4.164  0.00  0.00    +0.030 C 
ATOM     15  C   LIG    1        4.709   9.161   4.391  0.00  0.00    -0.040 C 
ATOM     16  C   LIG    1        4.000   9.025   5.740  0.00  0.00    +0.030 C 
ENDBRANCH   6  15
ENDBRANCH   5   6
ENDBRANCH   1   5
BRANCH   3  17
ATOM     17  C   LIG    1        1.113   5.076   1.311  0.00  0.00    +0.380 C 
BRANCH  17  18
ATOM     18  N   LIG    1        0.753   3.673   1.526  0.00  0.00    -0.380 N 
ATOM     19  N   LIG    1        1.461   2.546   1.081  0.00  0.00    +0.000 NA
ATOM     20  N   LIG    1        0.847   1.480   1.456  0.00  0.00    -0.210 NA
ATOM     21  C   LIG    1       -0.266   1.798   2.147  0.00  0.00    -0.020 A 
ATOM     22  C   LIG    1       -1.263   1.029   2.761  0.00  0.00    +0.110 A 
ATOM     23  C   LIG    1       -2.300   1.644   3.400  0.00  0.00    +0.000 A 
ATOM     24  C   LIG    1       -2.375   3.029   3.462  0.00  0.00    +0.080 A 
ATOM     25  C   LIG    1       -1.407   3.808   2.866  0.00  0.00    +0.010 A 
ATOM     26  C   LIG    1       -0.346   3.200   2.204  0.00  0.00    +0.100 A 
ENDBRANCH  17  18
ENDBRANCH   3  17
TORSDOF 6
