REMARK  Name = ZINCrH000004pdom.0
REMARK                            x       y       z     vdW  Elec       q    Type
REMARK                         _______ _______ _______ _____ _____    ______ ____
ROOT
ATOM      1  C   LIG    1       -2.513  -0.328   0.453  0.00  0.00    +0.590 C 
ATOM      2  N   LIG    1       -2.623   0.926   0.933  0.00  0.00    -0.680 N 
ATOM      3  H   LIG    1       -3.500   1.310   1.090  0.00  0.00    +0.410 HD
ATOM      4  O   LIG    1       -1.418  -0.850   0.360  0.00  0.00    -0.510 OA
ENDROOT
BRANCH   2   5
ATOM      5  C   LIG    1       -1.472   1.675   1.206  0.00  0.00    +0.130 A 
ATOM      6  C   LIG    1       -1.470   2.588   2.254  0.00  0.00    +0.050 A 
ATOM      7  C   LIG    1       -0.336   3.326   2.532  0.00  0.00    +0.010 A 
ATOM      8  C   LIG    1        0.804   3.165   1.766  0.00  0.00    +0.150 A 
ATOM      9  C   LIG    1        0.809   2.253   0.706  0.00  0.00    -0.160 A 
ATOM     10  F   LIG    1        1.911   3.889   2.041  0.00  0.00    -0.110 F 
ATOM     11  C   LIG    1       -0.339   1.509   0.427  0.00  0.00    +0.090 A 
BRANCH   9  12
ATOM     12  C   LIG    1        2.024   2.077  -0.115  0.00  0.00    +0.560 C 
ATOM     13  O   LIG    1        3.023   2.726   0.130  0.00  0.00    -0.520 OA
ATOM     14  N   LIG    1        2.026   1.197  -1.136  0.00  0.00    -0.850 N 
ATOM     15  H   LIG    1        2.824   1.081  -1.675  0.00  0.00    +0.410 HD
ATOM     16  H   LIG    1        1.229   0.679  -1.332  0.00  0.00    +0.400 HD
ENDBRANCH   9  12
ENDBRANCH   2   5
BRANCH   1  21
ATOM     17  N   LIG    1       -4.928  -0.514  -0.300  0.00  0.00    -0.420 N 
ATOM     18  C   LIG    1       -5.783  -1.516  -0.620  0.00  0.00    +0.200 A 
ATOM     19  C   LIG    1       -5.139  -2.700  -0.489  0.00  0.00    -0.060 A 
ATOM     20  C   LIG    1       -3.829  -2.433  -0.077  0.00  0.00    +0.050 A 
ATOM     21  C   LIG    1       -3.713  -1.064   0.042  0.00  0.00    -0.070 A 
BRANCH  17  23
ATOM     22  C   LIG    1       -6.255   1.229   0.787  0.00  0.00    +0.060 C 
ATOM     23  C   LIG    1       -5.243   0.917  -0.317  0.00  0.00    +0.220 C 
BRANCH  23  24
ATOM     24  C   LIG    1       -5.839   1.292  -1.676  0.00  0.00    +0.080 C 
BRANCH  24  25
ATOM     25  C   LIG    1       -6.049   2.783  -1.738  0.00  0.00    -0.090 A 
ATOM     26  C   LIG    1       -7.251   3.329  -1.326  0.00  0.00    +0.010 A 
ATOM     27  C   LIG    1       -7.442   4.697  -1.378  0.00  0.00    +0.000 A 
ATOM     28  C   LIG    1       -6.436   5.518  -1.852  0.00  0.00    +0.000 A 
ATOM     29  C   LIG    1       -5.237   4.971  -2.269  0.00  0.00    +0.000 A 
ATOM     30  C   LIG    1       -5.043   3.604  -2.212  0.00  0.00    +0.010 A 
ENDBRANCH  24  25
ENDBRANCH  23  24
ENDBRANCH  17  23
ENDBRANCH   1  21
TORSDOF 6
