REMARK  Name = ZINCqH0000032qMs.0
REMARK                            x       y       z     vdW  Elec       q    Type
REMARK                         _______ _______ _______ _____ _____    ______ ____
ROOT
ATOM      1  C   LIG    1       -1.964   5.817  -0.348  0.00  0.00    +0.520 C 
ATOM      2  N   LIG    1       -2.889   6.795  -0.283  0.00  0.00    -0.670 N 
ATOM      3  H   LIG    1       -3.804   6.582  -0.043  0.00  0.00    +0.420 HD
ATOM      4  O   LIG    1       -0.842   6.067  -0.736  0.00  0.00    -0.510 OA
ENDROOT
BRANCH   2   5
ATOM      5  C   LIG    1       -2.528   8.118  -0.561  0.00  0.00    +0.150 A 
ATOM      6  C   LIG    1       -3.111   9.161   0.149  0.00  0.00    +0.000 A 
ATOM      7  C   LIG    1       -2.754  10.470  -0.118  0.00  0.00    +0.050 A 
ATOM      8  C   LIG    1       -1.826  10.750  -1.100  0.00  0.00    +0.020 A 
ATOM      9  C   LIG    1       -1.239   9.709  -1.823  0.00  0.00    +0.000 A 
ATOM     10  C   LIG    1       -1.595   8.389  -1.550  0.00  0.00    +0.040 A 
BRANCH   9  11
ATOM     11  C   LIG    1       -0.244  10.007  -2.875  0.00  0.00    -0.000 A 
ATOM     12  C   LIG    1        0.197  11.235  -3.248  0.00  0.00    +0.170 A 
ATOM     13  N   LIG    1        1.092  11.062  -4.231  0.00  0.00    -0.490 NA
ATOM     14  C   LIG    1        1.215   9.786  -4.471  0.00  0.00    +0.430 A 
ATOM     15  O   LIG    1        0.406   9.107  -3.646  0.00  0.00    -0.200 OA
ENDBRANCH   9  11
ENDBRANCH   2   5
BRANCH   1  16
ATOM     16  C   LIG    1       -2.323   4.411   0.061  0.00  0.00    +0.260 C 
BRANCH  16  17
ATOM     17  N   LIG    1       -1.329   3.478  -0.474  0.00  0.00    -0.710 N 
ATOM     18  H   LIG    1       -0.431   3.787  -0.673  0.00  0.00    +0.410 HD
ATOM     19  C   LIG    1       -1.661   2.190  -0.689  0.00  0.00    +0.600 C 
ATOM     20  O   LIG    1       -2.788   1.802  -0.440  0.00  0.00    -0.520 OA
BRANCH  19  21
ATOM     21  C   LIG    1       -0.666   1.255  -1.224  0.00  0.00    -0.280 A 
ATOM     22  C   LIG    1       -0.882  -0.069  -1.484  0.00  0.00    +0.110 A 
ATOM     23  C   LIG    1        0.225  -0.711  -1.988  0.00  0.00    +0.000 A 
ATOM     24  C   LIG    1        1.309   0.059  -2.136  0.00  0.00    -0.050 A 
ATOM     25  S   LIG    1        0.993   1.661  -1.641  0.00  0.00    +0.210 S 
ENDBRANCH  19  21
ENDBRANCH  16  17
BRANCH  16  27
ATOM     26  C   LIG    1       -2.805   2.916   2.004  0.00  0.00    +0.050 C 
ATOM     27  C   LIG    1       -2.345   4.314   1.588  0.00  0.00    -0.010 C 
ATOM     28  C   LIG    1       -0.939   4.572   2.135  0.00  0.00    +0.030 C 
ENDBRANCH  16  27
ENDBRANCH   1  16
TORSDOF 6
