REMARK  Name = ZINCvU0000000Fla.0
REMARK                            x       y       z     vdW  Elec       q    Type
REMARK                         _______ _______ _______ _____ _____    ______ ____
ROOT
ATOM      1  N   LIG    1        0.222   1.217   0.619  0.00  0.00    -0.660 N 
ATOM      2  H   LIG    1       -0.339   1.359   1.397  0.00  0.00    +0.410 HD
ATOM      3  C   LIG    1       -0.125   0.299  -0.305  0.00  0.00    +0.570 C 
ATOM      4  O   LIG    1        0.530   0.183  -1.322  0.00  0.00    -0.500 OA
ENDROOT
BRANCH   3   5
ATOM      5  C   LIG    1       -1.302  -0.566  -0.081  0.00  0.00    -0.070 A 
ATOM      6  C   LIG    1       -2.135  -0.381   1.012  0.00  0.00    +0.040 A 
ATOM      7  C   LIG    1       -3.247  -1.225   1.183  0.00  0.00    +0.240 A 
ATOM      8  N   LIG    1       -3.524  -2.202   0.341  0.00  0.00    -0.440 NA
ATOM      9  C   LIG    1       -2.773  -2.453  -0.733  0.00  0.00    +0.130 A 
ATOM     10  C   LIG    1       -3.094  -3.502  -1.613  0.00  0.00    +0.050 A 
ATOM     11  C   LIG    1       -2.309  -3.734  -2.701  0.00  0.00    +0.040 A 
ATOM     12  C   LIG    1       -1.188  -2.949  -2.960  0.00  0.00    +0.020 A 
ATOM     13  C   LIG    1       -0.847  -1.923  -2.128  0.00  0.00    +0.060 A 
ATOM     14  C   LIG    1       -1.631  -1.657  -1.001  0.00  0.00    -0.060 A 
BRANCH   7  15
ATOM     15  C   LIG    1       -4.129  -1.014   2.346  0.00  0.00    -0.000 A 
ATOM     16  C   LIG    1       -5.239  -1.742   2.650  0.00  0.00    +0.020 A 
ATOM     17  C   LIG    1       -5.766  -1.201   3.837  0.00  0.00    -0.060 A 
ATOM     18  C   LIG    1       -4.967  -0.174   4.192  0.00  0.00    +0.200 A 
ATOM     19  O   LIG    1       -3.980  -0.064   3.290  0.00  0.00    -0.170 OA
ENDBRANCH   7  15
ENDBRANCH   3   5
BRANCH   1  23
ATOM     20  C   LIG    1        3.698   3.457   0.126  0.00  0.00    -0.150 A 
ATOM     21  C   LIG    1        2.622   3.984   0.845  0.00  0.00    +0.100 A 
ATOM     22  C   LIG    1        1.474   3.241   1.005  0.00  0.00    -0.010 A 
ATOM     23  C   LIG    1        1.385   1.967   0.454  0.00  0.00    +0.170 A 
ATOM     24  C   LIG    1        2.457   1.437  -0.258  0.00  0.00    +0.020 A 
ATOM     25  C   LIG    1        3.606   2.177  -0.428  0.00  0.00    +0.070 A 
BRANCH  20  27
ATOM     26  N   LIG    1        6.122   3.630  -0.152  0.00  0.00    -0.610 N 
ATOM     27  C   LIG    1        4.931   4.251  -0.048  0.00  0.00    +0.560 C 
ATOM     28  O   LIG    1        4.870   5.464  -0.098  0.00  0.00    -0.530 OA
BRANCH  26  30
ATOM     29  C   LIG    1        7.867   4.602   1.260  0.00  0.00    +0.020 C 
ATOM     30  C   LIG    1        7.358   4.417  -0.171  0.00  0.00    +0.280 C 
ENDBRANCH  26  30
BRANCH  26  31
ATOM     31  C   LIG    1        6.182   2.170  -0.246  0.00  0.00    +0.260 C 
ATOM     32  C   LIG    1        6.361   1.759  -1.709  0.00  0.00    +0.020 C 
ENDBRANCH  26  31
ENDBRANCH  20  27
ENDBRANCH   1  23
TORSDOF 6
