REMARK  Name = ZINCqH00000096Eh.0
REMARK                            x       y       z     vdW  Elec       q    Type
REMARK                         _______ _______ _______ _____ _____    ______ ____
ROOT
ATOM      1  N   LIG    1        0.992   5.857   0.876  0.00  0.00    -0.690 N 
ATOM      2  H   LIG    1        1.771   5.309   1.063  0.00  0.00    +0.420 HD
ENDROOT
BRANCH   1   3
ATOM      3  C   LIG    1        0.878   7.121   1.445  0.00  0.00    +0.420 A 
ATOM      4  N   LIG    1       -0.179   7.855   1.187  0.00  0.00    -0.340 NA
ATOM      5  N   LIG    1       -0.313   9.126   1.748  0.00  0.00    -0.270 N 
ATOM      6  C   LIG    1        0.664   9.619   2.576  0.00  0.00    +0.110 A 
ATOM      7  C   LIG    1        1.797   8.831   2.853  0.00  0.00    +0.190 A 
ATOM      8  N   LIG    1        0.274  10.827   2.953  0.00  0.00    -0.250 NA
ATOM      9  N   LIG    1       -0.863  11.094   2.412  0.00  0.00    -0.260 NA
ATOM     10  C   LIG    1       -1.258  10.088   1.671  0.00  0.00    +0.240 A 
ATOM     11  C   LIG    1        1.896   7.595   2.296  0.00  0.00    -0.020 A 
BRANCH  10  12
ATOM     12  C   LIG    1       -2.536  10.017   0.876  0.00  0.00    +0.040 C 
ATOM     13  C   LIG    1       -3.370  11.294   0.763  0.00  0.00    +0.070 C 
ATOM     14  C   LIG    1       -3.854  10.140   1.644  0.00  0.00    +0.050 C 
ENDBRANCH  10  12
ENDBRANCH   1   3
BRANCH   1  16
ATOM     15  C   LIG    1        0.178   5.854  -1.430  0.00  0.00    +0.040 C 
ATOM     16  C   LIG    1       -0.064   5.352  -0.005  0.00  0.00    +0.290 C 
BRANCH  16  17
ATOM     17  C   LIG    1       -0.049   3.845   0.006  0.00  0.00    -0.090 A 
ATOM     18  C   LIG    1        1.155   3.166   0.007  0.00  0.00    +0.000 A 
ATOM     19  C   LIG    1        1.173   1.783   0.017  0.00  0.00    +0.030 A 
ATOM     20  C   LIG    1       -0.013   1.076   0.025  0.00  0.00    -0.030 A 
ATOM     21  C   LIG    1       -1.225   1.755   0.017  0.00  0.00    +0.090 A 
ATOM     22  C   LIG    1       -1.239   3.144   0.014  0.00  0.00    +0.050 A 
BRANCH  21  23
ATOM     23  N   LIG    1       -2.426   1.042   0.020  0.00  0.00    -0.490 N 
ATOM     24  C   LIG    1       -2.562   0.225  -1.213  0.00  0.00    +0.180 C 
ATOM     25  C   LIG    1       -3.611  -0.844  -0.815  0.00  0.00    +0.040 C 
ATOM     26  C   LIG    1       -3.251  -1.150   0.657  0.00  0.00    +0.020 C 
ATOM     27  C   LIG    1       -2.472   0.085   1.146  0.00  0.00    +0.170 C 
ENDBRANCH  21  23
ENDBRANCH  16  17
ENDBRANCH   1  16
TORSDOF 5
