REMARK  Name = ZINCqH0000007Yw7.0
REMARK                            x       y       z     vdW  Elec       q    Type
REMARK                         _______ _______ _______ _____ _____    ______ ____
ROOT
ATOM      1  C   LIG    1        1.413   1.996  -0.111  0.00  0.00    +0.370 A 
ATOM      2  C   LIG    1        2.603   1.328  -0.373  0.00  0.00    -0.040 A 
ATOM      3  C   LIG    1        2.619  -0.056  -0.351  0.00  0.00    +0.090 A 
ATOM      4  C   LIG    1        1.433  -0.727  -0.063  0.00  0.00    -0.000 A 
ATOM      5  C   LIG    1        0.284   0.006   0.189  0.00  0.00    +0.310 A 
ATOM      6  N   LIG    1        0.305   1.325   0.159  0.00  0.00    -0.460 NA
ENDROOT
BRANCH   1   8
ATOM      7  C   LIG    1        0.271   4.049   0.241  0.00  0.00    +0.570 C 
ATOM      8  N   LIG    1        1.387   3.391  -0.131  0.00  0.00    -0.660 N 
ATOM      9  H   LIG    1        2.171   3.887  -0.414  0.00  0.00    +0.420 HD
ATOM     10  O   LIG    1       -0.682   3.432   0.677  0.00  0.00    -0.460 OA
BRANCH   7  13
ATOM     11  C   LIG    1       -0.785   7.597   0.299  0.00  0.00    -0.800 A 
ATOM     12  C   LIG    1       -0.952   6.294   0.489  0.00  0.00    +0.230 A 
ATOM     13  C   LIG    1        0.206   5.514   0.119  0.00  0.00    -0.180 A 
ATOM     14  C   LIG    1        1.228   6.273  -0.360  0.00  0.00    -0.010 A 
ATOM     15  S   LIG    1        0.808   7.925  -0.361  0.00  0.00    +0.330 S 
BRANCH  11  17
ATOM     16  C   LIG    1       -1.669   9.305   2.371  0.00  0.00    -0.240 C 
ATOM     17  S   LIG    1       -1.998   8.826   0.652  0.00  0.00    +2.520 S 
ATOM     18  O   LIG    1       -3.236   8.135   0.555  0.00  0.00    -0.920 OA
ATOM     19  O   LIG    1       -1.683   9.893  -0.232  0.00  0.00    -0.930 OA
ENDBRANCH  11  17
ENDBRANCH   7  13
ENDBRANCH   1   8
BRANCH   4  20
ATOM     20  O   LIG    1        1.403  -2.086  -0.030  0.00  0.00    -0.240 OA
BRANCH  20  21
ATOM     21  C   LIG    1        1.915  -2.709   1.064  0.00  0.00    +0.110 A 
ATOM     22  C   LIG    1        2.460  -1.961   2.098  0.00  0.00    -0.040 A 
ATOM     23  C   LIG    1        2.975  -2.596   3.211  0.00  0.00    +0.030 A 
ATOM     24  C   LIG    1        2.959  -3.978   3.291  0.00  0.00    +0.070 A 
ATOM     25  C   LIG    1        2.421  -4.726   2.257  0.00  0.00    +0.040 A 
ATOM     26  F   LIG    1        3.469  -4.598   4.378  0.00  0.00    -0.140 F 
ATOM     27  C   LIG    1        1.900  -4.094   1.145  0.00  0.00    +0.040 A 
ENDBRANCH  20  21
ENDBRANCH   4  20
TORSDOF 5
