REMARK  Name = ZINCrg000000oldP.0
REMARK                            x       y       z     vdW  Elec       q    Type
REMARK                         _______ _______ _______ _____ _____    ______ ____
ROOT
ATOM      1  N   LIG    1       -0.724   1.573  -1.181  0.00  0.00    -0.480 N 
ATOM      2  C   LIG    1        0.144   1.305  -0.027  0.00  0.00    +0.190 C 
ATOM      3  C   LIG    1       -0.553   1.777   1.253  0.00  0.00    +0.290 C 
ATOM      4  N   LIG    1       -0.942   3.185   1.081  0.00  0.00    -0.610 N 
ATOM      5  C   LIG    1       -1.697   3.557  -0.125  0.00  0.00    +0.300 C 
ATOM      6  C   LIG    1       -0.613   4.111   2.004  0.00  0.00    +0.510 C 
ATOM      7  O   LIG    1       -0.941   5.268   1.845  0.00  0.00    -0.530 OA
ATOM      8  C   LIG    1       -0.955   3.014  -1.351  0.00  0.00    +0.190 C 
ENDROOT
BRANCH   1  14
ATOM      9  C   LIG    1       -0.116  -0.376  -2.480  0.00  0.00    +0.120 A 
ATOM     10  C   LIG    1        0.408  -0.929  -3.637  0.00  0.00    -0.060 A 
ATOM     11  C   LIG    1        0.850  -0.107  -4.658  0.00  0.00    +0.030 A 
ATOM     12  C   LIG    1        0.772   1.267  -4.527  0.00  0.00    +0.000 A 
ATOM     13  C   LIG    1        0.245   1.827  -3.378  0.00  0.00    +0.000 A 
ATOM     14  C   LIG    1       -0.196   1.009  -2.348  0.00  0.00    +0.070 A 
BRANCH   9  15
ATOM     15  O   LIG    1       -0.550  -1.183  -1.476  0.00  0.00    -0.300 OA
BRANCH  15  17
ATOM     16  C   LIG    1       -0.973  -3.332  -0.453  0.00  0.00    +0.070 C 
ATOM     17  C   LIG    1       -0.438  -2.593  -1.681  0.00  0.00    +0.170 C 
ENDBRANCH  15  17
ENDBRANCH   9  15
ENDBRANCH   1  14
BRANCH   6  18
ATOM     18  C   LIG    1        0.161   3.709   3.232  0.00  0.00    +0.360 C 
BRANCH  18  19
ATOM     19  N   LIG    1        0.391   4.887   4.072  0.00  0.00    -0.560 N 
ATOM     20  C   LIG    1       -0.440   5.296   5.038  0.00  0.00    +0.710 C 
ATOM     21  N   LIG    1        0.002   6.403   5.661  0.00  0.00    -0.720 N 
ATOM     22  H   LIG    1       -0.436   6.872   6.389  0.00  0.00    +0.440 HD
ATOM     23  C   LIG    1        1.280   6.764   5.024  0.00  0.00    +0.120 C 
ATOM     24  C   LIG    1        2.420   6.722   6.044  0.00  0.00    +0.090 C 
ATOM     25  C   LIG    1        1.188   8.148   4.378  0.00  0.00    +0.080 C 
ATOM     26  O   LIG    1       -1.478   4.729   5.320  0.00  0.00    -0.540 OA
ATOM     27  C   LIG    1        1.469   5.690   3.971  0.00  0.00    +0.540 C 
ATOM     28  O   LIG    1        2.396   5.578   3.198  0.00  0.00    -0.460 OA
ENDBRANCH  18  19
ENDBRANCH   6  18
TORSDOF 5
