REMARK  Name = ZINCpe00000VVH0h.0
REMARK                            x       y       z     vdW  Elec       q    Type
REMARK                         _______ _______ _______ _____ _____    ______ ____
ROOT
ATOM      1  N   LIG    1        0.607   0.932  -0.519  0.00  0.00    -0.490 N 
ATOM      2  C   LIG    1       -0.287   1.350  -1.597  0.00  0.00    +0.220 C 
ATOM      3  C   LIG    1       -1.285   2.348  -1.053  0.00  0.00    +0.040 C 
ATOM      4  C   LIG    1       -0.748   3.776  -1.252  0.00  0.00    +0.260 C 
ATOM      5  N   LIG    1        0.701   3.847  -0.979  0.00  0.00    -0.610 N 
ATOM      6  C   LIG    1        1.318   3.158   0.136  0.00  0.00    +0.310 C 
ATOM      7  C   LIG    1        1.479   4.579  -1.800  0.00  0.00    +0.520 C 
ATOM      8  O   LIG    1        2.657   4.724  -1.549  0.00  0.00    -0.520 OA
ATOM      9  C   LIG    1        1.749   1.738  -0.302  0.00  0.00    +0.200 C 
ENDROOT
BRANCH   1  14
ATOM     10  C   LIG    1        1.930  -4.446  -1.252  0.00  0.00    +0.140 C 
ATOM     11  C   LIG    1        1.598  -2.997  -1.007  0.00  0.00    +0.040 A 
ATOM     12  C   LIG    1        2.014  -2.379   0.164  0.00  0.00    +0.060 A 
ATOM     13  C   LIG    1        1.693  -1.043   0.346  0.00  0.00    +0.020 A 
ATOM     14  C   LIG    1        0.960  -0.406  -0.655  0.00  0.00    +0.250 A 
ATOM     15  N   LIG    1        0.607  -1.081  -1.740  0.00  0.00    -0.280 NA
ATOM     16  N   LIG    1        0.913  -2.316  -1.904  0.00  0.00    -0.220 NA
ENDBRANCH   1  14
BRANCH   7  17
ATOM     17  C   LIG    1        0.887   5.218  -3.029  0.00  0.00    +0.000 C 
ATOM     18  C   LIG    1        0.270   6.596  -2.694  0.00  0.00    +0.090 C 
ATOM     19  C   LIG    1        1.384   7.580  -2.980  0.00  0.00    +0.520 C 
ATOM     20  N   LIG    1        2.335   6.997  -3.729  0.00  0.00    -0.580 N 
ATOM     21  O   LIG    1        1.414   8.728  -2.590  0.00  0.00    -0.520 OA
ATOM     22  C   LIG    1        1.991   5.604  -4.039  0.00  0.00    +0.290 C 
BRANCH  20  23
ATOM     23  C   LIG    1        3.559   7.665  -4.179  0.00  0.00    +0.210 C 
ATOM     24  C   LIG    1        3.862   9.049  -3.600  0.00  0.00    +0.040 C 
ATOM     25  C   LIG    1        3.402   8.911  -5.054  0.00  0.00    +0.000 C 
ENDBRANCH  20  23
ENDBRANCH   7  17
TORSDOF 3
