REMARK  Name = ZINCvU0000000FR2.0
REMARK                            x       y       z     vdW  Elec       q    Type
REMARK                         _______ _______ _______ _____ _____    ______ ____
ROOT
ATOM      1  O   LIG    1        7.926   4.099  -0.052  0.00  0.00    -0.490 OA
ATOM      2  C   LIG    1        8.189   2.916  -0.062  0.00  0.00    +0.540 C 
ATOM      3  N   LIG    1        7.196   2.005  -0.057  0.00  0.00    -0.610 N 
ATOM      4  H   LIG    1        7.406   1.058  -0.065  0.00  0.00    +0.430 HD
ENDROOT
BRANCH   3   5
ATOM      5  C   LIG    1        5.870   2.422  -0.041  0.00  0.00    +0.270 A 
ATOM      6  N   LIG    1        4.838   1.637  -0.036  0.00  0.00    -0.490 NA
ATOM      7  C   LIG    1        3.644   2.214  -0.021  0.00  0.00    +0.130 A 
ATOM      8  C   LIG    1        3.654   3.559  -0.019  0.00  0.00    -0.110 A 
ATOM      9  S   LIG    1        5.331   4.098  -0.027  0.00  0.00    +0.210 S 
BRANCH   7  10
ATOM     10  C   LIG    1        2.386   1.430  -0.013  0.00  0.00    -0.020 A 
ATOM     11  C   LIG    1        2.439   0.048  -0.021  0.00  0.00    +0.070 A 
ATOM     12  C   LIG    1        1.244  -0.688  -0.013  0.00  0.00    -0.050 A 
ATOM     13  C   LIG    1        1.257  -2.094  -0.021  0.00  0.00    +0.030 A 
ATOM     14  C   LIG    1        0.080  -2.779  -0.014  0.00  0.00    +0.000 A 
ATOM     15  C   LIG    1       -1.140  -2.106   0.001  0.00  0.00    +0.010 A 
ATOM     16  C   LIG    1       -1.191  -0.746   0.009  0.00  0.00    +0.020 A 
ATOM     17  C   LIG    1        0.002  -0.004   0.002  0.00  0.00    -0.050 A 
ATOM     18  C   LIG    1       -0.017   1.403   0.010  0.00  0.00    +0.030 A 
ATOM     19  C   LIG    1        1.150   2.097   0.002  0.00  0.00    +0.030 A 
ENDBRANCH   7  10
ENDBRANCH   3   5
BRANCH   2  20
ATOM     20  C   LIG    1        9.626   2.463  -0.079  0.00  0.00    +0.130 C 
BRANCH  20  21
ATOM     21  S   LIG    1       10.714   3.910  -0.081  0.00  0.00    +0.100 S 
BRANCH  21  22
ATOM     22  C   LIG    1       12.285   3.111  -0.101  0.00  0.00    +0.140 A 
ATOM     23  N   LIG    1       12.503   1.817  -0.112  0.00  0.00    -0.290 NA
ATOM     24  N   LIG    1       13.767   1.585  -0.126  0.00  0.00    -0.280 NA
ATOM     25  C   LIG    1       14.428   2.708  -0.125  0.00  0.00    +0.400 A 
ATOM     26  N   LIG    1       13.508   3.723  -0.115  0.00  0.00    -0.420 N 
BRANCH  26  27
ATOM     27  C   LIG    1       13.767   5.101  -0.117  0.00  0.00    +0.100 A 
ATOM     28  C   LIG    1       13.129   5.928  -1.032  0.00  0.00    +0.030 A 
ATOM     29  C   LIG    1       13.382   7.286  -1.027  0.00  0.00    +0.040 A 
ATOM     30  C   LIG    1       14.277   7.821  -0.119  0.00  0.00    +0.030 A 
ATOM     31  C   LIG    1       14.918   6.999   0.790  0.00  0.00    +0.040 A 
ATOM     32  C   LIG    1       14.665   5.641   0.793  0.00  0.00    +0.020 A 
ENDBRANCH  26  27
ENDBRANCH  21  22
ENDBRANCH  20  21
ENDBRANCH   2  20
TORSDOF 6
