REMARK  Name = ZINCtV00000sldck.0
REMARK                            x       y       z     vdW  Elec       q    Type
REMARK                         _______ _______ _______ _____ _____    ______ ____
ROOT
ATOM      1  N   LIG    1        0.059  -4.171  -0.021  0.00  0.00    -0.670 N 
ATOM      2  H   LIG    1        0.832  -4.648   0.321  0.00  0.00    +0.410 HD
ATOM      3  C   LIG    1       -0.995  -4.857  -0.508  0.00  0.00    +0.590 C 
ATOM      4  O   LIG    1       -1.922  -4.262  -1.024  0.00  0.00    -0.500 OA
ENDROOT
BRANCH   3   5
ATOM      5  C   LIG    1       -1.023  -6.322  -0.416  0.00  0.00    +0.010 A 
ATOM      6  C   LIG    1       -2.025  -7.121  -0.869  0.00  0.00    +0.070 A 
ATOM      7  C   LIG    1       -1.668  -8.461  -0.591  0.00  0.00    -0.130 A 
ATOM      8  C   LIG    1       -2.300  -9.692  -0.823  0.00  0.00    +0.100 A 
ATOM      9  C   LIG    1       -1.698 -10.850  -0.433  0.00  0.00    -0.030 A 
ATOM     10  C   LIG    1       -0.453 -10.824   0.200  0.00  0.00    -0.050 A 
ATOM     11  C   LIG    1        0.188  -9.620   0.440  0.00  0.00    +0.010 A 
ATOM     12  C   LIG    1       -0.412  -8.429   0.048  0.00  0.00    +0.140 A 
ATOM     13  N   LIG    1       -0.031  -7.110   0.141  0.00  0.00    -0.580 N 
ATOM     14  H   LIG    1        0.795  -6.787   0.533  0.00  0.00    +0.420 HD
BRANCH  10  15
ATOM     15  S   LIG    1        0.307 -12.334   0.697  0.00  0.00    -0.110 S 
ATOM     16  C   LIG    1       -0.896 -13.588   0.175  0.00  0.00    +0.140 C 
ENDBRANCH  10  15
ENDBRANCH   3   5
BRANCH   1  20
ATOM     17  C   LIG    1       -0.005  -0.004   0.018  0.00  0.00    -0.060 A 
ATOM     18  C   LIG    1        1.196  -0.682  -0.186  0.00  0.00    +0.040 A 
ATOM     19  C   LIG    1        1.215  -2.061  -0.193  0.00  0.00    -0.010 A 
ATOM     20  C   LIG    1        0.037  -2.775  -0.008  0.00  0.00    +0.140 A 
ATOM     21  C   LIG    1       -1.162  -2.100   0.190  0.00  0.00    +0.030 A 
ATOM     22  C   LIG    1       -1.186  -0.722   0.203  0.00  0.00    +0.040 A 
BRANCH  17  26
ATOM     23  C   LIG    1       -0.070   4.247   0.057  0.00  0.00    -0.080 A 
ATOM     24  C   LIG    1        1.124   3.578  -0.140  0.00  0.00    +0.000 A 
ATOM     25  C   LIG    1        1.151   2.198  -0.153  0.00  0.00    +0.010 A 
ATOM     26  C   LIG    1       -0.028   1.479   0.032  0.00  0.00    -0.050 A 
ATOM     27  C   LIG    1       -1.229   2.158   0.225  0.00  0.00    +0.020 A 
ATOM     28  C   LIG    1       -1.244   3.538   0.242  0.00  0.00    +0.010 A 
BRANCH  23  29
ATOM     29  C   LIG    1       -0.093   5.754   0.071  0.00  0.00    +0.060 C 
BRANCH  29  31
ATOM     30  C   LIG    1       -0.354   7.803  -1.333  0.00  0.00    +0.010 C 
ATOM     31  C   LIG    1       -0.330   6.274  -1.348  0.00  0.00    +0.000 C 
ENDBRANCH  29  31
ENDBRANCH  23  29
ENDBRANCH  17  26
ENDBRANCH   1  20
TORSDOF 6
