REMARK  Name = ZINCkj000005hbqk.1
REMARK                            x       y       z     vdW  Elec       q    Type
REMARK                         _______ _______ _______ _____ _____    ______ ____
ROOT
ATOM      1  C   LIG    1       -1.169   1.616   0.016  0.00  0.00    +0.670 C 
ATOM      2  N   LIG    1       -0.011   0.966   0.007  0.00  0.00    -0.610 N 
ATOM      3  C   LIG    1        1.129   1.647   0.000  0.00  0.00    +0.680 C 
ATOM      4  N   LIG    1        1.107   2.978   0.007  0.00  0.00    -0.570 NA
ATOM      5  C   LIG    1       -0.047   3.622   0.022  0.00  0.00    +0.490 C 
ATOM      6  N   LIG    1        2.335   0.977  -0.015  0.00  0.00    -0.770 N 
ATOM      7  H   LIG    1        3.167   1.475  -0.020  0.00  0.00    +0.450 HD
ATOM      8  H   LIG    1        2.350   0.007  -0.020  0.00  0.00    +0.430 HD
ATOM      9  H   LIG    1        0.002  -0.004   0.002  0.00  0.00    +0.440 HD
ATOM     10  N   LIG    1       -1.183   2.947   0.030  0.00  0.00    -0.540 NA
ENDROOT
BRANCH   1  12
ATOM     11  C   LIG    1       -3.513   1.429   0.754  0.00  0.00    +0.370 C 
ATOM     12  N   LIG    1       -2.357   0.913   0.018  0.00  0.00    -0.570 NA
ATOM     13  C   LIG    1       -2.460  -0.351  -0.717  0.00  0.00    +0.340 C 
ENDBRANCH   1  12
BRANCH   5  14
ATOM     14  C   LIG    1       -0.068   5.129   0.030  0.00  0.00    +0.370 C 
BRANCH  14  15
ATOM     15  O   LIG    1       -1.421   5.587   0.046  0.00  0.00    -0.280 OA
BRANCH  15  16
ATOM     16  C   LIG    1       -1.618   6.932   0.055  0.00  0.00    +0.080 A 
ATOM     17  C   LIG    1       -0.531   7.792   0.055  0.00  0.00    +0.000 A 
ATOM     18  C   LIG    1       -0.732   9.160   0.059  0.00  0.00    +0.030 A 
ATOM     19  C   LIG    1       -2.017   9.672   0.075  0.00  0.00    +0.110 A 
ATOM     20  C   LIG    1       -3.105   8.815   0.080  0.00  0.00    +0.010 A 
ATOM     21  F   LIG    1       -2.211  11.009   0.084  0.00  0.00    -0.120 F 
ATOM     22  C   LIG    1       -2.908   7.446   0.070  0.00  0.00    +0.120 A 
ATOM     23  F   LIG    1       -3.969   6.610   0.076  0.00  0.00    -0.120 F 
ENDBRANCH  15  16
ENDBRANCH  14  15
ENDBRANCH   5  14
TORSDOF 4
