REMARK  Name = ZINCrD0000073ef0.0
REMARK                            x       y       z     vdW  Elec       q    Type
REMARK                         _______ _______ _______ _____ _____    ______ ____
ROOT
ATOM      1  O   LIG    1        0.184   7.396  -0.198  0.00  0.00    -0.330 OA
ENDROOT
BRANCH   1   2
ATOM      2  C   LIG    1        0.424   6.072  -0.275  0.00  0.00    +0.520 C 
ATOM      3  O   LIG    1        1.127   5.633  -1.163  0.00  0.00    -0.500 OA
BRANCH   2   6
ATOM      4  C   LIG    1       -0.475   2.930   1.573  0.00  0.00    +0.110 A 
ATOM      5  C   LIG    1        0.085   3.784   0.644  0.00  0.00    +0.030 A 
ATOM      6  C   LIG    1       -0.168   5.157   0.719  0.00  0.00    -0.080 A 
ATOM      7  C   LIG    1       -0.977   5.661   1.740  0.00  0.00    +0.090 A 
ATOM      8  C   LIG    1       -1.529   4.803   2.669  0.00  0.00    -0.040 A 
ATOM      9 CL   LIG    1       -2.534   5.431   3.937  0.00  0.00    -0.030 Cl
ATOM     10  C   LIG    1       -1.282   3.438   2.590  0.00  0.00    +0.110 A 
BRANCH   4  12
ATOM     11  C   LIG    1        0.600   1.142   0.432  0.00  0.00    +0.250 C 
ATOM     12  O   LIG    1       -0.236   1.593   1.500  0.00  0.00    -0.300 OA
ENDBRANCH   4  12
BRANCH  10  13
ATOM     13  O   LIG    1       -1.828   2.598   3.506  0.00  0.00    -0.320 OA
ATOM     14  C   LIG    1       -1.064   2.339   4.686  0.00  0.00    +0.230 C 
ENDBRANCH  10  13
ENDBRANCH   2   6
ENDBRANCH   1   2
BRANCH   1  15
ATOM     15  C   LIG    1        0.798   8.237  -1.210  0.00  0.00    +0.240 C 
BRANCH  15  16
ATOM     16  C   LIG    1        0.421   9.675  -0.965  0.00  0.00    +0.400 C 
ATOM     17  O   LIG    1       -0.296   9.963  -0.029  0.00  0.00    -0.430 OA
BRANCH  16  18
ATOM     18  C   LIG    1        0.920  10.728  -1.858  0.00  0.00    -0.190 A 
ATOM     19  C   LIG    1        1.753  10.399  -2.935  0.00  0.00    +0.090 A 
ATOM     20  C   LIG    1        2.212  11.384  -3.770  0.00  0.00    -0.020 A 
ATOM     21  C   LIG    1        1.862  12.712  -3.542  0.00  0.00    +0.190 A 
ATOM     22  C   LIG    1        1.039  13.045  -2.469  0.00  0.00    +0.000 A 
ATOM     23  C   LIG    1        0.571  12.066  -1.632  0.00  0.00    +0.110 A 
BRANCH  21  24
ATOM     24  N   LIG    1        2.336  13.711  -4.389  0.00  0.00    -0.680 N 
ATOM     25  H   LIG    1        2.467  13.526  -5.332  0.00  0.00    +0.420 HD
ATOM     26  C   LIG    1        2.613  14.936  -3.899  0.00  0.00    +0.510 C 
ATOM     27  O   LIG    1        2.542  15.141  -2.705  0.00  0.00    -0.520 OA
ATOM     28  C   LIG    1        3.012  16.049  -4.833  0.00  0.00    +0.110 C 
ENDBRANCH  21  24
ENDBRANCH  16  18
ENDBRANCH  15  16
ENDBRANCH   1  15
TORSDOF 8
