REMARK  Name = ZINCrH000004tF7i.0
REMARK                            x       y       z     vdW  Elec       q    Type
REMARK                         _______ _______ _______ _____ _____    ______ ____
ROOT
ATOM      1  C   LIG    1        2.857   3.523  -0.006  0.00  0.00    +0.510 A 
ATOM      2  N   LIG    1        3.386   2.326  -0.018  0.00  0.00    -0.470 NA
ATOM      3  C   LIG    1        2.400   1.392  -0.013  0.00  0.00    +0.060 A 
ATOM      4  C   LIG    1        2.402  -0.005  -0.020  0.00  0.00    +0.060 A 
ATOM      5  C   LIG    1        1.207  -0.690  -0.013  0.00  0.00    +0.010 A 
ATOM      6  C   LIG    1        0.002  -0.004   0.002  0.00  0.00    +0.020 A 
ATOM      7  C   LIG    1       -0.017   1.375   0.010  0.00  0.00    +0.010 A 
ATOM      8  C   LIG    1        1.177   2.082   0.002  0.00  0.00    +0.050 A 
ATOM      9  N   LIG    1        1.495   3.429   0.006  0.00  0.00    -0.500 N 
ENDROOT
BRANCH   9  10
ATOM     10  C   LIG    1        0.547   4.546   0.020  0.00  0.00    +0.250 C 
ATOM     11  C   LIG    1        0.756   5.408  -1.227  0.00  0.00    +0.010 C 
ATOM     12  C   LIG    1       -0.234   6.574  -1.212  0.00  0.00    +0.020 C 
ATOM     13  C   LIG    1       -0.004   7.423   0.039  0.00  0.00    +0.000 C 
ATOM     14  C   LIG    1       -0.212   6.561   1.286  0.00  0.00    +0.020 C 
ATOM     15  C   LIG    1        0.778   5.395   1.271  0.00  0.00    +0.010 C 
ENDBRANCH   9  10
BRANCH   1  18
ATOM     16  O   LIG    1        5.505   3.622  -0.031  0.00  0.00    -0.460 OA
ATOM     17  C   LIG    1        4.919   4.683  -0.019  0.00  0.00    +0.510 C 
ATOM     18  N   LIG    1        3.572   4.709  -0.006  0.00  0.00    -0.650 N 
ATOM     19  H   LIG    1        3.103   5.558   0.003  0.00  0.00    +0.420 HD
BRANCH  17  20
ATOM     20  C   LIG    1        5.697   5.974  -0.020  0.00  0.00    +0.070 C 
BRANCH  20  21
ATOM     21  C   LIG    1        7.196   5.665  -0.036  0.00  0.00    +0.040 C 
BRANCH  21  22
ATOM     22  C   LIG    1        7.986   6.976  -0.036  0.00  0.00    +0.260 C 
BRANCH  22  23
ATOM     23  N   LIG    1        9.421   6.681  -0.051  0.00  0.00    -0.730 N 
ATOM     24  H   LIG    1        9.727   5.760  -0.059  0.00  0.00    +0.400 HD
ATOM     25  C   LIG    1       10.316   7.688  -0.054  0.00  0.00    +0.540 C 
ATOM     26  O   LIG    1        9.934   8.839  -0.044  0.00  0.00    -0.540 OA
BRANCH  25  27
ATOM     27  C   LIG    1       11.792   7.384  -0.070  0.00  0.00    -0.070 C 
ATOM     28  C   LIG    1       12.596   7.720   1.188  0.00  0.00    +0.060 C 
ATOM     29  C   LIG    1       12.758   8.571  -0.073  0.00  0.00    +0.060 C 
ENDBRANCH  25  27
ENDBRANCH  22  23
ENDBRANCH  21  22
ENDBRANCH  20  21
ENDBRANCH  17  20
ENDBRANCH   1  18
TORSDOF 7
