REMARK  Name = ZINCrg000000soKh.0
REMARK                            x       y       z     vdW  Elec       q    Type
REMARK                         _______ _______ _______ _____ _____    ______ ____
ROOT
ATOM      1  C   LIG    1        4.125   0.280  -2.294  0.00  0.00    +0.140 C 
ATOM      2  C   LIG    1        4.536  -0.578  -1.125  0.00  0.00    +0.210 A 
ATOM      3  C   LIG    1        3.699  -0.686  -0.035  0.00  0.00    -0.170 A 
ATOM      4  C   LIG    1        4.080  -1.480   1.060  0.00  0.00    +0.190 A 
ATOM      5  C   LIG    1        5.297  -2.151   1.010  0.00  0.00    -0.260 A 
ATOM      6  C   LIG    1        6.118  -2.003  -0.138  0.00  0.00    +0.540 A 
ATOM      7  O   LIG    1        7.190  -2.580  -0.197  0.00  0.00    -0.530 OA
ATOM      8  N   LIG    1        5.716  -1.228  -1.162  0.00  0.00    -0.590 N 
ATOM      9  H   LIG    1        6.286  -1.135  -1.941  0.00  0.00    +0.420 HD
ENDROOT
BRANCH   5  10
ATOM     10  C   LIG    1        5.730  -2.998   2.133  0.00  0.00    +0.620 C 
ATOM     11  N   LIG    1        5.166  -4.208   2.321  0.00  0.00    -0.640 N 
ATOM     12  C   LIG    1        4.191  -5.044   1.605  0.00  0.00    +0.280 C 
ATOM     13  C   LIG    1        4.865  -6.273   2.238  0.00  0.00    +0.010 C 
ATOM     14  C   LIG    1        5.251  -5.270   3.334  0.00  0.00    +0.290 C 
ATOM     15  O   LIG    1        6.596  -2.606   2.891  0.00  0.00    -0.520 OA
BRANCH  13  16
ATOM     16  C   LIG    1        3.886  -7.356   2.696  0.00  0.00    +0.020 C 
ATOM     17  C   LIG    1        4.532  -8.252   3.773  0.00  0.00    +0.100 C 
ATOM     18  C   LIG    1        4.533  -9.625   3.138  0.00  0.00    +0.530 C 
ATOM     19  N   LIG    1        3.988  -9.546   1.917  0.00  0.00    -0.680 N 
ATOM     20  H   LIG    1        3.891 -10.316   1.335  0.00  0.00    +0.420 HD
ATOM     21  O   LIG    1        4.958 -10.636   3.653  0.00  0.00    -0.480 OA
ATOM     22  C   LIG    1        3.590  -8.317   1.566  0.00  0.00    +0.530 C 
ATOM     23  O   LIG    1        3.073  -8.022   0.510  0.00  0.00    -0.470 OA
ENDBRANCH  13  16
ENDBRANCH   5  10
BRANCH   3  24
ATOM     24  C   LIG    1        2.404   0.039  -0.015  0.00  0.00    -0.030 A 
ATOM     25  C   LIG    1        1.206  -0.672  -0.005  0.00  0.00    +0.020 A 
ATOM     26  C   LIG    1        0.004   0.007   0.013  0.00  0.00    +0.010 A 
ATOM     27  C   LIG    1       -0.012   1.390   0.020  0.00  0.00    +0.010 A 
ATOM     28  C   LIG    1        1.175   2.101   0.010  0.00  0.00    +0.010 A 
ATOM     29  C   LIG    1        2.382   1.432  -0.008  0.00  0.00    +0.010 A 
ENDBRANCH   3  24
TORSDOF 3
