REMARK  Name = ZINCvU0000000DeL.0
REMARK                            x       y       z     vdW  Elec       q    Type
REMARK                         _______ _______ _______ _____ _____    ______ ____
ROOT
ATOM      1  C   LIG    1       -2.789  -0.791   4.300  0.00  0.00    +0.200 A 
ATOM      2  N   LIG    1       -3.327   0.383   4.130  0.00  0.00    -0.250 NA
ATOM      3  N   LIG    1       -3.450   0.982   5.260  0.00  0.00    -0.290 NA
ATOM      4  C   LIG    1       -2.985   0.219   6.223  0.00  0.00    +0.150 A 
ATOM      5  N   LIG    1       -2.547  -0.938   5.640  0.00  0.00    -0.420 N 
ENDROOT
BRANCH   5   6
ATOM      6  C   LIG    1       -1.972  -2.046   6.281  0.00  0.00    +0.090 A 
ATOM      7  C   LIG    1       -2.632  -3.267   6.286  0.00  0.00    +0.070 A 
ATOM      8  C   LIG    1       -2.062  -4.357   6.914  0.00  0.00    +0.010 A 
ATOM      9  C   LIG    1       -0.837  -4.230   7.547  0.00  0.00    +0.120 A 
ATOM     10  C   LIG    1       -0.179  -3.011   7.547  0.00  0.00    +0.010 A 
ATOM     11  F   LIG    1       -0.283  -5.296   8.165  0.00  0.00    -0.130 F 
ATOM     12  C   LIG    1       -0.744  -1.920   6.916  0.00  0.00    +0.070 A 
ENDBRANCH   5   6
BRANCH   1  14
ATOM     13  C   LIG    1       -3.780  -2.468   2.765  0.00  0.00    +0.070 C 
ATOM     14  C   LIG    1       -2.482  -1.798   3.221  0.00  0.00    +0.230 C 
BRANCH  14  15
ATOM     15  N   LIG    1       -1.855  -1.118   2.080  0.00  0.00    -0.530 NA
ATOM     16  C   LIG    1       -0.654  -0.384   2.500  0.00  0.00    +0.180 C 
ATOM     17  C   LIG    1       -1.542  -2.070   1.006  0.00  0.00    +0.210 C 
ENDBRANCH  14  15
ENDBRANCH   1  14
BRANCH   4  18
ATOM     18  S   LIG    1       -2.933   0.612   7.939  0.00  0.00    +0.100 S 
BRANCH  18  19
ATOM     19  C   LIG    1       -3.672   2.264   7.905  0.00  0.00    +0.110 C 
BRANCH  19  20
ATOM     20  C   LIG    1       -3.732   2.816   9.306  0.00  0.00    +0.550 C 
ATOM     21  N   LIG    1       -4.248   4.042   9.526  0.00  0.00    -0.690 N 
ATOM     22  H   LIG    1       -4.525   4.593   8.777  0.00  0.00    +0.420 HD
ATOM     23  O   LIG    1       -3.317   2.158  10.236  0.00  0.00    -0.490 OA
BRANCH  21  24
ATOM     24  C   LIG    1       -4.384   4.520  10.835  0.00  0.00    +0.220 A 
ATOM     25  C   LIG    1       -5.564   4.303  11.536  0.00  0.00    -0.100 A 
ATOM     26  C   LIG    1       -5.694   4.771  12.829  0.00  0.00    +0.120 A 
ATOM     27  C   LIG    1       -4.654   5.465  13.422  0.00  0.00    -0.100 A 
ATOM     28  C   LIG    1       -3.481   5.688  12.725  0.00  0.00    +0.120 A 
ATOM     29  I   LIG    1       -4.859   6.180  15.381  0.00  0.00    -0.000 I 
ATOM     30  I   LIG    1       -7.142   3.259  10.635  0.00  0.00    +0.000 I 
ATOM     31  C   LIG    1       -3.343   5.217  11.434  0.00  0.00    -0.090 A 
ATOM     32  I   LIG    1       -1.564   5.554  10.379  0.00  0.00    +0.000 I 
ENDBRANCH  21  24
ENDBRANCH  19  20
ENDBRANCH  18  19
ENDBRANCH   4  18
TORSDOF 7
