REMARK  Name = ZINCpe000000Y5RL.0
REMARK                            x       y       z     vdW  Elec       q    Type
REMARK                         _______ _______ _______ _____ _____    ______ ____
ROOT
ATOM      1  C   LIG    1        1.591   8.825   0.031  0.00  0.00    +0.200 C 
ATOM      2  C   LIG    1        0.663   7.638   0.034  0.00  0.00    +0.290 A 
ATOM      3  C   LIG    1       -0.711   7.704   0.048  0.00  0.00    -0.330 A 
ATOM      4  C   LIG    1       -1.941   8.496   0.064  0.00  0.00    +0.300 A 
ATOM      5  N   LIG    1       -2.926   7.621   0.069  0.00  0.00    -0.240 NA
ATOM      6  N   LIG    1       -2.513   6.408   0.060  0.00  0.00    -0.290 NA
ATOM      7  C   LIG    1       -1.208   6.315   0.046  0.00  0.00    +0.250 A 
ATOM      8  N   LIG    1       -0.073   5.512   0.031  0.00  0.00    -0.310 N 
ATOM      9  N   LIG    1        1.048   6.352   0.030  0.00  0.00    -0.430 N 
ATOM     10  H   LIG    1        1.970   6.048   0.024  0.00  0.00    +0.450 HD
ENDROOT
BRANCH   8  11
ATOM     11  C   LIG    1       -0.054   4.114   0.024  0.00  0.00    +0.160 A 
ATOM     12  C   LIG    1        1.158   3.435   0.009  0.00  0.00    -0.010 A 
ATOM     13  C   LIG    1        1.174   2.054   0.002  0.00  0.00    +0.040 A 
ATOM     14  C   LIG    1       -0.016   1.347   0.009  0.00  0.00    +0.080 A 
ATOM     15  C   LIG    1       -1.225   2.022   0.019  0.00  0.00    +0.040 A 
ATOM     16  F   LIG    1        0.002  -0.004   0.002  0.00  0.00    -0.130 F 
ATOM     17  C   LIG    1       -1.247   3.402   0.032  0.00  0.00    +0.050 A 
ENDBRANCH   8  11
BRANCH   4  18
ATOM     18  N   LIG    1       -2.048   9.889   0.071  0.00  0.00    -0.630 N 
ATOM     19  H   LIG    1       -1.248  10.437   0.066  0.00  0.00    +0.420 HD
ATOM     20  C   LIG    1       -3.264  10.471   0.086  0.00  0.00    +0.490 C 
ATOM     21  O   LIG    1       -4.264   9.786   0.093  0.00  0.00    -0.440 OA
BRANCH  20  22
ATOM     22  C   LIG    1       -3.379  11.974   0.094  0.00  0.00    +0.390 C 
BRANCH  22  23
ATOM     23  N   LIG    1       -4.794  12.354   0.110  0.00  0.00    -0.310 N 
ATOM     24  C   LIG    1       -5.396  13.158   1.007  0.00  0.00    +0.400 A 
ATOM     25  N   LIG    1       -6.656  13.234   0.657  0.00  0.00    -0.300 NA
ATOM     26  N   LIG    1       -6.821  12.516  -0.400  0.00  0.00    -0.070 NA
ATOM     27  N   LIG    1       -5.696  11.987  -0.736  0.00  0.00    -0.060 NA
ENDBRANCH  22  23
ENDBRANCH  20  22
ENDBRANCH   4  18
TORSDOF 4
