REMARK  Name = ZINCpe00000MJLXB.0
REMARK                            x       y       z     vdW  Elec       q    Type
REMARK                         _______ _______ _______ _____ _____    ______ ____
ROOT
ATOM      1  C   LIG    1       -1.226   1.757   0.023  0.00  0.00    +0.160 A 
ATOM      2  C   LIG    1       -1.236   3.132   0.213  0.00  0.00    +0.030 A 
ATOM      3  C   LIG    1       -0.048   3.837   0.212  0.00  0.00    +0.030 A 
ATOM      4  C   LIG    1        1.151   3.174   0.026  0.00  0.00    +0.020 A 
ATOM      5  C   LIG    1        1.165   1.803  -0.158  0.00  0.00    -0.100 A 
ATOM      6  C   LIG    1       -0.019   1.093  -0.157  0.00  0.00    +0.010 A 
ENDROOT
BRANCH   1  11
ATOM      7  O   LIG    1       -3.498   2.707  -0.987  0.00  0.00    -0.570 OA
ATOM      8  C   LIG    1       -3.550   1.609  -0.466  0.00  0.00    +0.710 C 
ATOM      9  N   LIG    1       -4.728   0.962  -0.372  0.00  0.00    -0.700 N 
ATOM     10  H   LIG    1       -4.769   0.087   0.044  0.00  0.00    +0.410 HD
ATOM     11  N   LIG    1       -2.428   1.041   0.019  0.00  0.00    -0.680 N 
ATOM     12  H   LIG    1       -2.454   0.135   0.365  0.00  0.00    +0.410 HD
BRANCH   9  13
ATOM     13  C   LIG    1       -5.947   1.580  -0.899  0.00  0.00    +0.250 C 
ATOM     14  C   LIG    1       -6.898   0.695  -1.694  0.00  0.00    -0.080 C 
ATOM     15  C   LIG    1       -6.543  -0.768  -1.929  0.00  0.00    +0.250 C 
ATOM     16  O   LIG    1       -6.197  -1.398  -0.695  0.00  0.00    -0.380 OA
ATOM     17  C   LIG    1       -7.221  -1.287   0.301  0.00  0.00    +0.210 C 
ATOM     18  C   LIG    1       -7.199   0.137   0.863  0.00  0.00    +0.020 C 
ATOM     19  C   LIG    1       -7.286   1.141  -0.289  0.00  0.00    -0.040 C 
ENDBRANCH   9  13
ENDBRANCH   1  11
BRANCH   5  20
ATOM     20  C   LIG    1        2.474   1.084  -0.360  0.00  0.00    +0.380 C 
BRANCH  20  21
ATOM     21  N   LIG    1        2.788   1.033  -1.790  0.00  0.00    -0.570 N 
ATOM     22  C   LIG    1        3.495   1.976  -2.444  0.00  0.00    +0.520 C 
ATOM     23  C   LIG    1        3.568   1.508  -3.884  0.00  0.00    +0.310 C 
ATOM     24  N   LIG    1        2.824   0.236  -3.873  0.00  0.00    -0.730 N 
ATOM     25  H   LIG    1        2.665  -0.349  -4.630  0.00  0.00    +0.440 HD
ATOM     26  O   LIG    1        3.973   2.988  -1.978  0.00  0.00    -0.460 OA
ATOM     27  C   LIG    1        2.412   0.043  -2.607  0.00  0.00    +0.700 C 
ATOM     28  O   LIG    1        1.768  -0.923  -2.247  0.00  0.00    -0.540 OA
ENDBRANCH  20  21
ENDBRANCH   5  20
TORSDOF 4
