REMARK  Name = ZINCrH000004n8Xn.0
REMARK                            x       y       z     vdW  Elec       q    Type
REMARK                         _______ _______ _______ _____ _____    ______ ____
ROOT
ATOM      1  C   LIG    1       -1.670   6.263  -0.513  0.00  0.00    +0.500 C 
ATOM      2  N   LIG    1       -1.253   7.405  -1.096  0.00  0.00    -0.730 N 
ATOM      3  H   LIG    1       -1.644   7.691  -1.936  0.00  0.00    +0.400 HD
ATOM      4  O   LIG    1       -1.233   5.941   0.571  0.00  0.00    -0.510 OA
ENDROOT
BRANCH   1   5
ATOM      5  C   LIG    1       -2.679   5.387  -1.209  0.00  0.00    +0.060 C 
BRANCH   5  14
ATOM      6  C   LIG    1       -5.602   1.573  -2.485  0.00  0.00    +0.130 A 
ATOM      7  C   LIG    1       -4.472   2.129  -3.066  0.00  0.00    -0.080 A 
ATOM      8  C   LIG    1       -3.680   2.989  -2.334  0.00  0.00    +0.050 A 
ATOM      9  C   LIG    1       -4.004   3.304  -1.020  0.00  0.00    -0.110 A 
ATOM     10  C   LIG    1       -5.132   2.761  -0.445  0.00  0.00    -0.030 A 
ATOM     11  C   LIG    1       -5.547   3.067   0.970  0.00  0.00    +0.080 C 
ATOM     12  C   LIG    1       -4.380   3.659   1.758  0.00  0.00    +0.020 C 
ATOM     13  C   LIG    1       -3.790   4.819   0.949  0.00  0.00    +0.030 C 
ATOM     14  C   LIG    1       -3.089   4.243  -0.279  0.00  0.00    +0.060 C 
ATOM     15  C   LIG    1       -5.926   1.889  -1.177  0.00  0.00    -0.030 A 
BRANCH   6  17
ATOM     16  C   LIG    1       -5.990   0.445  -4.541  0.00  0.00    +0.250 C 
ATOM     17  O   LIG    1       -6.388   0.723  -3.197  0.00  0.00    -0.320 OA
ENDBRANCH   6  17
ENDBRANCH   5  14
ENDBRANCH   1   5
BRANCH   2  18
ATOM     18  C   LIG    1       -0.209   8.213  -0.461  0.00  0.00    +0.320 C 
BRANCH  18  19
ATOM     19  C   LIG    1       -0.421   9.665  -0.801  0.00  0.00    -0.090 A 
ATOM     20  C   LIG    1       -0.809  10.027  -2.078  0.00  0.00    +0.010 A 
ATOM     21  C   LIG    1       -1.008  11.359  -2.389  0.00  0.00    +0.010 A 
ATOM     22  C   LIG    1       -0.809  12.330  -1.426  0.00  0.00    +0.000 A 
ATOM     23  C   LIG    1       -0.416  11.969  -0.151  0.00  0.00    +0.020 A 
ATOM     24  C   LIG    1       -0.222  10.637   0.162  0.00  0.00    +0.010 A 
ENDBRANCH  18  19
BRANCH  18  25
ATOM     25  C   LIG    1        1.163   7.764  -0.970  0.00  0.00    -0.250 C 
BRANCH  25  26
ATOM     26  S   LIG    1        1.454   6.041  -0.484  0.00  0.00    +1.250 S 
ATOM     27  O   LIG    1        1.500   5.949   0.933  0.00  0.00    -0.820 OA
ATOM     28  C   LIG    1        3.100   5.698  -1.166  0.00  0.00    -0.220 C 
ENDBRANCH  25  26
ENDBRANCH  18  25
ENDBRANCH   2  18
TORSDOF 7
