REMARK  Name = ZINCqH0000036KEx.1
REMARK                            x       y       z     vdW  Elec       q    Type
REMARK                         _______ _______ _______ _____ _____    ______ ____
ROOT
ATOM      1  N   LIG    1       -2.264  -0.107  -0.870  0.00  0.00    -0.680 NA
ATOM      2  H   LIG    1       -2.703   0.670  -0.400  0.00  0.00    +0.340 HD
ENDROOT
BRANCH   1   4
ATOM      3  C   LIG    1       -1.848  -0.827   1.433  0.00  0.00    +0.010 C 
ATOM      4  C   LIG    1       -1.293  -0.774   0.008  0.00  0.00    +0.220 C 
BRANCH   4   5
ATOM      5  C   LIG    1        0.002  -0.004   0.002  0.00  0.00    -0.070 A 
ATOM      6  C   LIG    1       -0.017   1.378   0.010  0.00  0.00    +0.040 A 
ATOM      7  C   LIG    1        1.170   2.088   0.002  0.00  0.00    +0.020 A 
ATOM      8  C   LIG    1        2.382   1.415  -0.013  0.00  0.00    +0.050 A 
ATOM      9  O   LIG    1        3.541   2.127  -0.024  0.00  0.00    -0.310 OA
ATOM     10  C   LIG    1        4.733   1.422   0.342  0.00  0.00    +0.220 C 
ATOM     11  C   LIG    1        4.746   0.081  -0.405  0.00  0.00    +0.220 C 
ATOM     12  O   LIG    1        3.579  -0.656  -0.025  0.00  0.00    -0.310 OA
ATOM     13  C   LIG    1        2.401   0.025  -0.018  0.00  0.00    +0.050 A 
ATOM     14  C   LIG    1        1.207  -0.681  -0.012  0.00  0.00    +0.020 A 
ENDBRANCH   4   5
ENDBRANCH   1   4
BRANCH   1  15
ATOM     15  C   LIG    1       -3.268  -1.059  -1.364  0.00  0.00    +0.250 C 
BRANCH  15  16
ATOM     16  C   LIG    1       -4.243  -0.341  -2.260  0.00  0.00    -0.200 A 
ATOM     17  C   LIG    1       -5.395   0.231  -1.739  0.00  0.00    +0.330 A 
ATOM     18  N   LIG    1       -6.227   0.859  -2.552  0.00  0.00    -0.510 NA
ATOM     19  C   LIG    1       -5.977   0.936  -3.852  0.00  0.00    +0.360 A 
ATOM     20  N   LIG    1       -4.888   0.396  -4.382  0.00  0.00    -0.510 NA
ATOM     21  C   LIG    1       -4.012  -0.241  -3.624  0.00  0.00    +0.350 A 
BRANCH  19  22
ATOM     22  C   LIG    1       -6.937   1.643  -4.733  0.00  0.00    -0.050 A 
ATOM     23  C   LIG    1       -6.689   1.741  -6.101  0.00  0.00    +0.070 A 
ATOM     24  C   LIG    1       -7.589   2.395  -6.918  0.00  0.00    +0.000 A 
ATOM     25  C   LIG    1       -8.729   2.964  -6.379  0.00  0.00    +0.030 A 
ATOM     26  C   LIG    1       -8.977   2.876  -5.021  0.00  0.00    +0.000 A 
ATOM     27  C   LIG    1       -8.087   2.218  -4.196  0.00  0.00    +0.070 A 
ENDBRANCH  19  22
ENDBRANCH  15  16
ENDBRANCH   1  15
TORSDOF 5
