REMARK  Name = ZINCnE000001IhCx.0
REMARK                            x       y       z     vdW  Elec       q    Type
REMARK                         _______ _______ _______ _____ _____    ______ ____
ROOT
ATOM      1  C   LIG    1       -4.124   1.646   0.032  0.00  0.00    +0.070 C 
ENDROOT
BRANCH   1   2
ATOM      2  C   LIG    1       -5.192   0.551   0.032  0.00  0.00    +0.060 C 
BRANCH   2   4
ATOM      3  N   LIG    1       -7.662   0.407   0.044  0.00  0.00    -0.680 NA
ATOM      4  C   LIG    1       -6.560   1.184   0.042  0.00  0.00    +0.460 C 
ATOM      5  O   LIG    1       -6.670   2.392   0.049  0.00  0.00    -0.580 OA
BRANCH   3   9
ATOM      6  C   LIG    1      -11.267   1.692   0.069  0.00  0.00    -0.080 A 
ATOM      7  N   LIG    1      -10.376   2.632   0.069  0.00  0.00    -0.230 NA
ATOM      8  N   LIG    1       -9.168   2.267   0.061  0.00  0.00    -0.370 NA
ATOM      9  C   LIG    1       -8.924   0.991   0.054  0.00  0.00    +0.300 A 
ATOM     10  S   LIG    1      -10.415   0.147   0.050  0.00  0.00    -0.010 S 
BRANCH   6  12
ATOM     11  C   LIG    1      -13.274   1.954  -1.363  0.00  0.00    +0.030 C 
ATOM     12  C   LIG    1      -12.761   1.882   0.077  0.00  0.00    +0.130 C 
ENDBRANCH   6  12
ENDBRANCH   3   9
ENDBRANCH   2   4
ENDBRANCH   1   2
BRANCH   1  13
ATOM     13  C   LIG    1       -2.735   1.004   0.022  0.00  0.00    +0.110 C 
BRANCH  13  14
ATOM     14  S   LIG    1       -1.471   2.299   0.022  0.00  0.00    -0.010 S 
BRANCH  14  15
ATOM     15  C   LIG    1       -0.016   1.306   0.009  0.00  0.00    +0.270 A 
ATOM     16  N   LIG    1        0.002  -0.004   0.002  0.00  0.00    -0.490 NA
ATOM     17  C   LIG    1        1.288  -0.443  -0.013  0.00  0.00    +0.060 A 
ATOM     18  C   LIG    1        1.868  -1.714  -0.026  0.00  0.00    +0.060 A 
ATOM     19  C   LIG    1        3.239  -1.839  -0.040  0.00  0.00    +0.000 A 
ATOM     20  C   LIG    1        4.049  -0.714  -0.042  0.00  0.00    +0.020 A 
ATOM     21  C   LIG    1        3.492   0.549  -0.029  0.00  0.00    +0.010 A 
ATOM     22  C   LIG    1        2.113   0.694  -0.014  0.00  0.00    +0.050 A 
ATOM     23  N   LIG    1        1.263   1.788  -0.000  0.00  0.00    -0.590 N 
ATOM     24  H   LIG    1        1.526   2.721   0.002  0.00  0.00    +0.430 HD
ENDBRANCH  14  15
ENDBRANCH  13  14
ENDBRANCH   1  13
TORSDOF 7
