REMARK  Name = ZINCrH000004mUba.0
REMARK                            x       y       z     vdW  Elec       q    Type
REMARK                         _______ _______ _______ _____ _____    ______ ____
ROOT
ATOM      1  N   LIG    1        1.144   1.901   0.015  0.00  0.00    -0.730 N 
ATOM      2  H   LIG    1        1.131   2.870   0.025  0.00  0.00    +0.400 HD
ATOM      3  C   LIG    1       -0.015   1.211   0.013  0.00  0.00    +0.700 C 
ATOM      4  N   LIG    1       -1.191   1.870   0.018  0.00  0.00    -0.680 N 
ATOM      5  H   LIG    1       -1.205   2.837   0.093  0.00  0.00    +0.410 HD
ATOM      6  O   LIG    1        0.002  -0.004   0.002  0.00  0.00    -0.570 OA
ENDROOT
BRANCH   4   7
ATOM      7  C   LIG    1       -2.389   1.160  -0.086  0.00  0.00    +0.170 A 
ATOM      8  C   LIG    1       -2.511  -0.085   0.493  0.00  0.00    +0.020 A 
ATOM      9  C   LIG    1       -3.701  -0.801   0.396  0.00  0.00    +0.040 A 
ATOM     10  C   LIG    1       -4.774  -0.294  -0.272  0.00  0.00    +0.000 A 
ATOM     11  C   LIG    1       -4.690   0.972  -0.877  0.00  0.00    -0.040 A 
ATOM     12  C   LIG    1       -5.781   1.520  -1.573  0.00  0.00    +0.030 A 
ATOM     13  C   LIG    1       -5.665   2.748  -2.148  0.00  0.00    +0.000 A 
ATOM     14  C   LIG    1       -4.479   3.474  -2.057  0.00  0.00    +0.000 A 
ATOM     15  C   LIG    1       -3.402   2.974  -1.390  0.00  0.00    +0.010 A 
ATOM     16  C   LIG    1       -3.486   1.713  -0.779  0.00  0.00    -0.060 A 
ENDBRANCH   4   7
BRANCH   1  17
ATOM     17  C   LIG    1        2.422   1.185   0.004  0.00  0.00    +0.260 C 
BRANCH  17  18
ATOM     18  C   LIG    1        3.571   2.195   0.010  0.00  0.00    +0.270 C 
BRANCH  18  23
ATOM     19  C   LIG    1        6.814   0.459   0.877  0.00  0.00    +0.100 A 
ATOM     20  C   LIG    1        7.293   0.121  -0.379  0.00  0.00    -0.030 A 
ATOM     21  C   LIG    1        6.568   0.454  -1.507  0.00  0.00    -0.030 A 
ATOM     22  C   LIG    1        5.362   1.126  -1.383  0.00  0.00    +0.110 A 
ATOM     23  C   LIG    1        4.883   1.464  -0.126  0.00  0.00    -0.110 A 
ATOM     24  C   LIG    1        5.610   1.136   1.002  0.00  0.00    +0.040 A 
BRANCH  19  26
ATOM     25  C   LIG    1        8.762  -0.560   1.785  0.00  0.00    +0.250 C 
ATOM     26  O   LIG    1        7.528   0.131   1.988  0.00  0.00    -0.320 OA
ENDBRANCH  19  26
BRANCH  22  27
ATOM     27  O   LIG    1        4.648   1.453  -2.493  0.00  0.00    -0.310 OA
ATOM     28  C   LIG    1        5.201   1.074  -3.755  0.00  0.00    +0.250 C 
ENDBRANCH  22  27
ENDBRANCH  18  23
BRANCH  18  29
ATOM     29  O   LIG    1        3.558   2.925   1.238  0.00  0.00    -0.550 OA
ATOM     30  H   LIG    1        3.659   2.373   2.025  0.00  0.00    +0.380 HD
ENDBRANCH  18  29
ENDBRANCH  17  18
ENDBRANCH   1  17
TORSDOF 7
