REMARK  Name = ZINCrD00000l8RJx.0
REMARK                            x       y       z     vdW  Elec       q    Type
REMARK                         _______ _______ _______ _____ _____    ______ ____
ROOT
ATOM      1  N   LIG    1        0.030   1.532  -0.317  0.00  0.00    -0.600 N 
ATOM      2  C   LIG    1       -1.117   2.180  -0.030  0.00  0.00    +0.550 C 
ATOM      3  O   LIG    1       -2.188   1.627  -0.204  0.00  0.00    -0.540 OA
ENDROOT
BRANCH   1   4
ATOM      4  C   LIG    1       -0.013   0.164  -0.839  0.00  0.00    +0.270 C 
ATOM      5  C   LIG    1       -0.813   0.136  -2.153  0.00  0.00    +0.070 C 
ATOM      6  C   LIG    1       -1.100  -1.355  -2.466  0.00  0.00    -0.310 C 
ATOM      7  S   LIG    1       -1.560  -2.026  -0.824  0.00  0.00    +2.400 S 
ATOM      8  O   LIG    1       -0.927  -3.285  -0.635  0.00  0.00    -0.940 OA
ATOM      9  O   LIG    1       -2.964  -1.906  -0.642  0.00  0.00    -0.920 OA
ATOM     10  C   LIG    1       -0.710  -0.758   0.181  0.00  0.00    -0.320 C 
ENDBRANCH   1   4
BRANCH   2  11
ATOM     11  C   LIG    1       -1.076   3.502   0.474  0.00  0.00    -0.110 C 
ATOM     12  C   LIG    1       -2.231   4.154   0.764  0.00  0.00    +0.140 C 
BRANCH  12  13
ATOM     13  C   LIG    1       -2.190   5.472   1.266  0.00  0.00    -0.170 C 
ATOM     14  C   LIG    1       -3.345   6.128   1.558  0.00  0.00    +0.120 C 
ATOM     15  C   LIG    1       -3.243   7.506   2.060  0.00  0.00    -0.130 A 
ATOM     16  C   LIG    1       -4.318   8.133   2.689  0.00  0.00    +0.090 A 
ATOM     17  C   LIG    1       -4.177   9.428   3.146  0.00  0.00    -0.070 A 
ATOM     18  C   LIG    1       -2.977  10.102   2.982  0.00  0.00    +0.080 A 
ATOM     19  C   LIG    1       -1.905   9.489   2.359  0.00  0.00    +0.020 A 
ATOM     20 CL   LIG    1       -5.510  10.217   3.931  0.00  0.00    -0.060 Cl
ATOM     21  C   LIG    1       -2.027   8.193   1.894  0.00  0.00    +0.140 A 
ATOM     22  O   LIG    1       -0.994   7.566   1.278  0.00  0.00    -0.300 OA
ATOM     23  C   LIG    1       -0.866   6.156   1.489  0.00  0.00    +0.300 C 
ENDBRANCH  12  13
ENDBRANCH   2  11
BRANCH   1  24
ATOM     24  C   LIG    1        1.318   2.199  -0.114  0.00  0.00    +0.280 C 
BRANCH  24  26
ATOM     25  C   LIG    1        3.291   2.390   1.408  0.00  0.00    +0.030 C 
ATOM     26  C   LIG    1        1.885   1.806   1.252  0.00  0.00    -0.040 C 
ATOM     27  C   LIG    1        0.980   2.355   2.357  0.00  0.00    +0.030 C 
ENDBRANCH  24  26
ENDBRANCH   1  24
TORSDOF 5
