REMARK  Name = ZINCrH000004v9PT.0
REMARK                            x       y       z     vdW  Elec       q    Type
REMARK                         _______ _______ _______ _____ _____    ______ ____
ROOT
ATOM      1  O   LIG    1        0.300   3.577   1.109  0.00  0.00    -0.560 OA
ATOM      2  C   LIG    1       -0.466   2.825   1.681  0.00  0.00    +0.710 C 
ATOM      3  N   LIG    1       -0.797   1.646   1.119  0.00  0.00    -0.610 N 
ATOM      4  N   LIG    1       -0.984   3.172   2.876  0.00  0.00    -0.680 N 
ATOM      5  H   LIG    1       -1.653   2.610   3.296  0.00  0.00    +0.410 HD
ENDROOT
BRANCH   4   6
ATOM      6  C   LIG    1       -0.555   4.346   3.511  0.00  0.00    +0.180 A 
ATOM      7  C   LIG    1        0.757   4.772   3.368  0.00  0.00    +0.040 A 
ATOM      8  C   LIG    1        1.180   5.933   3.990  0.00  0.00    +0.060 A 
ATOM      9  C   LIG    1        0.298   6.666   4.766  0.00  0.00    +0.020 A 
ATOM     10  O   LIG    1        0.463   7.822   5.476  0.00  0.00    -0.310 OA
ATOM     11  C   LIG    1       -0.648   7.873   6.389  0.00  0.00    +0.430 C 
ATOM     12  O   LIG    1       -1.678   7.123   5.719  0.00  0.00    -0.310 OA
ATOM     13  C   LIG    1       -1.019   6.237   4.915  0.00  0.00    +0.050 A 
ATOM     14  C   LIG    1       -1.443   5.078   4.288  0.00  0.00    +0.010 A 
ENDBRANCH   4   6
BRANCH   3  15
ATOM     15  C   LIG    1       -1.720   0.740   1.808  0.00  0.00    +0.290 C 
BRANCH  15  16
ATOM     16  C   LIG    1       -0.927  -0.204   2.714  0.00  0.00    +0.130 C 
ATOM     17  C   LIG    1       -1.879  -1.218   3.398  0.00  0.00    +0.020 C 
ATOM     18  C   LIG    1       -0.902  -2.389   3.690  0.00  0.00    +0.000 C 
ATOM     19  C   LIG    1        0.056  -2.325   2.481  0.00  0.00    +0.190 C 
ATOM     20  O   LIG    1       -0.026  -1.005   1.932  0.00  0.00    -0.370 OA
ENDBRANCH  15  16
ENDBRANCH   3  15
BRANCH   3  21
ATOM     21  C   LIG    1       -0.234   1.269  -0.179  0.00  0.00    +0.380 C 
BRANCH  21  22
ATOM     22  C   LIG    1       -1.138   1.760  -1.281  0.00  0.00    -0.080 A 
ATOM     23  C   LIG    1       -0.947   3.017  -1.823  0.00  0.00    +0.040 A 
ATOM     24  C   LIG    1       -1.776   3.468  -2.833  0.00  0.00    +0.040 A 
ATOM     25  C   LIG    1       -2.796   2.663  -3.303  0.00  0.00    -0.020 A 
ATOM     26  C   LIG    1       -2.988   1.403  -2.760  0.00  0.00    +0.090 A 
ATOM     27  F   LIG    1       -3.985   0.615  -3.219  0.00  0.00    -0.140 F 
ATOM     28  C   LIG    1       -2.155   0.950  -1.752  0.00  0.00    -0.010 A 
ENDBRANCH  21  22
ENDBRANCH   3  21
TORSDOF 5
