REMARK  Name = ZINCvU00000004yx.0
REMARK                            x       y       z     vdW  Elec       q    Type
REMARK                         _______ _______ _______ _____ _____    ______ ____
ROOT
ATOM      1  C   LIG    1       -2.202   3.764  -1.522  0.00  0.00    +0.530 C 
ATOM      2  O   LIG    1       -3.284   3.294  -1.230  0.00  0.00    -0.480 OA
ENDROOT
BRANCH   1   3
ATOM      3  C   LIG    1       -2.115   4.857  -2.512  0.00  0.00    -0.060 A 
ATOM      4  C   LIG    1       -1.954   4.582  -3.869  0.00  0.00    -0.070 A 
ATOM      5  C   LIG    1       -1.873   3.137  -4.284  0.00  0.00    +0.080 C 
ATOM      6  C   LIG    1       -2.137   2.991  -5.781  0.00  0.00    +0.030 C 
ATOM      7  C   LIG    1       -1.230   3.975  -6.529  0.00  0.00    +0.030 C 
ATOM      8  C   LIG    1       -1.728   5.393  -6.261  0.00  0.00    +0.110 C 
ATOM      9  C   LIG    1       -1.883   5.630  -4.779  0.00  0.00    +0.170 A 
ATOM     10  N   LIG    1       -1.950   6.884  -4.375  0.00  0.00    -0.460 NA
ATOM     11  C   LIG    1       -2.095   7.222  -3.095  0.00  0.00    +0.140 A 
ATOM     12  C   LIG    1       -2.165   8.571  -2.701  0.00  0.00    +0.060 A 
ATOM     13  C   LIG    1       -2.317   8.882  -1.385  0.00  0.00    +0.040 A 
ATOM     14  C   LIG    1       -2.406   7.886  -0.415  0.00  0.00    +0.030 A 
ATOM     15  C   LIG    1       -2.343   6.569  -0.761  0.00  0.00    +0.010 A 
ATOM     16  C   LIG    1       -2.186   6.212  -2.106  0.00  0.00    -0.070 A 
ENDBRANCH   1   3
BRANCH   1  17
ATOM     17  O   LIG    1       -1.083   3.288  -0.943  0.00  0.00    -0.320 OA
BRANCH  17  19
ATOM     18  C   LIG    1       -1.437   2.805   1.418  0.00  0.00    +0.100 C 
ATOM     19  C   LIG    1       -1.244   2.213   0.020  0.00  0.00    +0.310 C 
BRANCH  19  20
ATOM     20  C   LIG    1       -0.016   1.340   0.009  0.00  0.00    +0.150 A 
ATOM     21  N   LIG    1        1.221   1.752  -0.000  0.00  0.00    -0.240 NA
ATOM     22  N   LIG    1        2.012   0.737  -0.013  0.00  0.00    -0.270 NA
ATOM     23  C   LIG    1        1.301  -0.366  -0.012  0.00  0.00    +0.220 A 
ATOM     24  O   LIG    1        0.002  -0.004   0.002  0.00  0.00    -0.210 OA
BRANCH  23  25
ATOM     25  C   LIG    1        1.826  -1.748  -0.024  0.00  0.00    -0.040 A 
ATOM     26  C   LIG    1        0.946  -2.831  -0.015  0.00  0.00    +0.090 A 
ATOM     27  C   LIG    1        1.441  -4.118  -0.032  0.00  0.00    +0.000 A 
ATOM     28  C   LIG    1        2.809  -4.337  -0.045  0.00  0.00    +0.130 A 
ATOM     29  C   LIG    1        3.688  -3.264  -0.049  0.00  0.00    +0.000 A 
ATOM     30  F   LIG    1        3.289  -5.600  -0.055  0.00  0.00    -0.130 F 
ATOM     31  C   LIG    1        3.203  -1.973  -0.039  0.00  0.00    +0.120 A 
ENDBRANCH  23  25
ENDBRANCH  19  20
ENDBRANCH  17  19
ENDBRANCH   1  17
TORSDOF 5
