REMARK  Name = ZINCb80000002rsi.1
REMARK                            x       y       z     vdW  Elec       q    Type
REMARK                         _______ _______ _______ _____ _____    ______ ____
ROOT
ATOM      1  C   LIG    1       -0.018   1.503   0.010  0.00  0.00    +0.160 A 
ATOM      2  N   LIG    1        1.022   2.291   0.005  0.00  0.00    -0.280 NA
ATOM      3  N   LIG    1        0.636   3.517   0.013  0.00  0.00    -0.280 NA
ATOM      4  C   LIG    1       -0.670   3.566   0.024  0.00  0.00    +0.150 A 
ATOM      5  C   LIG    1       -1.839   4.527   0.034  0.00  0.00    +0.160 C 
ATOM      6  C   LIG    1       -3.047   3.660  -0.399  0.00  0.00    +0.070 C 
ATOM      7  C   LIG    1       -2.588   2.249   0.029  0.00  0.00    +0.300 C 
ATOM      8  N   LIG    1       -1.121   2.292   0.019  0.00  0.00    -0.490 N 
ENDROOT
BRANCH   1  10
ATOM      9  C   LIG    1        0.395  -0.516   1.389  0.00  0.00    +0.070 C 
ATOM     10  C   LIG    1        0.002  -0.004   0.002  0.00  0.00    +0.270 C 
BRANCH  10  11
ATOM     11  N   LIG    1        0.979  -0.475  -0.989  0.00  0.00    -0.820 NA
ATOM     12  H   LIG    1        1.905  -0.140  -0.771  0.00  0.00    +0.360 HD
ATOM     13  H   LIG    1        0.707  -0.204  -1.922  0.00  0.00    +0.340 HD
ENDBRANCH  10  11
ENDBRANCH   1  10
TORSDOF 2
