REMARK  Name = ZINCAx00000007Ti.0
REMARK                            x       y       z     vdW  Elec       q    Type
REMARK                         _______ _______ _______ _____ _____    ______ ____
ROOT
ATOM      1  C   LIG    1        2.573   5.665   0.038  0.00  0.00    +0.340 C 
ATOM      2  C   LIG    1        1.266   6.417  -0.055  0.00  0.00    -0.230 C 
ATOM      3  C   LIG    1        1.560   7.731   0.091  0.00  0.00    +0.110 C 
ATOM      4  C   LIG    1        3.017   7.883   0.287  0.00  0.00    +0.520 C 
ATOM      5  O   LIG    1        3.591   8.941   0.451  0.00  0.00    -0.500 OA
ATOM      6  N   LIG    1        3.614   6.678   0.254  0.00  0.00    -0.590 N 
ENDROOT
BRANCH   1  10
ATOM      7  C   LIG    1        3.314   3.550  -3.604  0.00  0.00    -0.110 A 
ATOM      8  C   LIG    1        2.983   2.850  -2.441  0.00  0.00    +0.090 A 
ATOM      9  C   LIG    1        2.745   3.539  -1.270  0.00  0.00    +0.030 A 
ATOM     10  C   LIG    1        2.834   4.920  -1.245  0.00  0.00    -0.070 A 
ATOM     11  C   LIG    1        3.156   5.619  -2.395  0.00  0.00    +0.030 A 
ATOM     12  C   LIG    1        3.402   4.943  -3.572  0.00  0.00    +0.080 A 
BRANCH   7  13
ATOM     13  C   LIG    1        3.570   2.819  -4.862  0.00  0.00    +0.510 C 
ATOM     14  O   LIG    1        3.493   1.607  -4.886  0.00  0.00    -0.500 OA
BRANCH  13  16
ATOM     15  C   LIG    1        4.128   2.713  -7.181  0.00  0.00    +0.290 C 
ATOM     16  O   LIG    1        3.889   3.496  -5.981  0.00  0.00    -0.350 OA
ENDBRANCH  13  16
ENDBRANCH   7  13
ENDBRANCH   1  10
BRANCH   3  17
ATOM     17  O   LIG    1        0.662   8.742   0.063  0.00  0.00    -0.430 OA
ATOM     18  H   LIG    1        1.053   9.618   0.184  0.00  0.00    +0.420 HD
ENDBRANCH   3  17
BRANCH   2  19
ATOM     19  C   LIG    1       -0.063   5.837  -0.267  0.00  0.00    +0.470 C 
ATOM     20  O   LIG    1       -0.671   6.070  -1.295  0.00  0.00    -0.420 OA
BRANCH  19  21
ATOM     21  C   LIG    1       -0.664   4.968   0.767  0.00  0.00    -0.120 A 
ATOM     22  C   LIG    1        0.056   4.650   1.921  0.00  0.00    +0.020 A 
ATOM     23  C   LIG    1       -0.509   3.838   2.883  0.00  0.00    +0.040 A 
ATOM     24  C   LIG    1       -1.786   3.338   2.709  0.00  0.00    -0.050 A 
ATOM     25  C   LIG    1       -2.508   3.644   1.563  0.00  0.00    +0.120 A 
ATOM     26  C   LIG    1       -1.954   4.462   0.593  0.00  0.00    +0.050 A 
BRANCH  25  27
ATOM     27  O   LIG    1       -3.760   3.144   1.396  0.00  0.00    -0.310 OA
ATOM     28  C   LIG    1       -4.272   2.312   2.438  0.00  0.00    +0.250 C 
ENDBRANCH  25  27
ENDBRANCH  19  21
ENDBRANCH   2  19
BRANCH   6  29
ATOM     29  C   LIG    1        5.048   6.422   0.405  0.00  0.00    +0.320 C 
BRANCH  29  30
ATOM     30  C   LIG    1        5.721   6.458  -0.968  0.00  0.00    +0.020 C 
BRANCH  30  31
ATOM     31  C   LIG    1        7.219   6.190  -0.810  0.00  0.00    +0.180 C 
BRANCH  31  32
ATOM     32  N   LIG    1        7.865   6.225  -2.129  0.00  0.00    -0.530 NA
ATOM     33  C   LIG    1        7.404   5.112  -2.971  0.00  0.00    +0.150 C 
ATOM     34  C   LIG    1        8.055   5.220  -4.352  0.00  0.00    +0.220 C 
ATOM     35  O   LIG    1        9.477   5.235  -4.204  0.00  0.00    -0.380 OA
ATOM     36  C   LIG    1        9.960   6.307  -3.390  0.00  0.00    +0.220 C 
ATOM     37  C   LIG    1        9.329   6.209  -1.999  0.00  0.00    +0.150 C 
ENDBRANCH  31  32
ENDBRANCH  30  31
ENDBRANCH  29  30
ENDBRANCH   6  29
TORSDOF 11
