REMARK  Name = ZINCpe00000VV3qd.0
REMARK                            x       y       z     vdW  Elec       q    Type
REMARK                         _______ _______ _______ _____ _____    ______ ____
ROOT
ATOM      1  C   LIG    1        1.437   7.259   3.303  0.00  0.00    +0.560 C 
ATOM      2  N   LIG    1        1.466   5.937   3.041  0.00  0.00    -0.520 N 
ATOM      3  H   LIG    1        1.366   5.297   3.763  0.00  0.00    +0.430 HD
ATOM      4  O   LIG    1        1.563   8.060   2.398  0.00  0.00    -0.530 OA
ENDROOT
BRANCH   1   9
ATOM      5  C   LIG    1        1.049   9.538   6.268  0.00  0.00    +0.140 A 
ATOM      6  C   LIG    1        0.906   8.616   7.298  0.00  0.00    +0.010 A 
ATOM      7  C   LIG    1        0.937   7.261   7.027  0.00  0.00    +0.040 A 
ATOM      8  C   LIG    1        1.102   6.815   5.731  0.00  0.00    +0.030 A 
ATOM      9  C   LIG    1        1.253   7.734   4.691  0.00  0.00    -0.110 A 
ATOM     10  C   LIG    1        1.222   9.101   4.964  0.00  0.00    +0.090 A 
BRANCH   5  13
ATOM     11  C   LIG    1        0.569  13.253   5.898  0.00  0.00    +0.110 C 
ATOM     12  C   LIG    1        0.496  11.769   5.651  0.00  0.00    +0.510 C 
ATOM     13  N   LIG    1        1.018  10.909   6.548  0.00  0.00    -0.680 N 
ATOM     14  H   LIG    1        1.373  11.241   7.388  0.00  0.00    +0.410 HD
ATOM     15  O   LIG    1       -0.034  11.347   4.644  0.00  0.00    -0.520 OA
ENDBRANCH   5  13
ENDBRANCH   1   9
BRANCH   2  16
ATOM     16  N   LIG    1        1.641   5.487   1.726  0.00  0.00    -0.520 N 
ATOM     17  H   LIG    1        1.742   6.127   1.004  0.00  0.00    +0.430 HD
ATOM     18  C   LIG    1        1.670   4.165   1.464  0.00  0.00    +0.500 C 
ATOM     19  O   LIG    1        1.544   3.365   2.367  0.00  0.00    -0.530 OA
BRANCH  18  20
ATOM     20  C   LIG    1        1.858   3.681   0.050  0.00  0.00    +0.340 C 
BRANCH  20  21
ATOM     21  N   LIG    1        1.854   2.216   0.030  0.00  0.00    -0.590 N 
ATOM     22  C   LIG    1        3.118   1.479   0.191  0.00  0.00    +0.280 C 
ATOM     23  C   LIG    1        3.132   0.827   1.575  0.00  0.00    +0.010 C 
ATOM     24  C   LIG    1        2.450  -0.528   1.542  0.00  0.00    +0.010 C 
ATOM     25  C   LIG    1        0.958  -0.458   1.271  0.00  0.00    +0.040 C 
ATOM     26  C   LIG    1        0.688   0.045  -0.149  0.00  0.00    +0.060 C 
ATOM     27  C   LIG    1        0.705   1.559  -0.133  0.00  0.00    +0.520 C 
ATOM     28  O   LIG    1       -0.330   2.177  -0.275  0.00  0.00    -0.540 OA
ENDBRANCH  20  21
ENDBRANCH  18  20
ENDBRANCH   2  16
TORSDOF 5
