REMARK  Name = ZINCkj00000y7Gw3.0
REMARK                            x       y       z     vdW  Elec       q    Type
REMARK                         _______ _______ _______ _____ _____    ______ ____
ROOT
ATOM      1  N   LIG    1        2.689  -1.974   1.766  0.00  0.00    -0.710 N 
ATOM      2  H   LIG    1        2.508  -1.824   2.707  0.00  0.00    +0.410 HD
ATOM      3  C   LIG    1        1.904  -1.405   0.830  0.00  0.00    +0.520 C 
ATOM      4  O   LIG    1        2.131  -1.592  -0.347  0.00  0.00    -0.510 OA
ENDROOT
BRANCH   3   5
ATOM      5  C   LIG    1        0.745  -0.537   1.245  0.00  0.00    +0.030 C 
ATOM      6  C   LIG    1       -0.304  -1.370   2.012  0.00  0.00    +0.320 C 
ATOM      7  N   LIG    1       -1.296  -1.767   0.979  0.00  0.00    -0.510 N 
ATOM      8  C   LIG    1       -1.433  -0.560   0.123  0.00  0.00    +0.320 C 
ATOM      9  H   LIG    1       -2.179  -1.999   1.409  0.00  0.00    +0.450 HD
ATOM     10  H   LIG    1       -0.950  -2.546   0.439  0.00  0.00    +0.440 HD
ATOM     11  C   LIG    1        0.002  -0.004   0.002  0.00  0.00    +0.020 C 
BRANCH  11  12
ATOM     12  C   LIG    1       -0.019   1.526   0.010  0.00  0.00    +0.470 C 
ATOM     13  F   LIG    1       -0.673   1.977   1.161  0.00  0.00    -0.180 F 
ATOM     14  F   LIG    1       -0.695   1.989  -1.123  0.00  0.00    -0.160 F 
ATOM     15  F   LIG    1        1.294   2.010   0.001  0.00  0.00    -0.160 F 
ENDBRANCH  11  12
ENDBRANCH   3   5
BRANCH   1  16
ATOM     16  C   LIG    1        3.817  -2.818   1.363  0.00  0.00    +0.450 C 
BRANCH  16  21
ATOM     17  C   LIG    1        5.122  -5.688   5.256  0.00  0.00    +0.160 C 
ATOM     18  C   LIG    1        5.094  -4.554   4.264  0.00  0.00    -0.020 A 
ATOM     19  C   LIG    1        5.903  -3.482   4.261  0.00  0.00    -0.020 A 
ATOM     20  O   LIG    1        5.545  -2.717   3.212  0.00  0.00    -0.190 OA
ATOM     21  C   LIG    1        4.527  -3.327   2.590  0.00  0.00    +0.140 A 
ATOM     22  C   LIG    1        7.005  -3.190   5.247  0.00  0.00    +0.200 C 
ATOM     23  N   LIG    1        4.250  -4.431   3.224  0.00  0.00    -0.450 NA
ENDBRANCH  16  21
ENDBRANCH   1  16
TORSDOF 4
