REMARK  Name = ZINCtV00000pnh0y.0
REMARK                            x       y       z     vdW  Elec       q    Type
REMARK                         _______ _______ _______ _____ _____    ______ ____
ROOT
ATOM      1  C   LIG    1       -0.631   1.809  -3.699  0.00  0.00    +0.300 A 
ATOM      2  N   LIG    1       -1.562   1.245  -4.423  0.00  0.00    -0.520 NA
ATOM      3  C   LIG    1       -1.922   2.067  -5.418  0.00  0.00    +0.280 A 
ATOM      4  N   LIG    1       -1.207   3.167  -5.336  0.00  0.00    -0.300 NA
ATOM      5  N   LIG    1       -0.362   3.018  -4.224  0.00  0.00    -0.390 N 
ENDROOT
BRANCH   3   6
ATOM      6  C   LIG    1       -2.953   1.780  -6.446  0.00  0.00    -0.050 A 
ATOM      7  C   LIG    1       -3.236   2.723  -7.433  0.00  0.00    +0.080 A 
ATOM      8  C   LIG    1       -4.189   2.452  -8.391  0.00  0.00    -0.050 A 
ATOM      9  C   LIG    1       -4.877   1.245  -8.366  0.00  0.00    +0.130 A 
ATOM     10  C   LIG    1       -4.601   0.305  -7.379  0.00  0.00    -0.020 A 
ATOM     11  C   LIG    1       -3.644   0.570  -6.423  0.00  0.00    +0.090 A 
BRANCH   9  12
ATOM     12  N   LIG    1       -5.847   0.975  -9.333  0.00  0.00    -0.490 N 
ATOM     13  C   LIG    1       -5.551  -0.278 -10.039  0.00  0.00    +0.180 C 
ATOM     14  C   LIG    1       -6.705  -0.616 -10.986  0.00  0.00    +0.020 C 
ATOM     15  C   LIG    1       -6.886   0.526 -11.989  0.00  0.00    +0.010 C 
ATOM     16  C   LIG    1       -7.145   1.829 -11.227  0.00  0.00    +0.020 C 
ATOM     17  C   LIG    1       -5.978   2.095 -10.273  0.00  0.00    +0.180 C 
ENDBRANCH   9  12
ENDBRANCH   3   6
BRANCH   5  18
ATOM     18  C   LIG    1        0.620   3.987  -3.732  0.00  0.00    +0.270 C 
ATOM     19  C   LIG    1        1.653   4.265  -4.825  0.00  0.00    +0.100 C 
BRANCH  18  20
ATOM     20  C   LIG    1       -0.092   5.290  -3.360  0.00  0.00    +0.450 C 
ATOM     21  F   LIG    1       -0.735   5.809  -4.489  0.00  0.00    -0.160 F 
ATOM     22  F   LIG    1        0.846   6.216  -2.891  0.00  0.00    -0.170 F 
ATOM     23  F   LIG    1       -1.037   5.036  -2.361  0.00  0.00    -0.180 F 
ENDBRANCH  18  20
ENDBRANCH   5  18
BRANCH   1  24
ATOM     24  C   LIG    1        0.031   1.205  -2.487  0.00  0.00    +0.150 C 
BRANCH  24  25
ATOM     25  C   LIG    1       -0.753   1.593  -1.232  0.00  0.00    -0.020 C 
ATOM     26  C   LIG    1       -2.147   0.964  -1.286  0.00  0.00    +0.030 C 
BRANCH  25  27
ATOM     27  C   LIG    1       -0.013   1.086   0.008  0.00  0.00    +0.020 C 
BRANCH  27  29
ATOM     28  C   LIG    1        0.011   1.072   2.506  0.00  0.00    +0.000 C 
ATOM     29  C   LIG    1       -0.729   1.579   1.267  0.00  0.00    +0.000 C 
ENDBRANCH  27  29
ENDBRANCH  25  27
ENDBRANCH  24  25
ENDBRANCH   1  24
TORSDOF 8
