REMARK  Name = ZINCpk00000y6wRH.0
REMARK                            x       y       z     vdW  Elec       q    Type
REMARK                         _______ _______ _______ _____ _____    ______ ____
ROOT
ATOM      1  C   LIG    1       -4.001   2.089   4.785  0.00  0.00    -0.120 A 
ATOM      2  C   LIG    1       -4.767   1.583   3.748  0.00  0.00    +0.190 A 
ATOM      3  C   LIG    1       -4.131   1.210   2.574  0.00  0.00    -0.040 A 
ATOM      4  C   LIG    1       -2.753   1.353   2.474  0.00  0.00    +0.380 A 
ATOM      5  N   LIG    1       -2.048   1.835   3.486  0.00  0.00    -0.540 NA
ATOM      6  C   LIG    1       -2.626   2.206   4.619  0.00  0.00    +0.400 A 
ENDROOT
BRANCH   4   7
ATOM      7  N   LIG    1       -2.107   0.982   1.301  0.00  0.00    -0.470 N 
ATOM      8  C   LIG    1       -2.672   1.685   0.142  0.00  0.00    +0.200 C 
ATOM      9  C   LIG    1       -2.039   1.146  -1.142  0.00  0.00    +0.040 C 
ATOM     10  C   LIG    1       -0.523   1.355  -1.085  0.00  0.00    +0.020 C 
ATOM     11  C   LIG    1        0.034   0.653   0.156  0.00  0.00    +0.000 C 
ATOM     12  C   LIG    1       -0.658   1.206   1.404  0.00  0.00    +0.220 C 
BRANCH  11  13
ATOM     13  C   LIG    1        1.540   0.906   0.253  0.00  0.00    +0.180 C 
BRANCH  13  14
ATOM     14  O   LIG    1        2.199   0.290  -0.855  0.00  0.00    -0.570 OA
ATOM     15  H   LIG    1        3.158   0.410  -0.858  0.00  0.00    +0.380 HD
ENDBRANCH  13  14
ENDBRANCH  11  13
ENDBRANCH   4   7
BRANCH   6  16
ATOM     16  N   LIG    1       -1.849   2.712   5.655  0.00  0.00    -0.470 N 
ATOM     17  C   LIG    1       -1.333   1.629   6.503  0.00  0.00    +0.190 C 
ATOM     18  C   LIG    1       -0.608   2.228   7.710  0.00  0.00    +0.050 C 
ATOM     19  C   LIG    1        0.544   3.111   7.221  0.00  0.00    +0.030 C 
ATOM     20  C   LIG    1       -0.014   4.200   6.301  0.00  0.00    +0.000 C 
ATOM     21  C   LIG    1       -0.757   3.545   5.135  0.00  0.00    +0.200 C 
BRANCH  20  22
ATOM     22  C   LIG    1        1.136   5.051   5.761  0.00  0.00    +0.170 C 
BRANCH  22  23
ATOM     23  O   LIG    1        1.757   5.754   6.839  0.00  0.00    -0.570 OA
ATOM     24  H   LIG    1        2.496   6.316   6.569  0.00  0.00    +0.380 HD
ENDBRANCH  22  23
ENDBRANCH  20  22
ENDBRANCH   6  16
BRANCH   1  26
ATOM     25  O   LIG    1       -5.828   2.300   6.232  0.00  0.00    -0.190 OA
ATOM     26  N   LIG    1       -4.639   2.499   6.056  0.00  0.00    +0.040 N 
ATOM     27  O   LIG    1       -3.976   3.035   6.925  0.00  0.00    -0.110 OA
ENDBRANCH   1  26
TORSDOF 7
