REMARK  Name = ZINCrH000004uCBu.0
REMARK                            x       y       z     vdW  Elec       q    Type
REMARK                         _______ _______ _______ _____ _____    ______ ____
ROOT
ATOM      1  O   LIG    1       -6.198   1.510   1.272  0.00  0.00    -0.530 OA
ATOM      2  C   LIG    1       -6.025   0.623   0.464  0.00  0.00    +0.530 C 
ATOM      3  N   LIG    1       -6.972  -0.320   0.285  0.00  0.00    -0.720 N 
ATOM      4  H   LIG    1       -6.833  -1.029  -0.362  0.00  0.00    +0.400 HD
ENDROOT
BRANCH   2   5
ATOM      5  C   LIG    1       -4.752   0.575  -0.342  0.00  0.00    +0.010 C 
ATOM      6  C   LIG    1       -3.967  -0.726  -0.057  0.00  0.00    +0.100 C 
ATOM      7  C   LIG    1       -2.516  -0.297  -0.084  0.00  0.00    +0.520 C 
ATOM      8  N   LIG    1       -2.428   1.040   0.019  0.00  0.00    -0.560 N 
ATOM      9  O   LIG    1       -1.571  -1.050  -0.184  0.00  0.00    -0.500 OA
ATOM     10  C   LIG    1       -3.755   1.654   0.140  0.00  0.00    +0.310 C 
BRANCH   8  11
ATOM     11  C   LIG    1       -1.224   1.754   0.017  0.00  0.00    +0.180 A 
ATOM     12  C   LIG    1       -0.013   1.076   0.023  0.00  0.00    +0.010 A 
ATOM     13  C   LIG    1        1.174   1.783   0.016  0.00  0.00    +0.080 A 
ATOM     14  C   LIG    1        1.156   3.167   0.008  0.00  0.00    -0.120 A 
ATOM     15  C   LIG    1       -0.050   3.845   0.007  0.00  0.00    +0.080 A 
ATOM     16 BR   LIG    1        2.782   4.132  -0.002  0.00  0.00    -0.050 Br
ATOM     17  C   LIG    1       -1.239   3.143   0.014  0.00  0.00    -0.010 A 
ENDBRANCH   8  11
ENDBRANCH   2   5
BRANCH   3  18
ATOM     18  C   LIG    1       -8.209  -0.273   1.067  0.00  0.00    +0.320 C 
BRANCH  18  19
ATOM     19  C   LIG    1       -9.093  -1.431   0.680  0.00  0.00    -0.140 A 
ATOM     20  C   LIG    1      -10.012  -1.286  -0.342  0.00  0.00    +0.070 A 
ATOM     21  C   LIG    1      -10.819  -2.347  -0.703  0.00  0.00    -0.050 A 
ATOM     22  C   LIG    1      -10.714  -3.557  -0.031  0.00  0.00    +0.120 A 
ATOM     23  C   LIG    1       -9.794  -3.698   0.998  0.00  0.00    +0.000 A 
ATOM     24  C   LIG    1       -8.986  -2.635   1.351  0.00  0.00    +0.080 A 
BRANCH  22  25
ATOM     25  O   LIG    1      -11.511  -4.601  -0.381  0.00  0.00    -0.320 OA
BRANCH  25  26
ATOM     26  C   LIG    1      -12.434  -4.383  -1.449  0.00  0.00    +0.600 C 
ATOM     27  F   LIG    1      -11.732  -4.041  -2.610  0.00  0.00    -0.200 F 
ATOM     28  F   LIG    1      -13.306  -3.343  -1.108  0.00  0.00    -0.200 F 
ENDBRANCH  25  26
ENDBRANCH  22  25
ENDBRANCH  18  19
ENDBRANCH   3  18
TORSDOF 6
