REMARK  Name = ZINCrH000004uKGk.0
REMARK                            x       y       z     vdW  Elec       q    Type
REMARK                         _______ _______ _______ _____ _____    ______ ____
ROOT
ATOM      1  N   LIG    1        6.336  -0.685  -0.078  0.00  0.00    -0.510 N 
ATOM      2  H   LIG    1        7.123  -0.124   0.008  0.00  0.00    +0.430 HD
ATOM      3  C   LIG    1        5.111  -0.125  -0.127  0.00  0.00    +0.560 C 
ATOM      4  O   LIG    1        4.126  -0.828  -0.234  0.00  0.00    -0.520 OA
ENDROOT
BRANCH   3   5
ATOM      5  C   LIG    1        4.967   1.345  -0.051  0.00  0.00    -0.110 A 
ATOM      6  C   LIG    1        6.094   2.160  -0.050  0.00  0.00    +0.050 A 
ATOM      7  C   LIG    1        5.954   3.534   0.022  0.00  0.00    +0.030 A 
ATOM      8  C   LIG    1        4.697   4.107   0.093  0.00  0.00    +0.060 A 
ATOM      9  C   LIG    1        3.565   3.314   0.087  0.00  0.00    +0.050 A 
ATOM     10  C   LIG    1        3.687   1.928   0.021  0.00  0.00    -0.080 A 
BRANCH  10  11
ATOM     11  C   LIG    1        2.480   1.075   0.020  0.00  0.00    +0.460 C 
ATOM     12  O   LIG    1        1.809   0.972  -0.989  0.00  0.00    -0.430 OA
BRANCH  11  13
ATOM     13  C   LIG    1        2.088   0.348   1.245  0.00  0.00    -0.140 A 
ATOM     14  C   LIG    1        0.896  -0.380   1.278  0.00  0.00    +0.070 A 
ATOM     15  C   LIG    1        0.534  -1.052   2.427  0.00  0.00    +0.000 A 
ATOM     16  C   LIG    1        1.355  -1.016   3.541  0.00  0.00    +0.040 A 
ATOM     17  C   LIG    1        2.537  -0.297   3.515  0.00  0.00    +0.000 A 
ATOM     18  C   LIG    1        2.909   0.384   2.375  0.00  0.00    +0.050 A 
ENDBRANCH  11  13
ENDBRANCH  10  11
ENDBRANCH   3   5
BRANCH   1  21
ATOM     19  O   LIG    1        8.684  -1.935   0.007  0.00  0.00    -0.500 OA
ATOM     20  C   LIG    1        7.698  -2.638  -0.100  0.00  0.00    +0.550 C 
ATOM     21  N   LIG    1        6.473  -2.078  -0.149  0.00  0.00    -0.520 N 
ATOM     22  H   LIG    1        5.687  -2.639  -0.235  0.00  0.00    +0.430 HD
BRANCH  20  23
ATOM     23  C   LIG    1        7.843  -4.106  -0.176  0.00  0.00    -0.110 A 
ATOM     24  C   LIG    1        6.713  -4.917  -0.299  0.00  0.00    +0.050 A 
ATOM     25  C   LIG    1        6.855  -6.287  -0.370  0.00  0.00    +0.030 A 
ATOM     26  C   LIG    1        8.114  -6.860  -0.319  0.00  0.00    +0.060 A 
ATOM     27  C   LIG    1        9.238  -6.063  -0.197  0.00  0.00    +0.040 A 
ATOM     28  C   LIG    1        9.111  -4.690  -0.131  0.00  0.00    -0.040 A 
ATOM     29 BR   LIG    1       10.650  -3.602   0.028  0.00  0.00    -0.000 Br
ENDBRANCH  20  23
ENDBRANCH   1  21
TORSDOF 5
