REMARK  Name = ZINCpk00000xKDeV.0
REMARK                            x       y       z     vdW  Elec       q    Type
REMARK                         _______ _______ _______ _____ _____    ______ ____
ROOT
ATOM      1  S   LIG    1        2.950   2.415  -2.227  0.00  0.00    +2.610 S 
ATOM      2  O   LIG    1        2.024   1.360  -2.003  0.00  0.00    -0.940 OA
ATOM      3  O   LIG    1        3.478   2.664  -3.523  0.00  0.00    -0.930 OA
ENDROOT
BRANCH   1   9
ATOM      4  C   LIG    1        4.130   1.177  -0.107  0.00  0.00    +0.350 C 
ATOM      5  C   LIG    1        4.871   1.876   1.038  0.00  0.00    +0.260 C 
ATOM      6  O   LIG    1        6.207   2.171   0.623  0.00  0.00    -0.360 OA
ATOM      7  C   LIG    1        6.292   3.072  -0.483  0.00  0.00    +0.220 C 
ATOM      8  C   LIG    1        5.623   2.435  -1.706  0.00  0.00    +0.290 C 
ATOM      9  N   LIG    1        4.272   1.997  -1.321  0.00  0.00    -0.990 NA
BRANCH   4  14
ATOM     10  C   LIG    1       -0.436  -0.721   0.842  0.00  0.00    +0.250 C 
ATOM     11  C   LIG    1        0.720   0.226   0.649  0.00  0.00    +0.200 A 
ATOM     12  N   LIG    1        0.688   1.521   0.788  0.00  0.00    -0.280 NA
ATOM     13  N   LIG    1        1.854   2.006   0.545  0.00  0.00    -0.300 NA
ATOM     14  C   LIG    1        2.671   1.037   0.243  0.00  0.00    +0.160 A 
ATOM     15  O   LIG    1        1.974  -0.110   0.301  0.00  0.00    -0.190 OA
ENDBRANCH   4  14
ENDBRANCH   1   9
BRANCH   1  16
ATOM     16  C   LIG    1        2.355   3.955  -1.476  0.00  0.00    -0.220 C 
BRANCH  16  17
ATOM     17  C   LIG    1        1.272   4.549  -2.339  0.00  0.00    +0.130 A 
ATOM     18  N   LIG    1        1.437   5.419  -3.287  0.00  0.00    -0.260 NA
ATOM     19  O   LIG    1        0.188   5.733  -3.870  0.00  0.00    -0.080 OA
ATOM     20  C   LIG    1       -0.783   5.034  -3.249  0.00  0.00    +0.090 A 
ATOM     21  C   LIG    1       -2.161   4.963  -3.409  0.00  0.00    +0.010 A 
ATOM     22  C   LIG    1       -2.903   4.132  -2.597  0.00  0.00    +0.090 A 
ATOM     23  C   LIG    1       -2.286   3.364  -1.619  0.00  0.00    -0.010 A 
ATOM     24  C   LIG    1       -0.932   3.420  -1.446  0.00  0.00    +0.110 A 
ATOM     25  C   LIG    1       -0.162   4.255  -2.258  0.00  0.00    -0.200 A 
ENDBRANCH  16  17
ENDBRANCH   1  16
TORSDOF 4
