REMARK  Name = ZINCrg00000SjSBo.0
REMARK                            x       y       z     vdW  Elec       q    Type
REMARK                         _______ _______ _______ _____ _____    ______ ____
ROOT
ATOM      1  C   LIG    1       -2.444   2.688  -2.463  0.00  0.00    +0.260 C 
ATOM      2  C   LIG    1       -0.991   3.080  -2.158  0.00  0.00    +0.300 C 
ATOM      3  N   LIG    1       -0.900   1.880  -1.312  0.00  0.00    -1.040 NA
ATOM      4  C   LIG    1       -1.934   1.269  -2.162  0.00  0.00    +0.290 C 
ENDROOT
BRANCH   1   9
ATOM      5  O   LIG    1       -4.981   3.087  -3.285  0.00  0.00    -0.580 OA
ATOM      6  C   LIG    1       -4.141   3.092  -4.164  0.00  0.00    +0.710 C 
ATOM      7  N   LIG    1       -4.509   3.288  -5.446  0.00  0.00    -0.710 N 
ATOM      8  H   LIG    1       -3.839   3.293  -6.147  0.00  0.00    +0.400 HD
ATOM      9  N   LIG    1       -2.843   2.902  -3.856  0.00  0.00    -0.730 N 
ATOM     10  H   LIG    1       -2.173   2.906  -4.558  0.00  0.00    +0.400 HD
BRANCH   7  11
ATOM     11  C   LIG    1       -5.920   3.495  -5.779  0.00  0.00    +0.110 C 
ATOM     12  C   LIG    1       -6.950   2.552  -5.125  0.00  0.00    +0.080 C 
ATOM     13  C   LIG    1       -7.577   1.787  -6.317  0.00  0.00    +0.010 C 
ATOM     14  C   LIG    1       -7.667   2.878  -7.413  0.00  0.00    +0.040 C 
ATOM     15  C   LIG    1       -6.389   4.883  -6.223  0.00  0.00    +0.040 C 
ATOM     16  C   LIG    1       -6.376   3.702  -7.235  0.00  0.00    -0.050 C 
ENDBRANCH   7  11
ENDBRANCH   1   9
BRANCH   3  17
ATOM     17  S   LIG    1       -0.017   1.417   0.010  0.00  0.00    +2.730 S 
ATOM     18  O   LIG    1        1.162   2.210   0.003  0.00  0.00    -0.950 OA
ATOM     19  O   LIG    1        0.002  -0.004   0.002  0.00  0.00    -0.950 OA
BRANCH  17  20
ATOM     20  C   LIG    1       -0.930   1.894   1.440  0.00  0.00    -0.680 A 
ATOM     21  C   LIG    1       -0.727   3.140   2.003  0.00  0.00    +0.140 A 
ATOM     22  C   LIG    1       -1.444   3.520   3.122  0.00  0.00    +0.020 A 
ATOM     23  C   LIG    1       -2.361   2.647   3.689  0.00  0.00    +0.110 A 
ATOM     24  O   LIG    1       -3.054   3.032   4.796  0.00  0.00    -0.300 OA
ATOM     25  C   LIG    1       -4.230   2.280   5.112  0.00  0.00    +0.230 C 
ATOM     26  C   LIG    1       -3.890   0.787   5.002  0.00  0.00    +0.230 C 
ATOM     27  O   LIG    1       -3.461   0.523   3.661  0.00  0.00    -0.300 OA
ATOM     28  C   LIG    1       -2.562   1.393   3.124  0.00  0.00    +0.030 A 
ATOM     29  C   LIG    1       -1.843   1.020   1.999  0.00  0.00    +0.140 A 
ENDBRANCH  17  20
ENDBRANCH   3  17
TORSDOF 4
