REMARK  Name = ZINCqH00000034d7.0
REMARK                            x       y       z     vdW  Elec       q    Type
REMARK                         _______ _______ _______ _____ _____    ______ ____
ROOT
ATOM      1  N   LIG    1       -2.001   1.227   1.472  0.00  0.00    -0.670 N 
ATOM      2  H   LIG    1       -1.057   1.009   1.509  0.00  0.00    +0.410 HD
ATOM      3  C   LIG    1       -2.702   1.001   0.344  0.00  0.00    +0.510 C 
ATOM      4  O   LIG    1       -3.899   1.195   0.324  0.00  0.00    -0.500 OA
ENDROOT
BRANCH   3   5
ATOM      5  C   LIG    1       -1.998   0.507  -0.894  0.00  0.00    +0.070 C 
ATOM      6  C   LIG    1       -1.330  -0.836  -0.598  0.00  0.00    +0.100 C 
ATOM      7  C   LIG    1       -2.376  -1.909  -0.455  0.00  0.00    +0.520 C 
ATOM      8  N   LIG    1       -3.493  -1.886  -1.205  0.00  0.00    -0.660 N 
ATOM      9  H   LIG    1       -4.152  -2.591  -1.109  0.00  0.00    +0.420 HD
ATOM     10  C   LIG    1       -3.710  -0.852  -2.121  0.00  0.00    +0.210 A 
ATOM     11  C   LIG    1       -4.633  -1.010  -3.146  0.00  0.00    -0.050 A 
ATOM     12  C   LIG    1       -4.843   0.016  -4.049  0.00  0.00    +0.140 A 
ATOM     13  C   LIG    1       -4.133   1.200  -3.931  0.00  0.00    -0.030 A 
ATOM     14  C   LIG    1       -3.213   1.358  -2.910  0.00  0.00    +0.100 A 
ATOM     15  F   LIG    1       -5.740  -0.136  -5.047  0.00  0.00    -0.130 F 
ATOM     16  O   LIG    1       -2.211  -2.804   0.347  0.00  0.00    -0.510 OA
ATOM     17  C   LIG    1       -3.000   0.336  -2.007  0.00  0.00    -0.120 A 
ENDBRANCH   3   5
BRANCH   1  21
ATOM     18  C   LIG    1       -3.893   2.866   4.809  0.00  0.00    +0.210 A 
ATOM     19  C   LIG    1       -4.582   1.990   3.980  0.00  0.00    -0.060 A 
ATOM     20  C   LIG    1       -3.956   1.448   2.876  0.00  0.00    +0.060 A 
ATOM     21  C   LIG    1       -2.637   1.778   2.594  0.00  0.00    +0.080 A 
ATOM     22  C   LIG    1       -1.946   2.649   3.425  0.00  0.00    +0.030 A 
ATOM     23  C   LIG    1       -2.574   3.196   4.527  0.00  0.00    -0.050 A 
BRANCH  18  24
ATOM     24  N   LIG    1       -4.528   3.417   5.927  0.00  0.00    -0.630 N 
BRANCH  24  26
ATOM     25  C   LIG    1       -3.997   5.774   6.304  0.00  0.00    +0.010 C 
ATOM     26  C   LIG    1       -3.801   4.340   6.801  0.00  0.00    +0.270 C 
ENDBRANCH  24  26
BRANCH  24  27
ATOM     27  C   LIG    1       -5.920   3.069   6.224  0.00  0.00    +0.270 C 
ATOM     28  C   LIG    1       -5.956   1.836   7.129  0.00  0.00    +0.010 C 
ENDBRANCH  24  27
ENDBRANCH  18  24
ENDBRANCH   1  21
TORSDOF 5
