REMARK  Name = ZINCkj000005iFMz.1
REMARK                            x       y       z     vdW  Elec       q    Type
REMARK                         _______ _______ _______ _____ _____    ______ ____
ROOT
ATOM      1  N   LIG    1        0.679  -1.814  -1.542  0.00  0.00    -0.630 N 
ATOM      2  H   LIG    1        0.470  -2.450  -0.841  0.00  0.00    +0.420 HD
ATOM      3  C   LIG    1        0.561  -0.492  -1.309  0.00  0.00    +0.500 C 
ATOM      4  O   LIG    1        0.917   0.306  -2.151  0.00  0.00    -0.510 OA
ENDROOT
BRANCH   1  11
ATOM      5  C   LIG    1        1.720  -3.513  -2.918  0.00  0.00    +0.110 A 
ATOM      6  C   LIG    1        2.132  -3.960  -4.162  0.00  0.00    -0.040 A 
ATOM      7  C   LIG    1        1.941  -3.169  -5.280  0.00  0.00    +0.050 A 
ATOM      8  C   LIG    1        1.335  -1.932  -5.161  0.00  0.00    -0.100 A 
ATOM      9  C   LIG    1        0.915  -1.481  -3.923  0.00  0.00    +0.060 A 
ATOM     10  C   LIG    1        1.130  -1.074  -6.382  0.00  0.00    +0.100 C 
ATOM     11  C   LIG    1        1.103  -2.269  -2.798  0.00  0.00    +0.100 A 
BRANCH   5  13
ATOM     12  C   LIG    1        2.551  -5.551  -2.016  0.00  0.00    +0.260 C 
ATOM     13  O   LIG    1        1.912  -4.288  -1.817  0.00  0.00    -0.320 OA
ENDBRANCH   5  13
ENDBRANCH   1  11
BRANCH   3  14
ATOM     14  C   LIG    1       -0.013  -0.005  -0.004  0.00  0.00    +0.290 C 
BRANCH  14  15
ATOM     15  N   LIG    1       -0.035   1.464   0.004  0.00  0.00    -0.380 N 
ATOM     16  C   LIG    1        1.346   1.995   0.004  0.00  0.00    +0.260 C 
ATOM     17  C   LIG    1        1.339   3.270   0.868  0.00  0.00    +0.070 C 
ATOM     18  C   LIG    1       -0.115   3.406   1.376  0.00  0.00    +0.090 C 
ATOM     19  C   LIG    1       -0.660   1.960   1.256  0.00  0.00    +0.180 C 
ATOM     20  H   LIG    1       -0.540   1.809  -0.799  0.00  0.00    +0.440 HD
BRANCH  19  21
ATOM     21  C   LIG    1       -2.185   1.967   1.133  0.00  0.00    +0.230 C 
BRANCH  21  22
ATOM     22  O   LIG    1       -2.578   2.908   0.132  0.00  0.00    -0.580 OA
ATOM     23  H   LIG    1       -3.534   2.966  -0.001  0.00  0.00    +0.410 HD
ENDBRANCH  21  22
ENDBRANCH  19  21
ENDBRANCH  14  15
ENDBRANCH   3  14
TORSDOF 6
