REMARK  Name = ZINCkj000005iFMz.2
REMARK                            x       y       z     vdW  Elec       q    Type
REMARK                         _______ _______ _______ _____ _____    ______ ____
ROOT
ATOM      1  N   LIG    1        1.398   5.654  -0.321  0.00  0.00    -0.630 N 
ATOM      2  H   LIG    1        1.640   5.243  -1.165  0.00  0.00    +0.420 HD
ATOM      3  C   LIG    1        0.645   4.976   0.567  0.00  0.00    +0.500 C 
ATOM      4  O   LIG    1        0.259   5.523   1.579  0.00  0.00    -0.510 OA
ENDROOT
BRANCH   1  11
ATOM      5  C   LIG    1        2.150   7.836  -1.054  0.00  0.00    +0.110 A 
ATOM      6  C   LIG    1        2.571   9.121  -0.755  0.00  0.00    -0.040 A 
ATOM      7  C   LIG    1        2.684   9.523   0.563  0.00  0.00    +0.050 A 
ATOM      8  C   LIG    1        2.372   8.647   1.585  0.00  0.00    -0.100 A 
ATOM      9  C   LIG    1        1.946   7.364   1.296  0.00  0.00    +0.060 A 
ATOM     10  C   LIG    1        2.497   9.091   3.020  0.00  0.00    +0.100 C 
ATOM     11  C   LIG    1        1.830   6.954  -0.024  0.00  0.00    +0.100 A 
BRANCH   5  13
ATOM     12  C   LIG    1        2.388   8.395  -3.354  0.00  0.00    +0.260 C 
ATOM     13  O   LIG    1        2.043   7.438  -2.350  0.00  0.00    -0.320 OA
ENDBRANCH   5  13
ENDBRANCH   1  11
BRANCH   3  14
ATOM     14  C   LIG    1        0.281   3.537   0.303  0.00  0.00    +0.280 C 
BRANCH  14  15
ATOM     15  N   LIG    1       -0.537   3.027   1.411  0.00  0.00    -0.370 N 
ATOM     16  C   LIG    1       -1.840   3.726   1.429  0.00  0.00    +0.270 C 
ATOM     17  C   LIG    1       -2.862   2.646   1.865  0.00  0.00    +0.080 C 
ATOM     18  C   LIG    1       -2.309   1.385   1.151  0.00  0.00    +0.090 C 
ATOM     19  C   LIG    1       -0.780   1.585   1.226  0.00  0.00    +0.170 C 
ATOM     20  H   LIG    1       -0.057   3.182   2.285  0.00  0.00    +0.440 HD
BRANCH  19  21
ATOM     21  C   LIG    1       -0.129   1.110  -0.074  0.00  0.00    +0.200 C 
BRANCH  21  22
ATOM     22  O   LIG    1       -0.449  -0.265  -0.293  0.00  0.00    -0.550 OA
ATOM     23  H   LIG    1       -0.068  -0.634  -1.102  0.00  0.00    +0.410 HD
ENDBRANCH  21  22
ENDBRANCH  19  21
ENDBRANCH  14  15
ENDBRANCH   3  14
TORSDOF 6
