REMARK  Name = ZINCpe000000ZEbv.0
REMARK                            x       y       z     vdW  Elec       q    Type
REMARK                         _______ _______ _______ _____ _____    ______ ____
ROOT
ATOM      1  C   LIG    1        6.160  -0.529   0.204  0.00  0.00    +0.520 C 
ATOM      2  N   LIG    1        6.463  -1.685   0.825  0.00  0.00    -0.720 N 
ATOM      3  H   LIG    1        5.829  -2.086   1.441  0.00  0.00    +0.410 HD
ATOM      4  O   LIG    1        6.952  -0.028  -0.566  0.00  0.00    -0.480 OA
ENDROOT
BRANCH   2   5
ATOM      5  C   LIG    1        7.750  -2.338   0.571  0.00  0.00    +0.280 C 
ATOM      6  C   LIG    1        8.122  -3.211   1.770  0.00  0.00    +0.140 C 
ATOM      7  C   LIG    1        7.241  -4.432   1.800  0.00  0.00    -0.190 A 
ATOM      8  C   LIG    1        6.869  -5.001   2.999  0.00  0.00    +0.300 A 
ATOM      9  N   LIG    1        6.105  -6.079   3.022  0.00  0.00    -0.500 NA
ATOM     10  C   LIG    1        5.671  -6.652   1.915  0.00  0.00    +0.300 A 
ATOM     11  C   LIG    1        5.997  -6.138   0.675  0.00  0.00    -0.070 A 
ATOM     12  C   LIG    1        6.795  -4.999   0.611  0.00  0.00    +0.210 A 
ATOM     13  N   LIG    1        7.124  -4.425  -0.612  0.00  0.00    -0.660 N 
ATOM     14  H   LIG    1        6.976  -4.923  -1.432  0.00  0.00    +0.420 HD
ATOM     15  C   LIG    1        7.644  -3.186  -0.669  0.00  0.00    +0.510 C 
ATOM     16  O   LIG    1        8.031  -2.746  -1.731  0.00  0.00    -0.480 OA
ENDBRANCH   2   5
BRANCH   1  20
ATOM     17  O   LIG    1        3.701   3.343   0.168  0.00  0.00    -0.430 OA
ATOM     18  C   LIG    1        3.663   2.143  -0.015  0.00  0.00    +0.530 C 
ATOM     19  O   LIG    1        4.795   1.423  -0.229  0.00  0.00    -0.330 OA
ATOM     20  C   LIG    1        4.836   0.143   0.466  0.00  0.00    +0.200 C 
ATOM     21  C   LIG    1        3.703  -0.747  -0.046  0.00  0.00    +0.100 C 
ATOM     22  C   LIG    1        2.397   0.004  -0.023  0.00  0.00    -0.040 A 
ATOM     23  C   LIG    1        1.204  -0.689  -0.015  0.00  0.00    +0.010 A 
ATOM     24  C   LIG    1        0.002  -0.004   0.002  0.00  0.00    +0.050 A 
ATOM     25  C   LIG    1       -0.017   1.379   0.010  0.00  0.00    +0.010 A 
ATOM     26  C   LIG    1        1.169   2.087   0.002  0.00  0.00    +0.090 A 
ATOM     27  C   LIG    1        2.382   1.400  -0.013  0.00  0.00    -0.170 A 
ENDBRANCH   1  20
TORSDOF 2
