REMARK  Name = ZINCpk00000KdPBy.0
REMARK                            x       y       z     vdW  Elec       q    Type
REMARK                         _______ _______ _______ _____ _____    ______ ____
ROOT
ATOM      1  C   LIG    1       -2.148   4.582   1.350  0.00  0.00    +0.180 C 
ENDROOT
BRANCH   1   3
ATOM      2  O   LIG    1       -2.759   4.149  -0.888  0.00  0.00    -0.500 OA
ATOM      3  C   LIG    1       -2.049   3.837   0.044  0.00  0.00    +0.550 C 
ATOM      4  N   LIG    1       -1.171   2.823  -0.088  0.00  0.00    -0.650 N 
ATOM      5  C   LIG    1       -0.813   1.901  -1.184  0.00  0.00    +0.300 C 
ATOM      6  C   LIG    1        0.550   1.763  -0.482  0.00  0.00    +0.260 C 
ATOM      7  C   LIG    1       -0.178   2.190   0.805  0.00  0.00    +0.310 C 
BRANCH   6   8
ATOM      8  N   LIG    1        1.550   2.730  -0.942  0.00  0.00    -0.360 N 
ATOM      9  C   LIG    1        1.679   4.003  -0.515  0.00  0.00    +0.220 A 
ATOM     10  C   LIG    1        2.719   4.558  -1.179  0.00  0.00    -0.120 A 
ATOM     11  C   LIG    1        3.239   3.594  -2.048  0.00  0.00    +0.240 A 
ATOM     12  N   LIG    1        2.539   2.497  -1.907  0.00  0.00    -0.290 NA
ENDBRANCH   6   8
ENDBRANCH   1   3
BRANCH   1  13
ATOM     13  N   LIG    1       -2.590   5.959   1.095  0.00  0.00    -0.510 NA
ATOM     14  C   LIG    1       -1.663   6.651   0.191  0.00  0.00    +0.170 C 
ATOM     15  C   LIG    1       -2.229   8.027  -0.167  0.00  0.00    +0.000 C 
ATOM     16  C   LIG    1       -2.424   8.842   1.115  0.00  0.00    +0.150 C 
ATOM     17  C   LIG    1       -3.355   8.077   2.059  0.00  0.00    +0.050 C 
ATOM     18  C   LIG    1       -2.757   6.700   2.352  0.00  0.00    +0.190 C 
BRANCH  16  19
ATOM     19  O   LIG    1       -3.005  10.107   0.792  0.00  0.00    -0.570 OA
ATOM     20  H   LIG    1       -2.468  10.646   0.196  0.00  0.00    +0.380 HD
ENDBRANCH  16  19
ENDBRANCH   1  13
BRANCH   1  21
ATOM     21  C   LIG    1       -3.143   3.893   2.247  0.00  0.00    -0.090 A 
ATOM     22  C   LIG    1       -4.498   4.105   2.069  0.00  0.00    +0.060 A 
ATOM     23  C   LIG    1       -5.411   3.469   2.889  0.00  0.00    +0.010 A 
ATOM     24  C   LIG    1       -4.969   2.629   3.894  0.00  0.00    +0.010 A 
ATOM     25  C   LIG    1       -3.615   2.421   4.076  0.00  0.00    +0.000 A 
ATOM     26  C   LIG    1       -2.702   3.053   3.252  0.00  0.00    +0.010 A 
ENDBRANCH   1  21
TORSDOF 5
