REMARK  Name = ZINCnE000001OPr7.0
REMARK                            x       y       z     vdW  Elec       q    Type
REMARK                         _______ _______ _______ _____ _____    ______ ____
ROOT
ATOM      1  N   LIG    1        0.544  -4.398   0.166  0.00  0.00    -0.650 N 
ATOM      2  H   LIG    1        0.527  -4.902  -0.662  0.00  0.00    +0.410 HD
ATOM      3  C   LIG    1        0.835  -5.019   1.327  0.00  0.00    +0.600 C 
ATOM      4  O   LIG    1        0.949  -4.372   2.351  0.00  0.00    -0.480 OA
ENDROOT
BRANCH   1  12
ATOM      5  C   LIG    1        0.862  -2.984  -2.278  0.00  0.00    +0.070 C 
ATOM      6  C   LIG    1        0.407  -2.297  -1.016  0.00  0.00    -0.130 A 
ATOM      7  C   LIG    1        0.128  -0.943  -1.032  0.00  0.00    +0.010 A 
ATOM      8  C   LIG    1       -0.284  -0.305   0.120  0.00  0.00    -0.070 A 
ATOM      9  C   LIG    1       -0.430  -1.030   1.306  0.00  0.00    -0.100 A 
ATOM     10  C   LIG    1       -0.153  -2.398   1.320  0.00  0.00    +0.050 A 
ATOM     11  C   LIG    1       -0.581   1.172   0.098  0.00  0.00    +0.090 C 
ATOM     12  C   LIG    1        0.265  -3.027   0.158  0.00  0.00    +0.120 A 
BRANCH   9  13
ATOM     13  C   LIG    1       -0.874  -0.351   2.538  0.00  0.00    +0.530 C 
ATOM     14  O   LIG    1       -1.825  -0.791   3.169  0.00  0.00    -0.690 OA
ATOM     15  O   LIG    1       -0.292   0.650   2.929  0.00  0.00    -0.680 OA
ENDBRANCH   9  13
ENDBRANCH   1  12
BRANCH   3  16
ATOM     16  C   LIG    1        1.014  -6.475   1.354  0.00  0.00    -0.120 A 
ATOM     17  C   LIG    1        1.315  -7.237   2.444  0.00  0.00    +0.090 A 
ATOM     18  N   LIG    1        1.385  -8.509   2.037  0.00  0.00    -0.480 NA
ATOM     19  C   LIG    1        1.151  -8.557   0.753  0.00  0.00    +0.250 A 
ATOM     20  C   LIG    1        1.525  -6.739   3.851  0.00  0.00    +0.190 C 
ATOM     21  O   LIG    1        0.919  -7.321   0.302  0.00  0.00    -0.190 OA
BRANCH  19  22
ATOM     22  C   LIG    1        1.145  -9.809  -0.087  0.00  0.00    +0.070 C 
ATOM     23  C   LIG    1        1.050  -9.640  -1.605  0.00  0.00    +0.060 C 
ATOM     24  C   LIG    1       -0.153 -10.163  -0.817  0.00  0.00    +0.050 C 
ENDBRANCH  19  22
ENDBRANCH   3  16
TORSDOF 4
