REMARK  Name = ZINCpk00000e9uxL.0
REMARK                            x       y       z     vdW  Elec       q    Type
REMARK                         _______ _______ _______ _____ _____    ______ ____
ROOT
ATOM      1  N   LIG    1        1.196  -0.633  -0.013  0.00  0.00    -0.540 N 
ATOM      2  C   LIG    1        0.002  -0.004   0.002  0.00  0.00    +0.570 A 
ATOM      3  C   LIG    1       -0.018   1.468   0.010  0.00  0.00    -0.200 A 
ATOM      4  C   LIG    1        1.191   2.134   0.002  0.00  0.00    +0.430 A 
ATOM      5  N   LIG    1        2.347   1.417  -0.013  0.00  0.00    -0.490 N 
ATOM      6  O   LIG    1       -1.035  -0.640   0.009  0.00  0.00    -0.490 OA
ATOM      7  C   LIG    1        2.339   0.075  -0.020  0.00  0.00    +0.700 A 
ATOM      8  O   LIG    1        3.399  -0.519  -0.034  0.00  0.00    -0.520 OA
ENDROOT
BRANCH   5   9
ATOM      9  C   LIG    1        3.629   2.126  -0.022  0.00  0.00    +0.220 C 
ATOM     10  C   LIG    1        3.600   3.641   0.190  0.00  0.00    +0.060 C 
ATOM     11  C   LIG    1        3.907   3.068  -1.195  0.00  0.00    +0.060 C 
ENDBRANCH   5   9
BRANCH   3  12
ATOM     12  C   LIG    1       -1.256   2.187   0.020  0.00  0.00    +0.280 C 
ATOM     13  N   LIG    1       -2.238   2.758   0.028  0.00  0.00    -0.400 NA
ENDBRANCH   3  12
BRANCH   1  14
ATOM     14  C   LIG    1        1.247  -2.097  -0.021  0.00  0.00    +0.350 C 
BRANCH  14  15
ATOM     15  C   LIG    1        1.251  -2.591  -1.445  0.00  0.00    +0.390 C 
ATOM     16  O   LIG    1        1.215  -1.799  -2.362  0.00  0.00    -0.440 OA
BRANCH  15  20
ATOM     17  C   LIG    1        1.390  -6.749  -2.242  0.00  0.00    +0.170 A 
ATOM     18  C   LIG    1        1.348  -5.842  -3.296  0.00  0.00    -0.030 A 
ATOM     19  C   LIG    1        1.303  -4.495  -3.043  0.00  0.00    +0.130 A 
ATOM     20  C   LIG    1        1.299  -4.033  -1.721  0.00  0.00    -0.210 A 
ATOM     21  C   LIG    1        1.347  -4.950  -0.664  0.00  0.00    +0.110 A 
ATOM     22  C   LIG    1        1.386  -6.295  -0.928  0.00  0.00    -0.080 A 
BRANCH  17  23
ATOM     23  O   LIG    1        1.435  -8.080  -2.498  0.00  0.00    -0.310 OA
BRANCH  23  25
ATOM     24  C   LIG    1        1.524 -10.407  -1.852  0.00  0.00    +0.070 C 
ATOM     25  C   LIG    1        1.477  -8.956  -1.370  0.00  0.00    +0.190 C 
ENDBRANCH  23  25
ENDBRANCH  17  23
ENDBRANCH  15  20
ENDBRANCH  14  15
ENDBRANCH   1  14
TORSDOF 7
