REMARK  Name = ZINCpk000000o3Am.1
REMARK                            x       y       z     vdW  Elec       q    Type
REMARK                         _______ _______ _______ _____ _____    ______ ____
ROOT
ATOM      1  C   LIG    1        7.805  -4.208   0.095  0.00  0.00    +0.050 C 
ATOM      2  C   LIG    1        7.049  -3.869   1.381  0.00  0.00    +0.110 C 
ATOM      3  C   LIG    1        5.683  -4.559   1.367  0.00  0.00    +0.040 C 
ATOM      4  C   LIG    1        4.894  -4.095   0.139  0.00  0.00    +0.310 C 
ATOM      5  N   LIG    1        4.829  -2.627   0.146  0.00  0.00    -0.620 N 
ATOM      6  C   LIG    1        6.081  -1.865   0.243  0.00  0.00    +0.260 C 
ATOM      7  C   LIG    1        3.643  -1.992   0.059  0.00  0.00    +0.720 C 
ATOM      8  N   LIG    1        3.604  -0.648  -0.036  0.00  0.00    -0.690 N 
ATOM      9  H   LIG    1        4.428  -0.143  -0.115  0.00  0.00    +0.420 HD
ATOM     10  O   LIG    1        2.609  -2.631   0.066  0.00  0.00    -0.550 OA
ATOM     11  C   LIG    1        6.856  -2.354   1.475  0.00  0.00    -0.010 C 
ENDROOT
BRANCH   8  12
ATOM     12  C   LIG    1        2.387   0.011  -0.023  0.00  0.00    +0.450 A 
ATOM     13  C   LIG    1        2.040   0.848  -1.046  0.00  0.00    -0.070 A 
ATOM     14  C   LIG    1        0.807   1.502  -1.007  0.00  0.00    +0.380 A 
ATOM     15  N   LIG    1       -0.014   1.314   0.003  0.00  0.00    -0.470 NA
ATOM     16  C   LIG    1        0.312   0.497   1.014  0.00  0.00    +0.270 A 
ATOM     17  C   LIG    1       -0.353   0.129   2.175  0.00  0.00    -0.100 A 
ATOM     18  C   LIG    1        0.464  -0.755   2.866  0.00  0.00    +0.290 A 
ATOM     19  N   LIG    1        1.572  -0.934   2.184  0.00  0.00    -0.290 NA
ATOM     20  N   LIG    1        1.513  -0.165   1.017  0.00  0.00    -0.310 N 
ENDBRANCH   8  12
BRANCH   2  21
ATOM     21  N   LIG    1        7.822  -4.337   2.540  0.00  0.00    -0.520 NA
ATOM     22  C   LIG    1        7.086  -4.107   3.791  0.00  0.00    +0.140 C 
ATOM     23  C   LIG    1        7.899  -4.662   4.964  0.00  0.00    +0.220 C 
ATOM     24  O   LIG    1        9.191  -4.049   4.975  0.00  0.00    -0.390 OA
ATOM     25  C   LIG    1        9.935  -4.253   3.771  0.00  0.00    +0.220 C 
ATOM     26  C   LIG    1        9.143  -3.694   2.586  0.00  0.00    +0.150 C 
ENDBRANCH   2  21
TORSDOF 2
