REMARK  Name = ZINC9l0000002i7a.0
REMARK                            x       y       z     vdW  Elec       q    Type
REMARK                         _______ _______ _______ _____ _____    ______ ____
ROOT
ATOM      1  C   LIG    1       -0.013   1.086   0.008  0.00  0.00    +0.010 C 
ATOM      2  C   LIG    1       -0.729   1.579   1.267  0.00  0.00    -0.060 C 
ATOM      3  C   LIG    1        0.150   1.548   2.528  0.00  0.00    -0.010 C 
ATOM      4  C   LIG    1       -0.486   2.894   2.910  0.00  0.00    +0.010 C 
ATOM      5  C   LIG    1       -2.102   0.933   1.461  0.00  0.00    +0.040 C 
ATOM      6  C   LIG    1       -0.740   3.110   1.409  0.00  0.00    -0.090 C 
ENDROOT
BRANCH   6   7
ATOM      7  C   LIG    1       -2.079   3.735   1.107  0.00  0.00    +0.500 C 
ATOM      8  O   LIG    1       -2.830   3.207   0.305  0.00  0.00    -0.690 OA
ATOM      9  O   LIG    1       -2.409   4.767   1.665  0.00  0.00    -0.700 OA
ENDBRANCH   6   7
TORSDOF 1
