REMARK  Name = ZINCqH0000002vzN.0
REMARK                            x       y       z     vdW  Elec       q    Type
REMARK                         _______ _______ _______ _____ _____    ______ ____
ROOT
ATOM      1  C   LIG    1        1.437   1.773  -0.002  0.00  0.00    +0.180 C 
ATOM      2  N   LIG    1        2.175   0.498  -0.016  0.00  0.00    -0.710 N 
ATOM      3  H   LIG    1        3.139   0.386  -0.026  0.00  0.00    +0.440 HD
ATOM      4  C   LIG    1        1.252  -0.481  -0.013  0.00  0.00    +0.710 C 
ATOM      5  N   LIG    1        0.002  -0.004   0.002  0.00  0.00    -0.570 N 
ATOM      6  O   LIG    1        1.524  -1.665  -0.021  0.00  0.00    -0.530 OA
ATOM      7  C   LIG    1       -0.016   1.343   0.009  0.00  0.00    +0.540 C 
ATOM      8  O   LIG    1       -0.992   2.062   0.018  0.00  0.00    -0.450 OA
ENDROOT
BRANCH   1   9
ATOM      9  C   LIG    1        1.743   2.576  -1.240  0.00  0.00    -0.110 A 
ATOM     10  C   LIG    1        1.599   3.951  -1.225  0.00  0.00    +0.080 A 
ATOM     11  C   LIG    1        1.884   4.689  -2.358  0.00  0.00    -0.010 A 
ATOM     12  C   LIG    1        2.303   4.050  -3.513  0.00  0.00    +0.110 A 
ATOM     13  C   LIG    1        2.442   2.672  -3.528  0.00  0.00    -0.010 A 
ATOM     14  F   LIG    1        2.577   4.769  -4.622  0.00  0.00    -0.130 F 
ATOM     15  C   LIG    1        2.162   1.937  -2.392  0.00  0.00    +0.070 A 
ENDBRANCH   1   9
BRANCH   1  16
ATOM     16  C   LIG    1        1.772   2.575   1.257  0.00  0.00    +0.060 C 
BRANCH  16  17
ATOM     17  C   LIG    1        1.623   1.677   2.488  0.00  0.00    +0.000 C 
BRANCH  17  19
ATOM     18  C   LIG    1        1.809   1.582   4.977  0.00  0.00    +0.010 C 
ATOM     19  C   LIG    1        1.958   2.479   3.747  0.00  0.00    +0.010 C 
ENDBRANCH  17  19
ENDBRANCH  16  17
ENDBRANCH   1  16
BRANCH   5  20
ATOM     20  C   LIG    1       -1.199  -0.844   0.008  0.00  0.00    +0.330 C 
BRANCH  20  21
ATOM     21  C   LIG    1       -1.623  -1.124  -1.410  0.00  0.00    +0.410 C 
ATOM     22  O   LIG    1       -0.984  -0.666  -2.337  0.00  0.00    -0.440 OA
BRANCH  21  23
ATOM     23  C   LIG    1       -2.763  -1.918  -1.663  0.00  0.00    -0.310 A 
ATOM     24  C   LIG    1       -3.252  -2.238  -2.904  0.00  0.00    +0.120 A 
ATOM     25  C   LIG    1       -4.373  -3.028  -2.857  0.00  0.00    -0.010 A 
ATOM     26  C   LIG    1       -4.799  -3.340  -1.625  0.00  0.00    -0.040 A 
ATOM     27  S   LIG    1       -3.790  -2.649  -0.436  0.00  0.00    +0.230 S 
ENDBRANCH  21  23
ENDBRANCH  20  21
ENDBRANCH   5  20
TORSDOF 7
