REMARK  Name = ZINCrD00000hQ4kG.0
REMARK                            x       y       z     vdW  Elec       q    Type
REMARK                         _______ _______ _______ _____ _____    ______ ____
ROOT
ATOM      1  C   LIG    1       -0.390   1.405   4.807  0.00  0.00    +0.330 A 
ATOM      2  N   LIG    1       -0.681   1.841   3.623  0.00  0.00    -0.510 NA
ATOM      3  C   LIG    1       -0.846   3.160   3.489  0.00  0.00    +0.060 A 
ATOM      4  C   LIG    1       -0.680   3.876   4.622  0.00  0.00    -0.020 A 
ATOM      5  S   LIG    1       -0.298   2.758   5.930  0.00  0.00    +0.120 S 
ENDROOT
BRANCH   3   6
ATOM      6  C   LIG    1       -1.178   3.787   2.200  0.00  0.00    +0.590 C 
ATOM      7  N   LIG    1       -1.505   3.020   1.141  0.00  0.00    -0.590 N 
ATOM      8  C   LIG    1       -1.670   1.568   1.292  0.00  0.00    +0.290 C 
ATOM      9  C   LIG    1       -0.780   0.861   0.265  0.00  0.00    +0.010 C 
ATOM     10  C   LIG    1       -1.104   1.389  -1.134  0.00  0.00    +0.020 C 
ATOM     11  C   LIG    1       -0.814   2.890  -1.195  0.00  0.00    +0.030 C 
ATOM     12  C   LIG    1       -1.705   3.620  -0.185  0.00  0.00    +0.340 C 
ATOM     13  O   LIG    1       -1.157   4.999   2.090  0.00  0.00    -0.510 OA
BRANCH  12  14
ATOM     14  C   LIG    1       -1.332   5.079  -0.144  0.00  0.00    +0.240 A 
ATOM     15  N   LIG    1       -0.172   5.557   0.224  0.00  0.00    -0.270 NA
ATOM     16  N   LIG    1       -0.254   6.954   0.110  0.00  0.00    -0.480 N 
ATOM     17  H   LIG    1        0.447   7.596   0.308  0.00  0.00    +0.440 HD
ATOM     18  C   LIG    1       -1.497   7.227  -0.323  0.00  0.00    +0.480 A 
ATOM     19  N   LIG    1       -2.133   6.093  -0.471  0.00  0.00    -0.540 NA
ENDBRANCH  12  14
ENDBRANCH   3   6
BRANCH   1  20
ATOM     20  N   LIG    1       -0.183   0.076   5.140  0.00  0.00    -0.620 N 
ATOM     21  H   LIG    1       -0.280  -0.614   4.464  0.00  0.00    +0.420 HD
BRANCH  20  25
ATOM     22  C   LIG    1        0.857  -0.959   9.042  0.00  0.00    +0.120 A 
ATOM     23  C   LIG    1       -0.059   0.057   8.815  0.00  0.00    +0.030 A 
ATOM     24  C   LIG    1       -0.404   0.401   7.523  0.00  0.00    +0.020 A 
ATOM     25  C   LIG    1        0.167  -0.271   6.450  0.00  0.00    +0.120 A 
ATOM     26  C   LIG    1        1.080  -1.292   6.678  0.00  0.00    +0.030 A 
ATOM     27  C   LIG    1        1.428  -1.631   7.971  0.00  0.00    -0.040 A 
BRANCH  22  29
ATOM     28  C   LIG    1        2.146  -2.352  10.475  0.00  0.00    +0.240 C 
ATOM     29  O   LIG    1        1.196  -1.296  10.315  0.00  0.00    -0.310 OA
ENDBRANCH  22  29
ENDBRANCH  20  25
ENDBRANCH   1  20
TORSDOF 5
