REMARK  Name = ZINCrD00000hQ4kG.1
REMARK                            x       y       z     vdW  Elec       q    Type
REMARK                         _______ _______ _______ _____ _____    ______ ____
ROOT
ATOM      1  C   LIG    1       -6.136  -0.136   1.059  0.00  0.00    +0.330 A 
ATOM      2  N   LIG    1       -4.881   0.180   1.010  0.00  0.00    -0.510 NA
ATOM      3  C   LIG    1       -4.073  -0.416   1.891  0.00  0.00    +0.050 A 
ATOM      4  C   LIG    1       -4.681  -1.286   2.726  0.00  0.00    -0.010 A 
ATOM      5  S   LIG    1       -6.399  -1.315   2.339  0.00  0.00    +0.120 S 
ENDROOT
BRANCH   3   6
ATOM      6  C   LIG    1       -2.627  -0.148   1.944  0.00  0.00    +0.590 C 
ATOM      7  N   LIG    1       -2.046   0.607   0.990  0.00  0.00    -0.590 N 
ATOM      8  C   LIG    1       -2.812   1.053  -0.181  0.00  0.00    +0.280 C 
ATOM      9  C   LIG    1       -2.057   0.641  -1.449  0.00  0.00    +0.010 C 
ATOM     10  C   LIG    1       -0.629   1.186  -1.388  0.00  0.00    +0.010 C 
ATOM     11  C   LIG    1        0.096   0.588  -0.179  0.00  0.00    +0.040 C 
ATOM     12  C   LIG    1       -0.634   0.999   1.103  0.00  0.00    +0.330 C 
ATOM     13  O   LIG    1       -1.956  -0.608   2.848  0.00  0.00    -0.500 OA
BRANCH  12  14
ATOM     14  C   LIG    1       -0.008   0.304   2.285  0.00  0.00    +0.190 A 
ATOM     15  N   LIG    1        0.162  -0.982   2.425  0.00  0.00    -0.250 NA
ATOM     16  N   LIG    1        0.727  -1.224   3.554  0.00  0.00    -0.290 NA
ATOM     17  C   LIG    1        0.943  -0.103   4.187  0.00  0.00    +0.360 A 
ATOM     18  N   LIG    1        0.488   0.899   3.397  0.00  0.00    -0.580 N 
ATOM     19  H   LIG    1        0.510   1.850   3.589  0.00  0.00    +0.420 HD
ENDBRANCH  12  14
ENDBRANCH   3   6
BRANCH   1  20
ATOM     20  N   LIG    1       -7.120   0.376   0.230  0.00  0.00    -0.630 N 
ATOM     21  H   LIG    1       -6.877   0.938  -0.523  0.00  0.00    +0.420 HD
BRANCH  20  25
ATOM     22  C   LIG    1      -11.129  -0.498   0.969  0.00  0.00    +0.120 A 
ATOM     23  C   LIG    1      -10.275  -0.218   2.025  0.00  0.00    +0.020 A 
ATOM     24  C   LIG    1       -8.947   0.072   1.781  0.00  0.00    +0.030 A 
ATOM     25  C   LIG    1       -8.466   0.083   0.478  0.00  0.00    +0.110 A 
ATOM     26  C   LIG    1       -9.324  -0.193  -0.579  0.00  0.00    +0.040 A 
ATOM     27  C   LIG    1      -10.650  -0.487  -0.333  0.00  0.00    -0.040 A 
BRANCH  22  29
ATOM     28  C   LIG    1      -13.260  -1.062   0.075  0.00  0.00    +0.240 C 
ATOM     29  O   LIG    1      -12.437  -0.783   1.210  0.00  0.00    -0.310 OA
ENDBRANCH  22  29
ENDBRANCH  20  25
ENDBRANCH   1  20
TORSDOF 5
