REMARK  Name = ZINCvU00000004ca.0
REMARK                            x       y       z     vdW  Elec       q    Type
REMARK                         _______ _______ _______ _____ _____    ______ ____
ROOT
ATOM      1  N   LIG    1        0.622   3.455  -0.422  0.00  0.00    -0.480 N 
ATOM      2  C   LIG    1        1.787   4.127  -0.333  0.00  0.00    +0.530 C 
ATOM      3  O   LIG    1        2.830   3.519  -0.225  0.00  0.00    -0.470 OA
ENDROOT
BRANCH   2   4
ATOM      4  C   LIG    1        1.792   5.633  -0.367  0.00  0.00    -0.010 C 
ATOM      5  C   LIG    1        3.179   6.130  -0.780  0.00  0.00    +0.050 C 
ATOM      6  C   LIG    1        3.177   7.659  -0.847  0.00  0.00    +0.030 C 
ATOM      7  C   LIG    1        2.854   8.226   0.539  0.00  0.00    +0.270 C 
ATOM      8  N   LIG    1        1.590   7.640   1.007  0.00  0.00    -0.600 N 
ATOM      9  C   LIG    1        0.576   8.429   1.413  0.00  0.00    +0.560 C 
ATOM     10  O   LIG    1       -0.452   7.932   1.831  0.00  0.00    -0.520 OA
ATOM     11  C   LIG    1        1.453   6.177   1.025  0.00  0.00    +0.310 C 
BRANCH   9  12
ATOM     12  C   LIG    1        0.712   9.899   1.348  0.00  0.00    -0.130 A 
ATOM     13  C   LIG    1        1.925  10.506   1.682  0.00  0.00    +0.070 A 
ATOM     14  C   LIG    1        2.048  11.877   1.614  0.00  0.00    +0.020 A 
ATOM     15  C   LIG    1        0.968  12.654   1.228  0.00  0.00    -0.010 A 
ATOM     16  C   LIG    1       -0.239  12.059   0.900  0.00  0.00    +0.030 A 
ATOM     17 CL   LIG    1        1.129  14.381   1.152  0.00  0.00    -0.060 Cl
ATOM     18  C   LIG    1       -0.372  10.688   0.959  0.00  0.00    +0.090 A 
ENDBRANCH   9  12
ENDBRANCH   2   4
BRANCH   1  19
ATOM     19  C   LIG    1       -0.574   4.152  -0.643  0.00  0.00    +0.130 A 
ATOM     20  C   LIG    1       -0.819   4.740  -1.877  0.00  0.00    +0.040 A 
ATOM     21  C   LIG    1       -1.998   5.426  -2.092  0.00  0.00    +0.040 A 
ATOM     22  C   LIG    1       -2.936   5.527  -1.080  0.00  0.00    -0.020 A 
ATOM     23  C   LIG    1       -2.694   4.942   0.151  0.00  0.00    +0.050 A 
ATOM     24 CL   LIG    1       -4.417   6.390  -1.354  0.00  0.00    -0.060 Cl
ATOM     25  C   LIG    1       -1.517   4.255   0.371  0.00  0.00    +0.060 A 
ENDBRANCH   1  19
BRANCH   1  30
ATOM     26  C   LIG    1       -0.725  -0.781  -1.603  0.00  0.00    +0.060 C 
ATOM     27  C   LIG    1       -0.318  -0.099  -0.296  0.00  0.00    +0.200 C 
ATOM     28  C   LIG    1        1.119  -0.510   0.062  0.00  0.00    +0.070 C 
ATOM     29  S   LIG    1        2.008   1.079   0.110  0.00  0.00    -0.090 S 
ATOM     30  C   LIG    1        0.606   2.076  -0.296  0.00  0.00    +0.390 C 
ATOM     31  N   LIG    1       -0.429   1.335  -0.450  0.00  0.00    -0.550 NA
ENDBRANCH   1  30
TORSDOF 4
