REMARK  Name = ZINCvU00000003JX.0
REMARK                            x       y       z     vdW  Elec       q    Type
REMARK                         _______ _______ _______ _____ _____    ______ ____
ROOT
ATOM      1  N   LIG    1       -5.888   2.800   0.340  0.00  0.00    -0.510 N 
ATOM      2  C   LIG    1       -5.019   1.776   0.490  0.00  0.00    +0.530 C 
ATOM      3  C   LIG    1       -3.682   2.356   0.259  0.00  0.00    -0.020 C 
ATOM      4  N   LIG    1       -3.889   3.681  -0.002  0.00  0.00    -0.510 NA
ATOM      5  C   LIG    1       -2.484   1.704   0.303  0.00  0.00    +0.180 C 
ATOM      6  O   LIG    1       -5.284   0.618   0.759  0.00  0.00    -0.460 OA
ATOM      7  C   LIG    1       -5.171   3.934   0.041  0.00  0.00    +0.310 C 
ENDROOT
BRANCH   5   8
ATOM      8  C   LIG    1       -1.232   2.459   0.177  0.00  0.00    -0.060 A 
ATOM      9  C   LIG    1       -1.244   3.761  -0.339  0.00  0.00    +0.100 A 
ATOM     10  C   LIG    1       -0.064   4.463  -0.459  0.00  0.00    +0.030 A 
ATOM     11  C   LIG    1        1.132   3.886  -0.066  0.00  0.00    +0.060 A 
ATOM     12  C   LIG    1        1.155   2.601   0.449  0.00  0.00    -0.040 A 
ATOM     13 CL   LIG    1        2.662   1.890   0.936  0.00  0.00    -0.040 Cl
ATOM     14  C   LIG    1       -0.018   1.884   0.577  0.00  0.00    -0.010 A 
ATOM     15 CL   LIG    1        0.011   0.273   1.223  0.00  0.00    -0.040 Cl
ENDBRANCH   5   8
BRANCH   1  20
ATOM     16  C   LIG    1      -11.530   2.476   0.862  0.00  0.00    +0.100 C 
ATOM     17  C   LIG    1      -10.032   2.562   0.723  0.00  0.00    -0.070 A 
ATOM     18  C   LIG    1       -9.397   1.919  -0.324  0.00  0.00    +0.020 A 
ATOM     19  C   LIG    1       -8.024   1.996  -0.454  0.00  0.00    +0.040 A 
ATOM     20  C   LIG    1       -7.281   2.720   0.469  0.00  0.00    +0.110 A 
ATOM     21  C   LIG    1       -7.920   3.360   1.522  0.00  0.00    +0.030 A 
ATOM     22  C   LIG    1       -9.294   3.284   1.643  0.00  0.00    +0.020 A 
ENDBRANCH   1  20
BRANCH   7  23
ATOM     23  S   LIG    1       -5.886   5.519  -0.241  0.00  0.00    +0.120 S 
BRANCH  23  24
ATOM     24  C   LIG    1       -4.390   6.485  -0.567  0.00  0.00    +0.100 C 
BRANCH  24  25
ATOM     25  C   LIG    1       -4.766   7.917  -0.844  0.00  0.00    +0.550 C 
ATOM     26  N   LIG    1       -3.809   8.826  -1.115  0.00  0.00    -0.610 N 
ATOM     27  C   LIG    1       -2.364   8.558  -1.166  0.00  0.00    +0.230 C 
ATOM     28  C   LIG    1       -1.661   9.895  -1.485  0.00  0.00    +0.040 C 
ATOM     29  C   LIG    1       -2.703  10.950  -1.028  0.00  0.00    +0.030 C 
ATOM     30  C   LIG    1       -4.035  10.254  -1.402  0.00  0.00    +0.250 C 
ATOM     31  O   LIG    1       -5.932   8.253  -0.823  0.00  0.00    -0.520 OA
ENDBRANCH  24  25
ENDBRANCH  23  24
ENDBRANCH   7  23
TORSDOF 5
