REMARK  Name = ZINCpk000004AOw0.0
REMARK                            x       y       z     vdW  Elec       q    Type
REMARK                         _______ _______ _______ _____ _____    ______ ____
ROOT
ATOM      1  C   LIG    1        1.457   2.703   0.763  0.00  0.00    +0.530 C 
ATOM      2  N   LIG    1        2.361   2.202   1.628  0.00  0.00    -0.610 N 
ATOM      3  C   LIG    1        1.925   1.510   2.848  0.00  0.00    +0.280 C 
ATOM      4  C   LIG    1        2.567   0.112   2.869  0.00  0.00    +0.270 C 
ATOM      5  N   LIG    1        4.006   0.254   2.611  0.00  0.00    -0.620 N 
ATOM      6  C   LIG    1        4.443   0.951   1.394  0.00  0.00    +0.290 C 
ATOM      7  C   LIG    1        4.911  -0.246   3.477  0.00  0.00    +0.600 C 
ATOM      8  O   LIG    1        6.079   0.086   3.396  0.00  0.00    -0.520 OA
ATOM      9  C   LIG    1        3.801   2.344   1.370  0.00  0.00    +0.290 C 
ATOM     10  O   LIG    1        1.827   3.220  -0.270  0.00  0.00    -0.530 OA
ENDROOT
BRANCH   1  16
ATOM     11  C   LIG    1       -2.488   4.141   3.085  0.00  0.00    +0.550 C 
ATOM     12  N   LIG    1       -1.937   3.890   1.881  0.00  0.00    -0.610 N 
ATOM     13  C   LIG    1       -2.782   3.560   0.725  0.00  0.00    +0.270 C 
ATOM     14  C   LIG    1       -2.291   2.243   0.115  0.00  0.00    +0.010 C 
ATOM     15  C   LIG    1       -0.800   2.361  -0.209  0.00  0.00    +0.050 C 
ATOM     16  C   LIG    1       -0.014   2.620   1.079  0.00  0.00    -0.030 C 
ATOM     17  C   LIG    1       -0.479   3.940   1.700  0.00  0.00    +0.310 C 
ATOM     18  O   LIG    1       -1.788   4.504   4.011  0.00  0.00    -0.540 OA
BRANCH  11  20
ATOM     19  C   LIG    1       -4.497   4.324   4.434  0.00  0.00    +0.140 C 
ATOM     20  C   LIG    1       -3.937   3.976   3.280  0.00  0.00    -0.090 C 
ENDBRANCH  11  20
ENDBRANCH   1  16
BRANCH   7  21
ATOM     21  C   LIG    1        4.487  -1.190   4.515  0.00  0.00    -0.280 A 
ATOM     22  C   LIG    1        5.248  -1.595   5.576  0.00  0.00    +0.110 A 
ATOM     23  C   LIG    1        4.602  -2.488   6.398  0.00  0.00    +0.000 A 
ATOM     24  C   LIG    1        3.356  -2.804   6.026  0.00  0.00    -0.070 A 
ATOM     25  S   LIG    1        2.917  -1.977   4.600  0.00  0.00    +0.210 S 
ENDBRANCH   7  21
TORSDOF 3
