REMARK  Name = ZINCrD000000fEaS.2
REMARK                            x       y       z     vdW  Elec       q    Type
REMARK                         _______ _______ _______ _____ _____    ______ ____
ROOT
ATOM      1  C   LIG    1        2.319   3.537  -0.057  0.00  0.00    +0.340 C 
ENDROOT
BRANCH   1   2
ATOM      2  C   LIG    1        2.114   2.067   0.203  0.00  0.00    +0.060 A 
ATOM      3  C   LIG    1        3.041   1.155  -0.110  0.00  0.00    -0.030 A 
ATOM      4  S   LIG    1        2.427  -0.433   0.346  0.00  0.00    +0.150 S 
ATOM      5  C   LIG    1        0.942   0.314   0.930  0.00  0.00    +0.130 A 
ATOM      6  N   LIG    1        1.015   1.602   0.750  0.00  0.00    -0.450 NA
BRANCH   5   7
ATOM      7  C   LIG    1       -0.203  -0.405   1.528  0.00  0.00    -0.020 A 
ATOM      8  C   LIG    1       -1.326   0.301   1.960  0.00  0.00    +0.060 A 
ATOM      9  C   LIG    1       -2.393  -0.376   2.513  0.00  0.00    +0.010 A 
ATOM     10  C   LIG    1       -2.347  -1.752   2.649  0.00  0.00    -0.060 A 
ATOM     11  C   LIG    1       -1.235  -2.458   2.227  0.00  0.00    +0.020 A 
ATOM     12  C   LIG    1       -0.163  -1.793   1.668  0.00  0.00    +0.020 A 
BRANCH  10  13
ATOM     13  C   LIG    1       -3.514  -2.485   3.260  0.00  0.00    +0.020 C 
ATOM     14  C   LIG    1       -4.768  -2.236   2.420  0.00  0.00    +0.030 C 
ATOM     15  C   LIG    1       -3.745  -1.979   4.685  0.00  0.00    +0.040 C 
ENDBRANCH  10  13
ENDBRANCH   5   7
ENDBRANCH   1   2
BRANCH   1  16
ATOM     16  N   LIG    1        1.685   3.902  -1.331  0.00  0.00    -0.360 N 
ATOM     17  H   LIG    1        0.728   3.581  -1.334  0.00  0.00    +0.430 HD
BRANCH  16  18
ATOM     18  C   LIG    1        2.416   3.274  -2.440  0.00  0.00    +0.060 C 
ATOM     19  C   LIG    1        3.917   3.497  -2.252  0.00  0.00    +0.070 C 
BRANCH  18  20
ATOM     20  C   LIG    1        2.126   1.795  -2.459  0.00  0.00    +0.490 C 
ATOM     21  O   LIG    1        1.258   1.335  -1.737  0.00  0.00    -0.650 OA
ATOM     22  O   LIG    1        2.760   1.059  -3.195  0.00  0.00    -0.640 OA
ENDBRANCH  18  20
ENDBRANCH  16  18
BRANCH  16  23
ATOM     23  C   LIG    1        1.712   5.362  -1.491  0.00  0.00    +0.240 C 
BRANCH  23  24
ATOM     24  C   LIG    1        0.957   5.750  -2.764  0.00  0.00    +0.270 C 
BRANCH  24  27
ATOM     25  C   LIG    1        0.592   9.253  -4.263  0.00  0.00    +0.110 C 
ATOM     26  C   LIG    1        0.478   7.766  -4.045  0.00  0.00    +0.510 C 
ATOM     27  N   LIG    1        1.069   7.195  -2.977  0.00  0.00    -0.730 N 
ATOM     28  H   LIG    1        1.568   7.740  -2.349  0.00  0.00    +0.410 HD
ATOM     29  O   LIG    1       -0.146   7.084  -4.830  0.00  0.00    -0.530 OA
ENDBRANCH  24  27
ENDBRANCH  23  24
ENDBRANCH  16  23
ENDBRANCH   1  16
TORSDOF 9
