REMARK  Name = ZINCrD000000fEaS.1
REMARK                            x       y       z     vdW  Elec       q    Type
REMARK                         _______ _______ _______ _____ _____    ______ ____
ROOT
ATOM      1  C   LIG    1       -2.212   3.268   2.354  0.00  0.00    +0.370 C 
ENDROOT
BRANCH   1   2
ATOM      2  C   LIG    1       -1.682   3.055   3.749  0.00  0.00    +0.020 A 
ATOM      3  C   LIG    1       -1.402   4.076   4.566  0.00  0.00    -0.040 A 
ATOM      4  S   LIG    1       -0.815   3.417   6.091  0.00  0.00    +0.130 S 
ATOM      5  C   LIG    1       -1.004   1.785   5.453  0.00  0.00    +0.130 A 
ATOM      6  N   LIG    1       -1.462   1.855   4.236  0.00  0.00    -0.450 NA
BRANCH   5   7
ATOM      7  C   LIG    1       -0.693   0.537   6.182  0.00  0.00    -0.050 A 
ATOM      8  C   LIG    1       -0.891  -0.701   5.569  0.00  0.00    +0.080 A 
ATOM      9  C   LIG    1       -0.593  -1.861   6.253  0.00  0.00    +0.010 A 
ATOM     10  C   LIG    1       -0.109  -1.800   7.547  0.00  0.00    -0.050 A 
ATOM     11  C   LIG    1        0.084  -0.577   8.163  0.00  0.00    +0.010 A 
ATOM     12  C   LIG    1       -0.205   0.592   7.488  0.00  0.00    +0.030 A 
BRANCH  10  13
ATOM     13  C   LIG    1        0.209  -3.072   8.290  0.00  0.00    +0.020 C 
ATOM     14  C   LIG    1        1.282  -3.853   7.529  0.00  0.00    +0.030 C 
ATOM     15  C   LIG    1       -1.056  -3.925   8.406  0.00  0.00    +0.030 C 
ENDBRANCH  10  13
ENDBRANCH   5   7
ENDBRANCH   1   2
BRANCH   1  16
ATOM     16  N   LIG    1       -1.093   3.284   1.403  0.00  0.00    -0.350 N 
ATOM     17  H   LIG    1       -0.263   3.624   1.865  0.00  0.00    +0.400 HD
BRANCH  16  18
ATOM     18  C   LIG    1       -0.853   1.922   0.907  0.00  0.00    +0.060 C 
ATOM     19  C   LIG    1       -0.633   0.979   2.092  0.00  0.00    +0.100 C 
BRANCH  18  20
ATOM     20  C   LIG    1       -2.046   1.459   0.112  0.00  0.00    +0.500 C 
ATOM     21  O   LIG    1       -1.929   0.546  -0.688  0.00  0.00    -0.630 OA
ATOM     22  O   LIG    1       -3.129   1.997   0.268  0.00  0.00    -0.670 OA
ENDBRANCH  18  20
ENDBRANCH  16  18
BRANCH  16  23
ATOM     23  C   LIG    1       -1.422   4.165   0.275  0.00  0.00    +0.250 C 
BRANCH  23  24
ATOM     24  C   LIG    1       -0.222   4.253  -0.670  0.00  0.00    +0.270 C 
BRANCH  24  27
ATOM     25  C   LIG    1        0.130   6.479  -3.765  0.00  0.00    +0.110 C 
ATOM     26  C   LIG    1        0.419   5.475  -2.679  0.00  0.00    +0.520 C 
ATOM     27  N   LIG    1       -0.502   5.229  -1.726  0.00  0.00    -0.730 N 
ATOM     28  H   LIG    1       -1.351   5.698  -1.740  0.00  0.00    +0.410 HD
ATOM     29  O   LIG    1        1.480   4.889  -2.662  0.00  0.00    -0.540 OA
ENDBRANCH  24  27
ENDBRANCH  23  24
ENDBRANCH  16  23
ENDBRANCH   1  16
TORSDOF 9
