REMARK  Name = ZINCrD00000F5Lke.0
REMARK                            x       y       z     vdW  Elec       q    Type
REMARK                         _______ _______ _______ _____ _____    ______ ____
ROOT
ATOM      1  C   LIG    1       -1.794   0.906  -1.512  0.00  0.00    +0.570 C 
ATOM      2  N   LIG    1       -0.786   1.692  -1.085  0.00  0.00    -0.570 N 
ATOM      3  O   LIG    1       -2.594   1.331  -2.321  0.00  0.00    -0.490 OA
ENDROOT
BRANCH   1   8
ATOM      4  C   LIG    1       -1.240  -2.151   0.437  0.00  0.00    +0.280 A 
ATOM      5  N   LIG    1       -2.148  -2.993  -0.037  0.00  0.00    -0.490 NA
ATOM      6  C   LIG    1       -2.977  -2.628  -0.998  0.00  0.00    +0.380 A 
ATOM      7  C   LIG    1       -2.892  -1.341  -1.516  0.00  0.00    -0.110 A 
ATOM      8  C   LIG    1       -1.926  -0.478  -0.995  0.00  0.00    +0.160 A 
ATOM      9 CL   LIG    1       -3.962  -0.819  -2.779  0.00  0.00    +0.010 Cl
ATOM     10  N   LIG    1       -1.121  -0.919  -0.031  0.00  0.00    -0.460 NA
BRANCH   4  12
ATOM     11  C   LIG    1       -0.751  -4.385   1.940  0.00  0.00    +0.160 C 
ATOM     12  S   LIG    1       -0.157  -2.689   1.719  0.00  0.00    +0.030 S 
ENDBRANCH   4  12
ENDBRANCH   1   8
BRANCH   2  13
ATOM     13  C   LIG    1       -0.580   3.012  -1.687  0.00  0.00    +0.270 C 
ATOM     14  C   LIG    1       -1.817   3.897  -1.453  0.00  0.00    +0.070 C 
ATOM     15  C   LIG    1       -1.722   5.131  -2.371  0.00  0.00    -0.310 C 
ATOM     16  S   LIG    1       -0.740   4.580  -3.812  0.00  0.00    +2.400 S 
ATOM     17  O   LIG    1       -1.576   4.530  -4.961  0.00  0.00    -0.930 OA
ATOM     18  O   LIG    1        0.482   5.304  -3.854  0.00  0.00    -0.930 OA
ATOM     19  C   LIG    1       -0.416   2.875  -3.223  0.00  0.00    -0.320 C 
ENDBRANCH   2  13
BRANCH   2  20
ATOM     20  C   LIG    1        0.104   1.227  -0.018  0.00  0.00    +0.350 C 
BRANCH  20  21
ATOM     21  C   LIG    1       -0.443   1.661   1.317  0.00  0.00    -0.090 A 
ATOM     22  C   LIG    1       -0.159   2.924   1.802  0.00  0.00    +0.030 A 
ATOM     23  C   LIG    1       -0.665   3.326   3.025  0.00  0.00    +0.020 A 
ATOM     24  C   LIG    1       -1.445   2.461   3.768  0.00  0.00    +0.020 A 
ATOM     25  C   LIG    1       -1.725   1.194   3.285  0.00  0.00    -0.040 A 
ATOM     26 CL   LIG    1       -2.706   0.107   4.218  0.00  0.00    -0.070 Cl
ATOM     27  C   LIG    1       -1.223   0.795   2.059  0.00  0.00    +0.040 A 
ENDBRANCH  20  21
ENDBRANCH   2  20
TORSDOF 5
