REMARK  Name = ZINCvU000000054n.0
REMARK                            x       y       z     vdW  Elec       q    Type
REMARK                         _______ _______ _______ _____ _____    ______ ____
ROOT
ATOM      1  O   LIG    1        3.662   0.064  -2.233  0.00  0.00    -0.500 OA
ATOM      2  C   LIG    1        3.260   0.977  -1.543  0.00  0.00    +0.530 C 
ATOM      3  N   LIG    1        2.098   0.853  -0.871  0.00  0.00    -0.610 N 
ATOM      4  C   LIG    1        1.494   1.879  -0.002  0.00  0.00    +0.250 C 
ATOM      5  C   LIG    1       -0.019   1.547   0.011  0.00  0.00    +0.040 C 
ATOM      6  C   LIG    1        0.002  -0.004   0.002  0.00  0.00    +0.050 C 
ATOM      7  C   LIG    1        1.223  -0.328  -0.885  0.00  0.00    +0.280 C 
ENDROOT
BRANCH   7   8
ATOM      8  C   LIG    1        1.960  -1.519  -0.327  0.00  0.00    -0.080 A 
ATOM      9  C   LIG    1        2.825  -1.357   0.738  0.00  0.00    +0.030 A 
ATOM     10  C   LIG    1        3.504  -2.447   1.251  0.00  0.00    +0.020 A 
ATOM     11  C   LIG    1        3.318  -3.705   0.698  0.00  0.00    +0.050 A 
ATOM     12  O   LIG    1        3.999  -4.767   1.209  0.00  0.00    -0.310 OA
ATOM     13  C   LIG    1        3.508  -6.069   0.872  0.00  0.00    +0.220 C 
ATOM     14  C   LIG    1        3.222  -6.099  -0.636  0.00  0.00    +0.220 C 
ATOM     15  O   LIG    1        2.244  -5.094  -0.926  0.00  0.00    -0.310 OA
ATOM     16  C   LIG    1        2.445  -3.868  -0.372  0.00  0.00    +0.050 A 
ATOM     17  C   LIG    1        1.764  -2.772  -0.878  0.00  0.00    +0.030 A 
ENDBRANCH   7   8
BRANCH   2  18
ATOM     18  C   LIG    1        4.059   2.250  -1.437  0.00  0.00    +0.230 C 
BRANCH  18  19
ATOM     19  O   LIG    1        5.240   2.139  -2.234  0.00  0.00    -0.290 OA
BRANCH  19  20
ATOM     20  C   LIG    1        6.077   3.210  -2.249  0.00  0.00    +0.140 A 
ATOM     21  C   LIG    1        5.765   4.346  -1.517  0.00  0.00    -0.080 A 
ATOM     22  C   LIG    1        6.621   5.431  -1.529  0.00  0.00    +0.100 A 
ATOM     23  C   LIG    1        7.781   5.389  -2.280  0.00  0.00    -0.110 A 
ATOM     24  C   LIG    1        8.092   4.260  -3.015  0.00  0.00    +0.080 A 
ATOM     25  C   LIG    1        7.242   3.170  -3.001  0.00  0.00    -0.010 A 
BRANCH  23  26
ATOM     26  C   LIG    1        8.710   6.576  -2.296  0.00  0.00    +0.140 C 
ATOM     27  S   LIG    1        9.280   6.924  -0.608  0.00  0.00    -0.220 S 
ATOM     28  C   LIG    1       10.299   8.408  -0.825  0.00  0.00    +0.100 C 
ATOM     29  C   LIG    1        9.442   9.560  -1.338  0.00  0.00    +0.060 C 
ATOM     30  C   LIG    1        9.065   9.345  -2.799  0.00  0.00    +0.100 C 
ATOM     31  S   LIG    1        7.827   8.028  -2.935  0.00  0.00    -0.220 S 
ENDBRANCH  23  26
ENDBRANCH  19  20
ENDBRANCH  18  19
ENDBRANCH   2  18
TORSDOF 5
