REMARK  Name = ZINCvU0000000Fhl.0
REMARK                            x       y       z     vdW  Elec       q    Type
REMARK                         _______ _______ _______ _____ _____    ______ ____
ROOT
ATOM      1  C   LIG    1        5.822   7.973  -0.503  0.00  0.00    +0.290 C 
ATOM      2  C   LIG    1        5.803   9.322  -1.219  0.00  0.00    +0.020 C 
ATOM      3  C   LIG    1        7.211   9.924  -1.154  0.00  0.00    +0.050 C 
ATOM      4  C   LIG    1        7.494  10.333   0.290  0.00  0.00    +0.290 C 
ATOM      5  C   LIG    1        7.205   9.192   1.230  0.00  0.00    -0.090 A 
ATOM      6  C   LIG    1        7.745   9.253   2.507  0.00  0.00    +0.030 A 
ATOM      7  C   LIG    1        7.512   8.242   3.417  0.00  0.00    +0.000 A 
ATOM      8  C   LIG    1        6.734   7.158   3.054  0.00  0.00    +0.000 A 
ATOM      9  C   LIG    1        6.199   7.094   1.784  0.00  0.00    +0.020 A 
ATOM     10  C   LIG    1        6.434   8.110   0.867  0.00  0.00    -0.090 A 
ENDROOT
BRANCH   1  12
ATOM     11  C   LIG    1        4.222   6.152  -0.255  0.00  0.00    +0.510 C 
ATOM     12  N   LIG    1        4.451   7.475  -0.373  0.00  0.00    -0.730 N 
ATOM     13  H   LIG    1        3.707   8.098  -0.371  0.00  0.00    +0.400 HD
ATOM     14  O   LIG    1        5.152   5.374  -0.256  0.00  0.00    -0.510 OA
BRANCH  11  15
ATOM     15  C   LIG    1        2.811   5.640  -0.120  0.00  0.00    +0.020 C 
BRANCH  15  16
ATOM     16  C   LIG    1        2.831   4.115  -0.003  0.00  0.00    +0.230 C 
BRANCH  16  17
ATOM     17  O   LIG    1        3.487   3.739   1.210  0.00  0.00    -0.540 OA
ATOM     18  H   LIG    1        3.063   4.081   2.009  0.00  0.00    +0.370 HD
ENDBRANCH  16  17
BRANCH  16  19
ATOM     19  C   LIG    1        1.396   3.585   0.008  0.00  0.00    -0.010 C 
BRANCH  19  20
ATOM     20  C   LIG    1        1.417   2.055  -0.000  0.00  0.00    +0.010 C 
BRANCH  20  21
ATOM     21  C   LIG    1       -0.019   1.526   0.010  0.00  0.00    +0.000 C 
BRANCH  21  23
ATOM     22  C   LIG    1       -1.433  -0.534   0.013  0.00  0.00    +0.000 C 
ATOM     23  C   LIG    1        0.002  -0.004   0.002  0.00  0.00    -0.010 C 
ENDBRANCH  21  23
ENDBRANCH  20  21
ENDBRANCH  19  20
ENDBRANCH  16  19
ENDBRANCH  15  16
ENDBRANCH  11  15
ENDBRANCH   1  12
BRANCH   4  24
ATOM     24  N   LIG    1        6.649  11.476   0.643  0.00  0.00    -0.720 N 
ATOM     25  H   LIG    1        5.813  11.624   0.174  0.00  0.00    +0.400 HD
ATOM     26  C   LIG    1        7.032  12.321   1.620  0.00  0.00    +0.520 C 
ATOM     27  O   LIG    1        8.078  12.136   2.207  0.00  0.00    -0.520 OA
BRANCH  26  28
ATOM     28  C   LIG    1        6.162  13.497   1.983  0.00  0.00    +0.130 C 
BRANCH  28  29
ATOM     29  C   LIG    1        6.813  14.279   3.096  0.00  0.00    -0.070 A 
ATOM     30  C   LIG    1        6.513  14.084   4.381  0.00  0.00    -0.030 A 
ATOM     31  S   LIG    1        7.466  15.171   5.381  0.00  0.00    +0.150 S 
ATOM     32  C   LIG    1        8.243  15.850   3.957  0.00  0.00    -0.010 A 
ATOM     33  C   LIG    1        7.772  15.249   2.862  0.00  0.00    -0.090 A 
ATOM     34 BR   LIG    1        8.366  15.695   1.123  0.00  0.00    -0.030 Br
ENDBRANCH  28  29
ENDBRANCH  26  28
ENDBRANCH   4  24
TORSDOF 11
