REMARK  Name = ZINCpk00000xHZa4.0
REMARK                            x       y       z     vdW  Elec       q    Type
REMARK                         _______ _______ _______ _____ _____    ______ ____
ROOT
ATOM      1  C   LIG    1       -2.486   0.946   0.020  0.00  0.00    +0.130 C 
ATOM      2  C   LIG    1       -1.197   1.728   0.017  0.00  0.00    -0.130 A 
ATOM      3  C   LIG    1       -0.013   1.076   0.008  0.00  0.00    +0.300 A 
ATOM      4  N   LIG    1        1.163   1.765   0.000  0.00  0.00    -0.440 N 
ATOM      5  C   LIG    1        2.329   1.080  -0.006  0.00  0.00    +0.550 A 
ATOM      6  C   LIG    1        3.544   1.811  -0.002  0.00  0.00    -0.360 A 
ATOM      7  C   LIG    1        3.482   3.224  -0.028  0.00  0.00    +0.500 A 
ATOM      8  N   LIG    1        4.652   3.953  -0.071  0.00  0.00    -0.490 N 
ATOM      9  C   LIG    1        5.796   3.354   0.441  0.00  0.00    +0.450 A 
ATOM     10  C   LIG    1        5.940   1.896   0.239  0.00  0.00    -0.180 A 
ATOM     11  N   LIG    1        6.707   4.050   1.073  0.00  0.00    -0.670 NA
ATOM     12  H   LIG    1        7.498   3.610   1.422  0.00  0.00    +0.350 HD
ATOM     13  N   LIG    1        2.304   3.828  -0.019  0.00  0.00    -0.570 NA
ATOM     14  C   LIG    1        4.783   1.152   0.037  0.00  0.00    +0.260 A 
ATOM     15  O   LIG    1        2.335  -0.138  -0.015  0.00  0.00    -0.500 OA
ATOM     16  C   LIG    1        1.166   3.133   0.001  0.00  0.00    +0.440 A 
ATOM     17  C   LIG    1       -0.058   3.828   0.019  0.00  0.00    +0.030 A 
ATOM     18  C   LIG    1       -1.228   3.129   0.030  0.00  0.00    +0.150 A 
ENDROOT
BRANCH  10  19
ATOM     19  C   LIG    1        7.229   1.271   0.252  0.00  0.00    +0.270 C 
ATOM     20  N   LIG    1        8.251   0.776   0.262  0.00  0.00    -0.420 NA
ENDBRANCH  10  19
BRANCH   8  21
ATOM     21  C   LIG    1        4.686   5.305  -0.634  0.00  0.00    +0.310 C 
BRANCH  21  22
ATOM     22  C   LIG    1        4.404   6.325   0.470  0.00  0.00    +0.160 C 
ATOM     23  C   LIG    1        4.319   7.743  -0.135  0.00  0.00    +0.010 C 
ATOM     24  C   LIG    1        5.036   8.603   0.942  0.00  0.00    +0.000 C 
ATOM     25  C   LIG    1        6.113   7.609   1.445  0.00  0.00    +0.190 C 
ATOM     26  O   LIG    1        5.476   6.322   1.420  0.00  0.00    -0.340 OA
ENDBRANCH  21  22
ENDBRANCH   8  21
TORSDOF 3
