REMARK  Name = ZINCvU00000007JZ.0
REMARK                            x       y       z     vdW  Elec       q    Type
REMARK                         _______ _______ _______ _____ _____    ______ ____
ROOT
ATOM      1  C   LIG    1       -2.578   4.144   0.037  0.00  0.00    +0.170 C 
ATOM      2  N   LIG    1       -1.351   3.751   0.035  0.00  0.00    -0.270 NA
ATOM      3  N   LIG    1       -1.197   2.366   0.021  0.00  0.00    -0.430 N 
ATOM      4  C   LIG    1       -2.529   1.739   0.024  0.00  0.00    +0.290 C 
ATOM      5  C   LIG    1       -3.494   2.941   0.035  0.00  0.00    +0.110 C 
ENDROOT
BRANCH   4   6
ATOM      6  C   LIG    1       -2.716   0.897   1.259  0.00  0.00    -0.070 A 
ATOM      7  C   LIG    1       -2.213   1.329   2.472  0.00  0.00    +0.030 A 
ATOM      8  C   LIG    1       -2.389   0.560   3.607  0.00  0.00    +0.020 A 
ATOM      9  C   LIG    1       -3.059  -0.648   3.527  0.00  0.00    -0.030 A 
ATOM     10  C   LIG    1       -3.558  -1.082   2.311  0.00  0.00    +0.040 A 
ATOM     11 CL   LIG    1       -3.275  -1.617   4.950  0.00  0.00    -0.070 Cl
ATOM     12  C   LIG    1       -3.386  -0.310   1.178  0.00  0.00    +0.060 A 
ENDBRANCH   4   6
BRANCH   1  17
ATOM     13  C   LIG    1       -2.504   7.901   0.057  0.00  0.00    +0.210 A 
ATOM     14  C   LIG    1       -3.862   8.194   0.065  0.00  0.00    -0.040 A 
ATOM     15  C   LIG    1       -4.795   7.173   0.064  0.00  0.00    +0.060 A 
ATOM     16  C   LIG    1       -4.384   5.857   0.055  0.00  0.00    -0.010 A 
ATOM     17  C   LIG    1       -3.021   5.551   0.046  0.00  0.00    +0.000 A 
ATOM     18  C   LIG    1       -2.079   6.581   0.053  0.00  0.00    -0.020 A 
BRANCH  13  20
ATOM     19  C   LIG    1       -2.014  10.331   0.068  0.00  0.00    +0.280 C 
ATOM     20  N   LIG    1       -1.566   8.936   0.059  0.00  0.00    -0.640 N 
ATOM     21  C   LIG    1       -0.134   8.627   0.051  0.00  0.00    +0.280 C 
ENDBRANCH  13  20
ENDBRANCH   1  17
BRANCH   3  22
ATOM     22  C   LIG    1       -0.021   1.708   0.011  0.00  0.00    +0.590 C 
ATOM     23  S   LIG    1        0.002  -0.004   0.002  0.00  0.00    -0.600 S 
BRANCH  22  24
ATOM     24  N   LIG    1        1.137   2.397   0.004  0.00  0.00    -0.670 N 
ATOM     25  H   LIG    1        1.124   3.367   0.009  0.00  0.00    +0.410 HD
BRANCH  24  26
ATOM     26  C   LIG    1        2.415   1.682  -0.012  0.00  0.00    +0.370 C 
BRANCH  26  27
ATOM     27  C   LIG    1        3.547   2.677  -0.017  0.00  0.00    -0.120 A 
ATOM     28  C   LIG    1        4.059   3.135  -1.217  0.00  0.00    +0.020 A 
ATOM     29  C   LIG    1        5.094   4.051  -1.222  0.00  0.00    +0.010 A 
ATOM     30  C   LIG    1        5.625   4.502  -0.028  0.00  0.00    +0.020 A 
ATOM     31  C   LIG    1        5.116   4.039   1.172  0.00  0.00    +0.010 A 
ATOM     32  C   LIG    1        4.078   3.127   1.177  0.00  0.00    +0.020 A 
ENDBRANCH  26  27
ENDBRANCH  24  26
ENDBRANCH  22  24
ENDBRANCH   3  22
TORSDOF 7
