REMARK  Name = ZINCnE000001I2We.0
REMARK                            x       y       z     vdW  Elec       q    Type
REMARK                         _______ _______ _______ _____ _____    ______ ____
ROOT
ATOM      1  C   LIG    1       -2.938  -2.115  -1.870  0.00  0.00    +0.330 A 
ATOM      2  C   LIG    1       -3.690  -2.681  -0.850  0.00  0.00    -0.150 A 
ATOM      3  C   LIG    1       -4.786  -3.466  -1.151  0.00  0.00    +0.070 A 
ATOM      4  C   LIG    1       -5.136  -3.703  -2.469  0.00  0.00    -0.120 A 
ATOM      5  C   LIG    1       -4.397  -3.154  -3.496  0.00  0.00    +0.070 A 
ATOM      6  C   LIG    1       -3.291  -2.354  -3.207  0.00  0.00    -0.120 A 
ENDROOT
BRANCH   6   7
ATOM      7  C   LIG    1       -2.495  -1.763  -4.301  0.00  0.00    +0.250 A 
ATOM      8  N   LIG    1       -1.437  -0.996  -4.169  0.00  0.00    -0.240 NA
ATOM      9  N   LIG    1       -1.004  -0.667  -5.335  0.00  0.00    -0.290 NA
ATOM     10  C   LIG    1       -1.761  -1.205  -6.250  0.00  0.00    +0.110 A 
ATOM     11  C   LIG    1       -1.592  -1.063  -7.740  0.00  0.00    +0.230 C 
ATOM     12  O   LIG    1       -2.717  -1.913  -5.623  0.00  0.00    -0.240 OA
ENDBRANCH   6   7
BRANCH   1  13
ATOM     13  N   LIG    1       -1.836  -1.319  -1.569  0.00  0.00    -1.040 NA
BRANCH  13  14
ATOM     14  S   LIG    1       -1.424  -1.039   0.011  0.00  0.00    +2.620 S 
ATOM     15  O   LIG    1       -2.477  -0.267   0.570  0.00  0.00    -1.020 OA
ATOM     16  O   LIG    1       -1.009  -2.289   0.544  0.00  0.00    -1.020 OA
BRANCH  14  20
ATOM     17  C   LIG    1        2.262   1.084  -0.014  0.00  0.00    -0.160 A 
ATOM     18  C   LIG    1        1.231   1.930   0.001  0.00  0.00    -0.020 A 
ATOM     19  C   LIG    1       -0.016   1.330   0.009  0.00  0.00    +0.130 A 
ATOM     20  C   LIG    1        0.002  -0.004   0.002  0.00  0.00    -0.710 A 
ATOM     21  S   LIG    1        1.667  -0.571  -0.017  0.00  0.00    +0.200 S 
BRANCH  17  23
ATOM     22  C   LIG    1        4.220   1.613   1.413  0.00  0.00    +0.030 C 
ATOM     23  C   LIG    1        3.715   1.484  -0.025  0.00  0.00    +0.110 C 
ENDBRANCH  17  23
ENDBRANCH  14  20
ENDBRANCH  13  14
ENDBRANCH   1  13
TORSDOF 5
