REMARK  Name = ZINCrD000000fAa8.0
REMARK                            x       y       z     vdW  Elec       q    Type
REMARK                         _______ _______ _______ _____ _____    ______ ____
ROOT
ATOM      1  C   LIG    1       -4.115   5.149  -1.518  0.00  0.00    +0.500 C 
ATOM      2  N   LIG    1       -4.731   5.369  -2.697  0.00  0.00    -0.680 N 
ATOM      3  H   LIG    1       -4.329   5.053  -3.521  0.00  0.00    +0.410 HD
ATOM      4  O   LIG    1       -4.568   5.626  -0.499  0.00  0.00    -0.470 OA
ENDROOT
BRANCH   2   5
ATOM      5  C   LIG    1       -5.947   6.051  -2.732  0.00  0.00    +0.190 A 
ATOM      6  C   LIG    1       -6.251   6.873  -3.813  0.00  0.00    -0.020 A 
ATOM      7  C   LIG    1       -7.450   7.548  -3.852  0.00  0.00    +0.090 A 
ATOM      8  C   LIG    1       -8.363   7.408  -2.803  0.00  0.00    -0.160 A 
ATOM      9  C   LIG    1       -8.055   6.582  -1.717  0.00  0.00    +0.040 A 
ATOM     10 CL   LIG    1       -9.185   6.404  -0.411  0.00  0.00    -0.020 Cl
ATOM     11  C   LIG    1       -6.855   5.904  -1.688  0.00  0.00    +0.020 A 
BRANCH   8  12
ATOM     12  C   LIG    1       -9.649   8.130  -2.841  0.00  0.00    +0.560 C 
ATOM     13  O   LIG    1      -10.443   8.008  -1.927  0.00  0.00    -0.520 OA
ATOM     14  N   LIG    1       -9.944   8.926  -3.888  0.00  0.00    -0.850 N 
ATOM     15  H   LIG    1      -10.790   9.401  -3.912  0.00  0.00    +0.410 HD
ATOM     16  H   LIG    1       -9.312   9.024  -4.616  0.00  0.00    +0.400 HD
ENDBRANCH   8  12
ENDBRANCH   2   5
BRANCH   1  17
ATOM     17  C   LIG    1       -2.864   4.310  -1.467  0.00  0.00    +0.060 C 
BRANCH  17  29
ATOM     18  C   LIG    1       -5.189   3.385   2.427  0.00  0.00    +0.100 C 
ATOM     19  C   LIG    1       -4.181   4.144   1.604  0.00  0.00    +0.510 C 
ATOM     20  N   LIG    1       -3.356   3.481   0.770  0.00  0.00    -0.560 N 
ATOM     21  C   LIG    1       -3.433   2.097   0.667  0.00  0.00    +0.240 C 
ATOM     22  C   LIG    1       -2.327   1.391   0.406  0.00  0.00    -0.040 C 
ATOM     23  C   LIG    1       -1.048   2.098   0.204  0.00  0.00    -0.030 A 
ATOM     24  C   LIG    1        0.160   1.404   0.196  0.00  0.00    +0.020 A 
ATOM     25  C   LIG    1        1.343   2.091   0.010  0.00  0.00    +0.020 A 
ATOM     26  C   LIG    1        1.330   3.464  -0.162  0.00  0.00    +0.010 A 
ATOM     27  C   LIG    1        0.132   4.159  -0.159  0.00  0.00    +0.030 A 
ATOM     28  C   LIG    1       -1.055   3.483   0.017  0.00  0.00    -0.100 A 
ATOM     29  C   LIG    1       -2.372   4.218  -0.022  0.00  0.00    +0.320 C 
ATOM     30  O   LIG    1       -4.111   5.352   1.693  0.00  0.00    -0.480 OA
ENDBRANCH  17  29
ENDBRANCH   1  17
TORSDOF 4
