REMARK  Name = ZINCpk00000GJKMe.1
REMARK                            x       y       z     vdW  Elec       q    Type
REMARK                         _______ _______ _______ _____ _____    ______ ____
ROOT
ATOM      1  C   LIG    1       -0.806   1.621  -1.210  0.00  0.00    +0.080 C 
ATOM      2  C   LIG    1       -1.245   3.021  -0.705  0.00  0.00    +0.060 C 
ATOM      3  C   LIG    1       -1.506   2.781   0.797  0.00  0.00    +0.260 C 
ATOM      4  N   LIG    1       -0.746   1.583   1.187  0.00  0.00    -0.620 N 
ATOM      5  C   LIG    1       -0.724   1.029   2.416  0.00  0.00    +0.500 C 
ATOM      6  O   LIG    1       -0.060   0.036   2.622  0.00  0.00    -0.520 OA
ATOM      7  C   LIG    1       -0.013   1.086   0.008  0.00  0.00    +0.270 C 
ENDROOT
BRANCH   1  11
ATOM      8  C   LIG    1        2.517   3.440  -4.614  0.00  0.00    +0.140 C 
ATOM      9  C   LIG    1        1.533   2.547  -3.901  0.00  0.00    +0.090 A 
ATOM     10  C   LIG    1        0.902   2.825  -2.737  0.00  0.00    -0.120 A 
ATOM     11  C   LIG    1        0.080   1.737  -2.423  0.00  0.00    +0.090 A 
ATOM     12  N   LIG    1        0.218   0.836  -3.362  0.00  0.00    -0.290 NA
ATOM     13  N   LIG    1        1.126   1.327  -4.309  0.00  0.00    -0.470 N 
ATOM     14  H   LIG    1        1.414   0.869  -5.114  0.00  0.00    +0.440 HD
ENDBRANCH   1  11
BRANCH   5  15
ATOM     15  C   LIG    1       -1.526   1.645   3.533  0.00  0.00    +0.270 C 
BRANCH  15  16
ATOM     16  N   LIG    1       -1.335   0.862   4.762  0.00  0.00    -0.460 N 
ATOM     17  C   LIG    1        0.050   0.954   5.234  0.00  0.00    +0.250 C 
ATOM     18  C   LIG    1        0.250   0.053   6.425  0.00  0.00    +0.530 C 
ATOM     19  N   LIG    1       -0.411  -1.124   6.487  0.00  0.00    -0.660 N 
ATOM     20  H   LIG    1       -0.286  -1.723   7.239  0.00  0.00    +0.410 HD
ATOM     21  C   LIG    1       -1.281  -1.461   5.439  0.00  0.00    +0.130 A 
ATOM     22  C   LIG    1       -1.685  -2.772   5.257  0.00  0.00    +0.010 A 
ATOM     23  C   LIG    1       -2.542  -3.092   4.219  0.00  0.00    +0.020 A 
ATOM     24  C   LIG    1       -2.994  -2.105   3.363  0.00  0.00    +0.020 A 
ATOM     25  C   LIG    1       -2.595  -0.793   3.539  0.00  0.00    -0.010 A 
ATOM     26  O   LIG    1        0.999   0.382   7.321  0.00  0.00    -0.520 OA
ATOM     27  C   LIG    1       -1.738  -0.463   4.578  0.00  0.00    +0.100 A 
ENDBRANCH  15  16
ENDBRANCH   5  15
TORSDOF 3
