REMARK  Name = ZINCpk00000GJKMe.0
REMARK                            x       y       z     vdW  Elec       q    Type
REMARK                         _______ _______ _______ _____ _____    ______ ____
ROOT
ATOM      1  C   LIG    1        3.626   0.702  -0.028  0.00  0.00    +0.080 C 
ATOM      2  C   LIG    1        4.193   0.865   1.407  0.00  0.00    +0.060 C 
ATOM      3  C   LIG    1        5.563   1.532   1.164  0.00  0.00    +0.250 C 
ATOM      4  N   LIG    1        5.502   2.188  -0.150  0.00  0.00    -0.620 N 
ATOM      5  C   LIG    1        6.508   2.865  -0.738  0.00  0.00    +0.500 C 
ATOM      6  O   LIG    1        6.345   3.368  -1.829  0.00  0.00    -0.520 OA
ATOM      7  C   LIG    1        4.158   1.982  -0.720  0.00  0.00    +0.260 C 
ENDROOT
BRANCH   1  13
ATOM      8  C   LIG    1       -1.206  -0.904   0.009  0.00  0.00    +0.150 C 
ATOM      9  C   LIG    1        0.002  -0.004   0.002  0.00  0.00    +0.080 A 
ATOM     10  N   LIG    1       -0.016   1.304   0.009  0.00  0.00    -0.290 NA
ATOM     11  N   LIG    1        1.309   1.760  -0.001  0.00  0.00    -0.470 N 
ATOM     12  H   LIG    1        1.593   2.687   0.001  0.00  0.00    +0.440 HD
ATOM     13  C   LIG    1        2.119   0.681  -0.015  0.00  0.00    +0.100 A 
ATOM     14  C   LIG    1        1.337  -0.423  -0.013  0.00  0.00    -0.110 A 
ENDBRANCH   1  13
BRANCH   5  15
ATOM     15  C   LIG    1        7.836   2.998  -0.038  0.00  0.00    +0.270 C 
BRANCH  15  16
ATOM     16  N   LIG    1        8.757   3.775  -0.878  0.00  0.00    -0.460 N 
ATOM     17  C   LIG    1        8.297   5.160  -1.020  0.00  0.00    +0.250 C 
ATOM     18  C   LIG    1        9.191   5.906  -1.977  0.00  0.00    +0.530 C 
ATOM     19  N   LIG    1        9.719   5.255  -3.037  0.00  0.00    -0.660 N 
ATOM     20  H   LIG    1       10.287   5.720  -3.671  0.00  0.00    +0.420 HD
ATOM     21  C   LIG    1        9.428   3.892  -3.201  0.00  0.00    +0.130 A 
ATOM     22  C   LIG    1        9.619   3.277  -4.426  0.00  0.00    +0.010 A 
ATOM     23  C   LIG    1        9.327   1.933  -4.575  0.00  0.00    +0.020 A 
ATOM     24  C   LIG    1        8.845   1.204  -3.503  0.00  0.00    +0.020 A 
ATOM     25  C   LIG    1        8.654   1.812  -2.276  0.00  0.00    -0.010 A 
ATOM     26  O   LIG    1        9.433   7.081  -1.798  0.00  0.00    -0.520 OA
ATOM     27  C   LIG    1        8.945   3.159  -2.117  0.00  0.00    +0.090 A 
ENDBRANCH  15  16
ENDBRANCH   5  15
TORSDOF 3
