REMARK  Name = ZINCvU0000000BRi.0
REMARK                            x       y       z     vdW  Elec       q    Type
REMARK                         _______ _______ _______ _____ _____    ______ ____
ROOT
ATOM      1  C   LIG    1       -4.321   5.828  -1.314  0.00  0.00    +0.480 C 
ATOM      2  N   LIG    1       -5.394   6.622  -1.497  0.00  0.00    -0.670 N 
ATOM      3  H   LIG    1       -5.995   6.803  -0.757  0.00  0.00    +0.410 HD
ATOM      4  O   LIG    1       -3.532   5.657  -2.220  0.00  0.00    -0.500 OA
ENDROOT
BRANCH   2   5
ATOM      5  C   LIG    1       -5.642   7.188  -2.755  0.00  0.00    +0.140 A 
ATOM      6  C   LIG    1       -4.582   7.587  -3.557  0.00  0.00    +0.040 A 
ATOM      7  C   LIG    1       -4.826   8.138  -4.800  0.00  0.00    +0.020 A 
ATOM      8  C   LIG    1       -6.131   8.305  -5.240  0.00  0.00    +0.070 A 
ATOM      9  C   LIG    1       -7.191   7.911  -4.436  0.00  0.00    +0.040 A 
ATOM     10  C   LIG    1       -6.947   7.354  -3.196  0.00  0.00    +0.000 A 
BRANCH   8  11
ATOM     11  O   LIG    1       -6.371   8.853  -6.461  0.00  0.00    -0.260 OA
BRANCH  11  12
ATOM     12  C   LIG    1       -6.162   8.081  -7.559  0.00  0.00    +0.120 A 
ATOM     13  C   LIG    1       -5.822   6.744  -7.415  0.00  0.00    -0.060 A 
ATOM     14  C   LIG    1       -5.614   5.960  -8.533  0.00  0.00    +0.050 A 
ATOM     15  C   LIG    1       -5.736   6.510  -9.796  0.00  0.00    -0.020 A 
ATOM     16  C   LIG    1       -6.070   7.843  -9.943  0.00  0.00    +0.050 A 
ATOM     17  C   LIG    1       -6.283   8.630  -8.828  0.00  0.00    -0.020 A 
ENDBRANCH  11  12
ENDBRANCH   8  11
ENDBRANCH   2   5
BRANCH   1  19
ATOM     18  C   LIG    1       -4.025   6.211   1.118  0.00  0.00    +0.070 C 
ATOM     19  C   LIG    1       -4.100   5.153   0.015  0.00  0.00    +0.180 C 
BRANCH  19  20
ATOM     20  N   LIG    1       -2.842   4.396  -0.024  0.00  0.00    -0.510 NA
ATOM     21  C   LIG    1       -2.920   3.294  -0.993  0.00  0.00    +0.200 C 
ATOM     22  C   LIG    1       -1.622   2.484  -0.945  0.00  0.00    +0.200 C 
ATOM     23  N   LIG    1       -0.485   3.366  -1.245  0.00  0.00    -0.490 N 
ATOM     24  C   LIG    1       -0.408   4.468  -0.276  0.00  0.00    +0.190 C 
ATOM     25  C   LIG    1       -1.705   5.278  -0.323  0.00  0.00    +0.190 C 
BRANCH  23  26
ATOM     26  C   LIG    1        0.712   2.645  -1.281  0.00  0.00    +0.100 A 
ATOM     27  C   LIG    1        1.145   1.958  -0.155  0.00  0.00    -0.010 A 
ATOM     28  C   LIG    1        2.332   1.252  -0.193  0.00  0.00    +0.020 A 
ATOM     29  C   LIG    1        3.088   1.228  -1.350  0.00  0.00    +0.020 A 
ATOM     30  C   LIG    1        2.660   1.911  -2.474  0.00  0.00    +0.030 A 
ATOM     31  C   LIG    1        1.474   2.619  -2.444  0.00  0.00    -0.010 A 
ATOM     32 CL   LIG    1        0.937   3.476  -3.855  0.00  0.00    -0.050 Cl
ENDBRANCH  23  26
ENDBRANCH  19  20
ENDBRANCH   1  19
TORSDOF 6
