REMARK  Name = ZINCvU0000000ASi.0
REMARK                            x       y       z     vdW  Elec       q    Type
REMARK                         _______ _______ _______ _____ _____    ______ ____
ROOT
ATOM      1  C   LIG    1        0.002  -0.004   0.002  0.00  0.00    -0.170 A 
ATOM      2  C   LIG    1       -0.017   1.380   0.010  0.00  0.00    +0.170 A 
ATOM      3  S   LIG    1        1.619   2.016  -0.003  0.00  0.00    +0.110 S 
ATOM      4  C   LIG    1        2.321   0.407  -0.018  0.00  0.00    -0.230 A 
ATOM      5  C   LIG    1        1.336  -0.552  -0.014  0.00  0.00    +0.100 A 
ENDROOT
BRANCH   4   6
ATOM      6  C   LIG    1        3.702   0.137  -0.032  0.00  0.00    +0.360 C 
ATOM      7  C   LIG    1        4.607   1.175  -0.035  0.00  0.00    -0.240 C 
ATOM      8  S   LIG    1        4.265   2.916  -0.023  0.00  0.00    -0.020 S 
ATOM      9  C   LIG    1        5.975   3.388  -0.035  0.00  0.00    +0.520 C 
ATOM     10  N   LIG    1        6.673   2.242  -0.048  0.00  0.00    -0.510 N 
ATOM     11  O   LIG    1        6.423   4.519  -0.033  0.00  0.00    -0.420 OA
ATOM     12  C   LIG    1        6.018   1.094  -0.043  0.00  0.00    +0.350 C 
ATOM     13  S   LIG    1        6.836  -0.410  -0.051  0.00  0.00    -0.470 S 
BRANCH  10  14
ATOM     14  C   LIG    1        8.137   2.264  -0.060  0.00  0.00    +0.300 C 
ATOM     15  C   LIG    1        8.660   2.264   1.378  0.00  0.00    +0.050 C 
ENDBRANCH  10  14
ENDBRANCH   4   6
BRANCH   5  16
ATOM     16  C   LIG    1        1.617  -2.004  -0.024  0.00  0.00    -0.070 A 
ATOM     17  C   LIG    1        1.265  -2.794   1.072  0.00  0.00    +0.040 A 
ATOM     18  C   LIG    1        1.524  -4.149   1.053  0.00  0.00    +0.010 A 
ATOM     19  C   LIG    1        2.143  -4.723  -0.044  0.00  0.00    +0.030 A 
ATOM     20  C   LIG    1        2.500  -3.944  -1.131  0.00  0.00    +0.010 A 
ATOM     21  C   LIG    1        2.241  -2.590  -1.127  0.00  0.00    +0.040 A 
ENDBRANCH   5  16
BRANCH   1  22
ATOM     22  C   LIG    1       -1.208  -0.827   0.009  0.00  0.00    +0.560 C 
ATOM     23  O   LIG    1       -1.721  -1.164  -1.041  0.00  0.00    -0.490 OA
BRANCH  22  24
ATOM     24  O   LIG    1       -1.755  -1.212   1.181  0.00  0.00    -0.340 OA
BRANCH  24  26
ATOM     25  C   LIG    1       -3.406  -2.350   2.530  0.00  0.00    +0.070 C 
ATOM     26  C   LIG    1       -2.936  -2.014   1.113  0.00  0.00    +0.200 C 
ENDBRANCH  24  26
ENDBRANCH  22  24
ENDBRANCH   1  22
BRANCH   2  27
ATOM     27  N   LIG    1       -1.135   2.135   0.019  0.00  0.00    -0.560 NA
ATOM     28  C   LIG    1       -1.044   3.440   0.026  0.00  0.00    +0.560 C 
BRANCH  28  29
ATOM     29  N   LIG    1       -2.173   4.202   0.035  0.00  0.00    -0.570 N 
ATOM     30  C   LIG    1       -2.071   5.663   0.043  0.00  0.00    +0.320 C 
ATOM     31  C   LIG    1       -3.490   3.560   0.038  0.00  0.00    +0.320 C 
ENDBRANCH  28  29
ENDBRANCH   2  27
TORSDOF 8
