REMARK  Name = ZINCpe000000XOMd.0
REMARK                            x       y       z     vdW  Elec       q    Type
REMARK                         _______ _______ _______ _____ _____    ______ ____
ROOT
ATOM      1  C   LIG    1        7.553   3.178   0.702  0.00  0.00    +0.110 C 
ATOM      2  C   LIG    1        6.169   2.594   0.821  0.00  0.00    -0.070 A 
ATOM      3  C   LIG    1        5.392   2.422  -0.308  0.00  0.00    +0.060 A 
ATOM      4  C   LIG    1        4.125   1.883  -0.203  0.00  0.00    +0.050 A 
ATOM      5  C   LIG    1        3.623   1.522   1.041  0.00  0.00    +0.160 A 
ATOM      6  C   LIG    1        4.401   1.693   2.177  0.00  0.00    +0.010 A 
ATOM      7  C   LIG    1        5.675   2.230   2.067  0.00  0.00    +0.140 A 
ENDROOT
BRANCH   7   8
ATOM      8  N   LIG    1        6.464   2.405   3.214  0.00  0.00    -0.330 N 
ATOM      9  N   LIG    1        7.806   2.026   3.392  0.00  0.00    -0.070 NA
ATOM     10  N   LIG    1        8.133   2.378   4.589  0.00  0.00    -0.030 NA
ATOM     11  N   LIG    1        7.134   2.929   5.178  0.00  0.00    -0.330 NA
ATOM     12  C   LIG    1        6.096   2.969   4.385  0.00  0.00    +0.250 A 
ATOM     13  C   LIG    1        4.740   3.539   4.715  0.00  0.00    +0.220 C 
ENDBRANCH   7   8
BRANCH   5  14
ATOM     14  N   LIG    1        2.337   0.980   1.147  0.00  0.00    -0.670 N 
ATOM     15  H   LIG    1        2.146   0.315   1.827  0.00  0.00    +0.410 HD
ATOM     16  C   LIG    1        1.365   1.382   0.306  0.00  0.00    +0.520 C 
ATOM     17  O   LIG    1        1.578   2.279  -0.483  0.00  0.00    -0.490 OA
BRANCH  16  18
ATOM     18  C   LIG    1        0.013   0.718   0.344  0.00  0.00    +0.190 C 
ATOM     19  C   LIG    1       -0.604   0.896   1.734  0.00  0.00    +0.030 C 
BRANCH  18  20
ATOM     20  N   LIG    1       -0.864   1.332  -0.662  0.00  0.00    -0.520 NA
ATOM     21  C   LIG    1       -1.060   2.763  -0.388  0.00  0.00    +0.180 C 
ATOM     22  C   LIG    1       -1.910   3.381  -1.499  0.00  0.00    +0.180 C 
ATOM     23  N   LIG    1       -3.200   2.680  -1.573  0.00  0.00    -0.550 NA
ATOM     24  C   LIG    1       -3.004   1.250  -1.847  0.00  0.00    +0.180 C 
ATOM     25  C   LIG    1       -4.076   3.294  -2.579  0.00  0.00    +0.190 C 
ATOM     26  C   LIG    1       -2.153   0.632  -0.736  0.00  0.00    +0.190 C 
ENDBRANCH  18  20
ENDBRANCH  16  18
ENDBRANCH   5  14
TORSDOF 4
