REMARK  Name = ZINCpe000014YKyd.0
REMARK                            x       y       z     vdW  Elec       q    Type
REMARK                         _______ _______ _______ _____ _____    ______ ____
ROOT
ATOM      1  C   LIG    1       -1.234   1.754   0.017  0.00  0.00    +0.170 A 
ATOM      2  C   LIG    1       -0.013   1.076   0.008  0.00  0.00    +0.010 A 
ATOM      3  C   LIG    1        1.174   1.777   0.000  0.00  0.00    +0.070 A 
ATOM      4  C   LIG    1        1.174   3.166   0.007  0.00  0.00    +0.110 A 
ATOM      5  C   LIG    1       -0.025   3.857   0.022  0.00  0.00    -0.130 A 
ATOM      6  C   LIG    1       -0.391   5.288   0.033  0.00  0.00    +0.570 C 
ATOM      7  O   LIG    1        0.388   6.220   0.030  0.00  0.00    -0.450 OA
ATOM      8  N   LIG    1       -1.733   5.385   0.046  0.00  0.00    -0.570 N 
ATOM      9  C   LIG    1       -2.306   4.168   0.045  0.00  0.00    +0.580 C 
ATOM     10  O   LIG    1       -3.501   3.948   0.055  0.00  0.00    -0.430 OA
ATOM     11  C   LIG    1       -1.245   3.147   0.030  0.00  0.00    -0.120 A 
ENDROOT
BRANCH   8  12
ATOM     12  C   LIG    1       -2.473   6.650   0.059  0.00  0.00    +0.270 C 
ATOM     13  C   LIG    1       -2.135   7.489  -1.190  0.00  0.00    +0.100 C 
ATOM     14  C   LIG    1       -1.522   8.748  -0.617  0.00  0.00    +0.540 C 
ATOM     15  N   LIG    1       -1.505   8.660   0.719  0.00  0.00    -0.670 N 
ATOM     16  H   LIG    1       -1.151   9.363   1.287  0.00  0.00    +0.420 HD
ATOM     17  O   LIG    1       -1.112   9.687  -1.264  0.00  0.00    -0.470 OA
ATOM     18  C   LIG    1       -2.015   7.523   1.207  0.00  0.00    +0.530 C 
ATOM     19  O   LIG    1       -2.097   7.237   2.382  0.00  0.00    -0.460 OA
ENDBRANCH   8  12
BRANCH   1  24
ATOM     20  C   LIG    1       -4.763  -2.280   0.083  0.00  0.00    +0.010 C 
ATOM     21  C   LIG    1       -4.269  -1.067   0.054  0.00  0.00    -0.120 C 
ATOM     22  C   LIG    1       -3.953  -0.382  -1.259  0.00  0.00    +0.090 C 
ATOM     23  C   LIG    1       -2.534   0.193  -1.171  0.00  0.00    +0.190 C 
ATOM     24  N   LIG    1       -2.426   1.045   0.020  0.00  0.00    -0.510 N 
ATOM     25  C   LIG    1       -2.573   0.266   1.256  0.00  0.00    +0.190 C 
ATOM     26  C   LIG    1       -3.994  -0.304   1.333  0.00  0.00    +0.090 C 
ENDBRANCH   1  24
TORSDOF 2
