REMARK  Name = ZINCtj00001LCZWd.0
REMARK                            x       y       z     vdW  Elec       q    Type
REMARK                         _______ _______ _______ _____ _____    ______ ____
ROOT
ATOM      1  O   LIG    1        0.883   0.527  -2.207  0.00  0.00    -0.510 OA
ATOM      2  C   LIG    1        1.600   1.495  -2.374  0.00  0.00    +0.570 C 
ATOM      3  N   LIG    1        1.816   2.371  -1.366  0.00  0.00    -0.740 N 
ATOM      4  H   LIG    1        2.224   3.239  -1.536  0.00  0.00    +0.410 HD
ATOM      5  C   LIG    1        1.416   1.991  -0.001  0.00  0.00    +0.280 C 
ATOM      6  C   LIG    1       -0.018   1.462   0.010  0.00  0.00    +0.260 C 
ATOM      7  N   LIG    1        0.002  -0.004   0.002  0.00  0.00    -0.680 N 
ATOM      8  H   LIG    1        0.651  -0.479   0.547  0.00  0.00    +0.400 HD
ATOM      9  C   LIG    1       -0.872  -0.698  -0.752  0.00  0.00    +0.510 C 
ATOM     10  C   LIG    1       -0.731  -2.192  -0.900  0.00  0.00    +0.100 C 
ATOM     11  C   LIG    1       -2.035  -2.785  -1.427  0.00  0.00    +0.290 C 
ATOM     12  N   LIG    1       -3.104  -2.623  -0.432  0.00  0.00    -0.510 N 
ATOM     13  C   LIG    1       -2.721  -3.302   0.813  0.00  0.00    +0.250 C 
ATOM     14  C   LIG    1       -1.433  -2.675   1.351  0.00  0.00    +0.260 C 
ATOM     15  H   LIG    1       -3.254  -1.643  -0.250  0.00  0.00    +0.430 HD
ATOM     16  H   LIG    1       -3.955  -3.032  -0.787  0.00  0.00    +0.440 HD
ATOM     17  C   LIG    1        0.407  -2.489  -1.885  0.00  0.00    +0.140 C 
ATOM     18  C   LIG    1       -0.144  -2.896  -3.221  0.00  0.00    -0.040 C 
ATOM     19  C   LIG    1        0.343  -2.436  -4.342  0.00  0.00    +0.010 C 
ATOM     20  C   LIG    1        1.493  -1.466  -4.377  0.00  0.00    +0.220 C 
ATOM     21  O   LIG    1        0.993  -0.145  -4.582  0.00  0.00    -0.310 OA
ATOM     22  C   LIG    1        1.889   0.855  -4.764  0.00  0.00    +0.160 A 
ATOM     23  C   LIG    1        2.490   1.039  -5.998  0.00  0.00    -0.010 A 
ATOM     24  C   LIG    1        3.397   2.064  -6.183  0.00  0.00    +0.070 A 
ATOM     25  C   LIG    1        3.709   2.918  -5.139  0.00  0.00    +0.010 A 
ATOM     26  C   LIG    1        3.126   2.747  -3.901  0.00  0.00    +0.060 A 
ATOM     27  O   LIG    1       -0.407  -2.772   0.364  0.00  0.00    -0.340 OA
ATOM     28  O   LIG    1       -1.778  -0.120  -1.316  0.00  0.00    -0.530 OA
ATOM     29  C   LIG    1        2.216   1.710  -3.699  0.00  0.00    -0.160 A 
ENDROOT
BRANCH   6  30
ATOM     30  C   LIG    1       -0.729   1.952   1.274  0.00  0.00    -0.020 C 
ATOM     31  C   LIG    1       -0.401   1.123   2.527  0.00  0.00    +0.010 C 
ATOM     32  C   LIG    1       -1.887   1.257   2.906  0.00  0.00    +0.010 C 
ATOM     33  C   LIG    1       -2.173   1.441   1.407  0.00  0.00    +0.010 C 
ENDBRANCH   6  30
TORSDOF 1
