REMARK  Name = ZINCtV000002AHy3.0
REMARK                            x       y       z     vdW  Elec       q    Type
REMARK                         _______ _______ _______ _____ _____    ______ ____
ROOT
ATOM      1  C   LIG    1        1.657  -1.863  -0.023  0.00  0.00    +0.270 C 
ENDROOT
BRANCH   1   4
ATOM      2  C   LIG    1        1.740   1.777  -0.005  0.00  0.00    +0.110 A 
ATOM      3  N   LIG    1        2.178   0.551  -0.016  0.00  0.00    -0.450 NA
ATOM      4  C   LIG    1        1.277  -0.405  -0.012  0.00  0.00    +0.080 A 
ATOM      5  C   LIG    1        0.002  -0.004   0.002  0.00  0.00    -0.100 A 
ATOM      6  S   LIG    1       -0.022   1.758   0.012  0.00  0.00    +0.150 S 
BRANCH   2  13
ATOM      7  C   LIG    1        1.993   4.260  -0.000  0.00  0.00    +0.160 A 
ATOM      8  C   LIG    1        2.792   5.391   0.003  0.00  0.00    -0.050 A 
ATOM      9  C   LIG    1        4.169   5.266  -0.012  0.00  0.00    +0.110 A 
ATOM     10  C   LIG    1        4.758   4.013  -0.024  0.00  0.00    -0.130 A 
ATOM     11  C   LIG    1        3.974   2.876  -0.021  0.00  0.00    +0.150 A 
ATOM     12 BR   LIG    1        6.643   3.858  -0.044  0.00  0.00    -0.040 Br
ATOM     13  C   LIG    1        2.584   2.990  -0.007  0.00  0.00    -0.050 A 
BRANCH   7  15
ATOM     14  C   LIG    1        0.108   5.707   0.015  0.00  0.00    +0.250 C 
ATOM     15  O   LIG    1        0.640   4.381   0.008  0.00  0.00    -0.310 OA
ENDBRANCH   7  15
ENDBRANCH   2  13
ENDBRANCH   1   4
BRANCH   1  16
ATOM     16  N   LIG    1        1.884  -2.300  -1.407  0.00  0.00    -0.670 NA
ATOM     17  H   LIG    1        1.074  -2.119  -1.981  0.00  0.00    +0.350 HD
BRANCH  16  18
ATOM     18  C   LIG    1        2.258  -3.720  -1.457  0.00  0.00    +0.230 C 
BRANCH  18  19
ATOM     19  C   LIG    1        3.743  -3.856  -1.239  0.00  0.00    -0.070 A 
ATOM     20  C   LIG    1        4.613  -2.954  -1.822  0.00  0.00    +0.050 A 
ATOM     21  C   LIG    1        5.975  -3.077  -1.618  0.00  0.00    -0.010 A 
ATOM     22  C   LIG    1        6.467  -4.108  -0.839  0.00  0.00    +0.000 A 
ATOM     23  C   LIG    1        5.596  -5.013  -0.260  0.00  0.00    +0.000 A 
ATOM     24  C   LIG    1        4.234  -4.887  -0.460  0.00  0.00    +0.000 A 
ENDBRANCH  18  19
BRANCH  18  25
ATOM     25  C   LIG    1        1.894  -4.288  -2.805  0.00  0.00    -0.090 A 
ATOM     26  C   LIG    1        2.091  -3.536  -3.948  0.00  0.00    +0.030 A 
ATOM     27  C   LIG    1        1.761  -4.059  -5.184  0.00  0.00    +0.000 A 
ATOM     28  C   LIG    1        1.225  -5.330  -5.277  0.00  0.00    +0.000 A 
ATOM     29  C   LIG    1        1.023  -6.080  -4.133  0.00  0.00    +0.000 A 
ATOM     30  C   LIG    1        1.357  -5.559  -2.897  0.00  0.00    +0.010 A 
ENDBRANCH  18  25
ENDBRANCH  16  18
ENDBRANCH   1  16
TORSDOF 7
