REMARK  Name = ZINCrD00000F5Lo2.0
REMARK                            x       y       z     vdW  Elec       q    Type
REMARK                         _______ _______ _______ _____ _____    ______ ____
ROOT
ATOM      1  C   LIG    1        0.179   0.076  -2.944  0.00  0.00    +0.510 C 
ATOM      2  N   LIG    1        0.278   1.263  -2.314  0.00  0.00    -0.730 N 
ATOM      3  H   LIG    1        0.774   1.990  -2.723  0.00  0.00    +0.400 HD
ATOM      4  O   LIG    1       -0.442  -0.832  -2.433  0.00  0.00    -0.520 OA
ENDROOT
BRANCH   2   5
ATOM      5  C   LIG    1       -0.366   1.458  -1.012  0.00  0.00    +0.320 C 
ATOM      6  C   LIG    1        0.562   0.959   0.102  0.00  0.00    +0.030 C 
ATOM      7  C   LIG    1        0.008   1.394   1.462  0.00  0.00    +0.020 C 
ATOM      8  C   LIG    1        0.162   2.912   1.616  0.00  0.00    +0.100 C 
ATOM      9  C   LIG    1       -0.393   3.574   0.379  0.00  0.00    -0.220 A 
ATOM     10  C   LIG    1       -0.753   4.909   0.211  0.00  0.00    +0.230 A 
ATOM     11  N   LIG    1       -1.191   5.061  -1.014  0.00  0.00    -0.290 NA
ATOM     12  N   LIG    1       -1.123   3.820  -1.663  0.00  0.00    -0.350 N 
ATOM     13  C   LIG    1       -0.630   2.926  -0.790  0.00  0.00    +0.060 A 
BRANCH  12  14
ATOM     14  C   LIG    1       -1.518   3.546  -3.047  0.00  0.00    +0.250 C 
ATOM     15  C   LIG    1       -0.682   4.407  -3.996  0.00  0.00    +0.050 C 
ATOM     16  C   LIG    1       -3.000   3.879  -3.229  0.00  0.00    +0.050 C 
ENDBRANCH  12  14
ENDBRANCH   2   5
BRANCH   1  17
ATOM     17  C   LIG    1        0.841  -0.124  -4.283  0.00  0.00    +0.110 C 
BRANCH  17  21
ATOM     18  C   LIG    1        0.106  -4.103  -5.657  0.00  0.00    +0.150 A 
ATOM     19  C   LIG    1       -0.775  -3.080  -5.984  0.00  0.00    -0.010 A 
ATOM     20  C   LIG    1       -0.535  -1.796  -5.538  0.00  0.00    +0.040 A 
ATOM     21  C   LIG    1        0.582  -1.527  -4.767  0.00  0.00    -0.090 A 
ATOM     22  C   LIG    1        1.464  -2.542  -4.445  0.00  0.00    +0.040 A 
ATOM     23  C   LIG    1        1.226  -3.830  -4.883  0.00  0.00    +0.010 A 
BRANCH  18  25
ATOM     24  C   LIG    1        0.224  -6.458  -5.345  0.00  0.00    +0.540 C 
ATOM     25  N   LIG    1       -0.135  -5.406  -6.106  0.00  0.00    -0.670 N 
ATOM     26  H   LIG    1       -0.560  -5.551  -6.966  0.00  0.00    +0.410 HD
ATOM     27  O   LIG    1        0.668  -6.277  -4.227  0.00  0.00    -0.520 OA
BRANCH  24  29
ATOM     28  C   LIG    1        0.431  -8.865  -5.114  0.00  0.00    +0.160 C 
ATOM     29  C   LIG    1        0.077  -7.826  -5.865  0.00  0.00    -0.090 C 
ENDBRANCH  24  29
ENDBRANCH  18  25
ENDBRANCH  17  21
ENDBRANCH   1  17
TORSDOF 6
