REMARK  Name = ZINCtV000002EATS.0
REMARK                            x       y       z     vdW  Elec       q    Type
REMARK                         _______ _______ _______ _____ _____    ______ ____
ROOT
ATOM      1  S   LIG    1       -2.557   5.612   0.055  0.00  0.00    +0.070 S 
ENDROOT
BRANCH   1   2
ATOM      2  C   LIG    1       -2.477   3.852   0.044  0.00  0.00    +0.190 A 
ATOM      3  N   LIG    1       -3.583   3.119   0.034  0.00  0.00    -0.510 NA
ATOM      4  C   LIG    1       -3.536   1.797   0.027  0.00  0.00    +0.260 A 
ATOM      5  N   LIG    1       -2.411   1.122   0.019  0.00  0.00    -0.460 NA
ATOM      6  C   LIG    1       -1.233   1.764   0.017  0.00  0.00    +0.170 A 
ATOM      7  C   LIG    1       -0.013   1.076   0.008  0.00  0.00    +0.060 A 
ATOM      8  C   LIG    1        1.157   1.778   0.001  0.00  0.00    +0.070 A 
ATOM      9  C   LIG    1        1.157   3.169   0.008  0.00  0.00    +0.040 A 
ATOM     10  C   LIG    1       -0.013   3.870   0.022  0.00  0.00    +0.060 A 
ATOM     11  C   LIG    1       -1.229   3.180   0.030  0.00  0.00    -0.120 A 
BRANCH   4  12
ATOM     12  C   LIG    1       -4.834   1.031   0.028  0.00  0.00    +0.550 C 
ATOM     13  F   LIG    1       -4.589  -0.302  -0.321  0.00  0.00    -0.150 F 
ATOM     14  F   LIG    1       -5.713   1.601  -0.898  0.00  0.00    -0.160 F 
ATOM     15  F   LIG    1       -5.404   1.081   1.305  0.00  0.00    -0.160 F 
ENDBRANCH   4  12
ENDBRANCH   1   2
BRANCH   1  17
ATOM     16  C   LIG    1       -4.925   5.299   1.381  0.00  0.00    +0.100 C 
ATOM     17  C   LIG    1       -4.352   5.845   0.072  0.00  0.00    +0.110 C 
BRANCH  17  18
ATOM     18  C   LIG    1       -4.669   7.314  -0.041  0.00  0.00    +0.300 A 
ATOM     19  N   LIG    1       -4.078   8.258   0.632  0.00  0.00    -0.460 NA
ATOM     20  C   LIG    1       -4.603   9.462   0.286  0.00  0.00    +0.050 A 
ATOM     21  C   LIG    1       -4.345  10.775   0.686  0.00  0.00    +0.080 A 
ATOM     22  C   LIG    1       -5.064  11.805   0.147  0.00  0.00    +0.020 A 
ATOM     23  C   LIG    1       -6.051  11.560  -0.797  0.00  0.00    +0.050 A 
ATOM     24  C   LIG    1       -6.322  10.272  -1.208  0.00  0.00    +0.020 A 
ATOM     25  C   LIG    1       -5.602   9.214  -0.670  0.00  0.00    +0.060 A 
ATOM     26  N   LIG    1       -5.620   7.846  -0.856  0.00  0.00    -0.540 N 
BRANCH  26  27
ATOM     27  C   LIG    1       -6.499   7.104  -1.764  0.00  0.00    +0.650 C 
ATOM     28  F   LIG    1       -5.846   5.948  -2.204  0.00  0.00    -0.170 F 
ATOM     29  F   LIG    1       -6.818   7.908  -2.864  0.00  0.00    -0.170 F 
ENDBRANCH  26  27
ENDBRANCH  17  18
ENDBRANCH   1  17
TORSDOF 5
