REMARK  Name = ZINCpk000004OdKn.0
REMARK                            x       y       z     vdW  Elec       q    Type
REMARK                         _______ _______ _______ _____ _____    ______ ____
ROOT
ATOM      1  C   LIG    1       -0.014   1.209   0.009  0.00  0.00    +0.510 C 
ATOM      2  N   LIG    1       -1.191   1.867   0.018  0.00  0.00    -0.600 N 
ATOM      3  C   LIG    1       -1.176   3.342   0.032  0.00  0.00    +0.240 C 
ATOM      4  C   LIG    1       -2.232   3.939  -0.922  0.00  0.00    +0.020 C 
ATOM      5  C   LIG    1       -2.285   3.145  -2.204  0.00  0.00    +0.040 C 
ATOM      6  C   LIG    1       -3.338   2.048  -2.076  0.00  0.00    +0.010 C 
ATOM      7  C   LIG    1       -2.852   0.814  -1.439  0.00  0.00    +0.240 C 
ATOM      8  C   LIG    1       -2.415   1.097   0.019  0.00  0.00    +0.280 C 
ATOM      9  O   LIG    1        0.002  -0.004   0.002  0.00  0.00    -0.480 OA
ENDROOT
BRANCH   1  14
ATOM     10  C   LIG    1        3.769   3.390  -2.573  0.00  0.00    +0.180 C 
ATOM     11  C   LIG    1        2.959   2.588  -1.588  0.00  0.00    +0.080 C 
ATOM     12  N   LIG    1        3.410   1.673  -0.821  0.00  0.00    -0.280 NA
ATOM     13  O   LIG    1        2.414   1.088  -0.006  0.00  0.00    -0.170 OA
ATOM     14  C   LIG    1        1.280   1.980   0.001  0.00  0.00    +0.130 C 
ATOM     15  C   LIG    1        1.470   2.732  -1.339  0.00  0.00    +0.080 C 
ENDBRANCH   1  14
BRANCH   7  16
ATOM     16  N   LIG    1       -3.924  -0.185  -1.438  0.00  0.00    -0.690 N 
ATOM     17  H   LIG    1       -4.851   0.098  -1.459  0.00  0.00    +0.410 HD
BRANCH  16  18
ATOM     18  C   LIG    1       -3.612  -1.534  -1.408  0.00  0.00    +0.570 A 
ATOM     19  N   LIG    1       -2.340  -1.901  -1.380  0.00  0.00    -0.540 NA
ATOM     20  C   LIG    1       -2.005  -3.183  -1.350  0.00  0.00    +0.390 A 
ATOM     21  C   LIG    1       -3.006  -4.134  -1.349  0.00  0.00    -0.310 A 
ATOM     22  C   LIG    1       -3.011  -5.641  -1.321  0.00  0.00    +0.290 C 
ATOM     23  O   LIG    1       -4.340  -6.025  -0.919  0.00  0.00    -0.350 OA
ATOM     24  C   LIG    1       -5.190  -4.954  -1.371  0.00  0.00    +0.310 C 
ATOM     25  C   LIG    1       -4.329  -3.715  -1.379  0.00  0.00    +0.180 A 
ATOM     26  N   LIG    1       -4.596  -2.424  -1.402  0.00  0.00    -0.550 NA
ENDBRANCH  16  18
ENDBRANCH   7  16
TORSDOF 3
