REMARK  Name = ZINCpe000000Xwkq.0
REMARK                            x       y       z     vdW  Elec       q    Type
REMARK                         _______ _______ _______ _____ _____    ______ ____
ROOT
ATOM      1  C   LIG    1        0.265  -6.385  -0.090  0.00  0.00    +0.210 C 
ENDROOT
BRANCH   1   2
ATOM      2  O   LIG    1        0.554  -6.641  -1.465  0.00  0.00    -0.540 OA
ATOM      3  H   LIG    1       -0.205  -6.531  -2.054  0.00  0.00    +0.380 HD
ENDBRANCH   1   2
BRANCH   1   4
ATOM      4  C   LIG    1       -0.822  -7.348   0.391  0.00  0.00    +0.300 C 
BRANCH   4  10
ATOM      5  C   LIG    1       -0.763 -11.988  -0.340  0.00  0.00    +0.090 C 
ATOM      6  C   LIG    1        0.245 -10.838  -0.303  0.00  0.00    +0.150 C 
ATOM      7  N   LIG    1        0.686 -10.579   1.078  0.00  0.00    -0.720 N 
ATOM      8  H   LIG    1        1.151 -11.197   1.663  0.00  0.00    +0.440 HD
ATOM      9  C   LIG    1        0.317  -9.319   1.370  0.00  0.00    +0.700 C 
ATOM     10  N   LIG    1       -0.310  -8.721   0.351  0.00  0.00    -0.570 N 
ATOM     11  O   LIG    1        0.530  -8.784   2.441  0.00  0.00    -0.540 OA
ATOM     12  C   LIG    1       -0.419  -9.539  -0.714  0.00  0.00    +0.540 C 
ATOM     13  O   LIG    1       -0.939  -9.287  -1.780  0.00  0.00    -0.450 OA
BRANCH   6  14
ATOM     14  C   LIG    1        1.444 -11.142  -1.203  0.00  0.00    -0.040 C 
ATOM     15  C   LIG    1        1.321 -12.322  -2.169  0.00  0.00    +0.050 C 
ATOM     16  C   LIG    1        2.220 -12.434  -0.935  0.00  0.00    +0.040 C 
ENDBRANCH   6  14
ENDBRANCH   4  10
ENDBRANCH   1   4
BRANCH   1  17
ATOM     17  C   LIG    1       -0.224  -4.944   0.069  0.00  0.00    +0.180 C 
BRANCH  17  18
ATOM     18  O   LIG    1        0.832  -4.043  -0.269  0.00  0.00    -0.300 OA
BRANCH  18  19
ATOM     19  C   LIG    1        0.561  -2.713  -0.181  0.00  0.00    +0.140 A 
ATOM     20  C   LIG    1       -0.695  -2.288   0.223  0.00  0.00    -0.060 A 
ATOM     21  C   LIG    1       -0.973  -0.936   0.315  0.00  0.00    +0.080 A 
ATOM     22  C   LIG    1        0.002  -0.004   0.002  0.00  0.00    -0.010 A 
ATOM     23  O   LIG    1       -0.016   1.362   0.009  0.00  0.00    -0.310 OA
ATOM     24  C   LIG    1        1.366   1.765  -0.002  0.00  0.00    +0.430 C 
ATOM     25  O   LIG    1        2.036   0.669  -0.652  0.00  0.00    -0.300 OA
ATOM     26  C   LIG    1        1.265  -0.429  -0.405  0.00  0.00    +0.080 A 
ATOM     27  C   LIG    1        1.541  -1.783  -0.495  0.00  0.00    +0.020 A 
ENDBRANCH  18  19
ENDBRANCH  17  18
ENDBRANCH   1  17
TORSDOF 7
