REMARK  Name = ZINCpe000000XuIn.0
REMARK                            x       y       z     vdW  Elec       q    Type
REMARK                         _______ _______ _______ _____ _____    ______ ____
ROOT
ATOM      1  C   LIG    1       -0.753   1.593  -1.232  0.00  0.00    +0.330 C 
ENDROOT
BRANCH   1  11
ATOM      2  C   LIG    1       -0.588  -1.428  -5.060  0.00  0.00    +0.100 C 
ATOM      3  C   LIG    1        0.337  -0.547  -4.218  0.00  0.00    +0.180 C 
ATOM      4  O   LIG    1        0.769   0.571  -4.998  0.00  0.00    -0.300 OA
ATOM      5  C   LIG    1        1.360   1.594  -4.324  0.00  0.00    +0.080 A 
ATOM      6  C   LIG    1        2.362   2.343  -4.916  0.00  0.00    +0.030 A 
ATOM      7  C   LIG    1        2.942   3.386  -4.224  0.00  0.00    +0.030 A 
ATOM      8  C   LIG    1        2.536   3.677  -2.934  0.00  0.00    +0.020 A 
ATOM      9  C   LIG    1        1.539   2.931  -2.333  0.00  0.00    +0.000 A 
ATOM     10  C   LIG    1        0.946   1.889  -3.027  0.00  0.00    +0.090 A 
ATOM     11  N   LIG    1       -0.067   1.120  -2.437  0.00  0.00    -0.550 N 
ATOM     12  C   LIG    1       -0.405  -0.060  -3.000  0.00  0.00    +0.490 C 
ATOM     13  O   LIG    1       -1.302  -0.725  -2.527  0.00  0.00    -0.500 OA
ENDBRANCH   1  11
BRANCH   1  14
ATOM     14  C   LIG    1       -0.013   1.086   0.008  0.00  0.00    +0.040 C 
BRANCH  14  15
ATOM     15  C   LIG    1       -0.718   1.572   1.248  0.00  0.00    +0.520 C 
ATOM     16  N   LIG    1       -0.242   1.246   2.466  0.00  0.00    -0.720 N 
ATOM     17  H   LIG    1        0.555   0.699   2.544  0.00  0.00    +0.400 HD
ATOM     18  O   LIG    1       -1.714   2.256   1.150  0.00  0.00    -0.530 OA
BRANCH  16  19
ATOM     19  C   LIG    1       -0.927   1.718   3.671  0.00  0.00    +0.190 C 
ATOM     20  C   LIG    1       -2.380   1.240   3.635  0.00  0.00    +0.080 C 
ATOM     21  C   LIG    1       -2.467  -0.136   4.345  0.00  0.00    -0.300 C 
ATOM     22  S   LIG    1       -1.374   0.141   5.797  0.00  0.00    +2.380 S 
ATOM     23  O   LIG    1       -2.060   0.912   6.774  0.00  0.00    -0.920 OA
ATOM     24  O   LIG    1       -0.749  -1.081   6.165  0.00  0.00    -0.930 OA
ATOM     25  C   LIG    1       -0.912   3.248   3.683  0.00  0.00    +0.060 C 
ATOM     26  C   LIG    1       -0.175   1.203   4.907  0.00  0.00    -0.300 C 
ENDBRANCH  16  19
ENDBRANCH  14  15
ENDBRANCH   1  14
TORSDOF 4
