REMARK  Name = ZINCrD000006fitz.0
REMARK                            x       y       z     vdW  Elec       q    Type
REMARK                         _______ _______ _______ _____ _____    ______ ____
ROOT
ATOM      1  C   LIG    1       -0.346   3.750  -3.093  0.00  0.00    +0.560 C 
ATOM      2  N   LIG    1       -1.033   3.631  -1.940  0.00  0.00    -0.600 N 
ATOM      3  C   LIG    1       -1.372   4.847  -1.205  0.00  0.00    +0.280 C 
ATOM      4  C   LIG    1       -0.644   4.856   0.144  0.00  0.00    +0.070 C 
ATOM      5  C   LIG    1       -1.416   3.991   1.116  0.00  0.00    -0.090 A 
ATOM      6  C   LIG    1       -2.105   4.588   2.158  0.00  0.00    +0.030 A 
ATOM      7  C   LIG    1       -2.802   3.808   3.057  0.00  0.00    -0.020 A 
ATOM      8  C   LIG    1       -2.821   2.429   2.908  0.00  0.00    +0.100 A 
ATOM      9  C   LIG    1       -2.132   1.837   1.859  0.00  0.00    -0.010 A 
ATOM     10  C   LIG    1       -1.429   2.627   0.968  0.00  0.00    -0.060 A 
ATOM     11  C   LIG    1       -0.680   1.975  -0.173  0.00  0.00    +0.020 C 
ATOM     12  C   LIG    1        0.748   2.521  -0.228  0.00  0.00    +0.030 C 
ATOM     13  C   LIG    1       -1.404   2.295  -1.486  0.00  0.00    +0.290 C 
ATOM     14  O   LIG    1       -0.129   2.767  -3.775  0.00  0.00    -0.530 OA
ENDROOT
BRANCH   1  18
ATOM     15  C   LIG    1        1.063   7.555  -4.345  0.00  0.00    +0.160 A 
ATOM     16  C   LIG    1        1.207   7.164  -3.017  0.00  0.00    +0.000 A 
ATOM     17  C   LIG    1        0.752   5.931  -2.608  0.00  0.00    +0.060 A 
ATOM     18  C   LIG    1        0.144   5.072  -3.528  0.00  0.00    -0.130 A 
ATOM     19  C   LIG    1        0.006   5.466  -4.862  0.00  0.00    +0.090 A 
ATOM     20  C   LIG    1        0.458   6.702  -5.263  0.00  0.00    +0.020 A 
BRANCH  15  22
ATOM     21  C   LIG    1        2.551   8.890  -5.627  0.00  0.00    +0.550 C 
ATOM     22  N   LIG    1        1.526   8.804  -4.756  0.00  0.00    -0.580 N 
ATOM     23  C   LIG    1        0.898  10.023  -4.241  0.00  0.00    +0.300 C 
ATOM     24  O   LIG    1        3.014   7.880  -6.122  0.00  0.00    -0.520 OA
BRANCH  21  26
ATOM     25  C   LIG    1        4.120  10.288  -6.838  0.00  0.00    +0.160 C 
ATOM     26  C   LIG    1        3.109  10.204  -5.978  0.00  0.00    -0.090 C 
ENDBRANCH  21  26
ENDBRANCH  15  22
ENDBRANCH   1  18
BRANCH   8  27
ATOM     27  O   LIG    1       -3.514   1.659   3.788  0.00  0.00    -0.500 OA
ATOM     28  H   LIG    1       -2.996   1.371   4.552  0.00  0.00    +0.390 HD
ENDBRANCH   8  27
TORSDOF 4
