REMARK  Name = ZINCkj000005iwQB.0
REMARK                            x       y       z     vdW  Elec       q    Type
REMARK                         _______ _______ _______ _____ _____    ______ ____
ROOT
ATOM      1  C   LIG    1       -0.130   3.986  -1.035  0.00  0.00    +0.170 C 
ATOM      2  C   LIG    1        1.174   3.197  -1.175  0.00  0.00    +0.010 C 
ATOM      3  C   LIG    1        1.278   2.183  -0.031  0.00  0.00    +0.300 C 
ATOM      4  N   LIG    1        0.067   1.351  -0.026  0.00  0.00    -0.600 N 
ATOM      5  C   LIG    1       -1.245   2.012   0.009  0.00  0.00    +0.240 C 
ATOM      6  C   LIG    1        0.157   0.007  -0.058  0.00  0.00    +0.530 C 
ATOM      7  O   LIG    1       -0.843  -0.671   0.049  0.00  0.00    -0.520 OA
ATOM      8  C   LIG    1       -1.320   3.028  -1.129  0.00  0.00    +0.030 C 
ENDROOT
BRANCH   1  10
ATOM      9  C   LIG    1        0.412   5.962   0.209  0.00  0.00    +0.220 C 
ATOM     10  O   LIG    1       -0.152   4.649   0.231  0.00  0.00    -0.390 OA
ENDBRANCH   1  10
BRANCH   5  11
ATOM     11  C   LIG    1       -2.350   0.969  -0.164  0.00  0.00    +0.300 C 
BRANCH  11  12
ATOM     12  N   LIG    1       -3.658   1.637  -0.170  0.00  0.00    -0.640 N 
ATOM     13  H   LIG    1       -4.390   0.944  -0.200  0.00  0.00    +0.440 HD
ATOM     14  H   LIG    1       -3.727   2.234  -0.981  0.00  0.00    +0.430 HD
ATOM     15  H   LIG    1       -3.756   2.193   0.666  0.00  0.00    +0.430 HD
ENDBRANCH  11  12
ENDBRANCH   5  11
BRANCH   6  16
ATOM     16  C   LIG    1        1.501  -0.654  -0.227  0.00  0.00    +0.220 C 
BRANCH  16  17
ATOM     17  O   LIG    1        1.337  -2.074  -0.231  0.00  0.00    -0.360 OA
BRANCH  17  18
ATOM     18  C   LIG    1        2.558  -2.800  -0.386  0.00  0.00    +0.150 C 
ATOM     19  C   LIG    1        2.825  -3.036  -1.874  0.00  0.00    -0.010 C 
ATOM     20  C   LIG    1        4.132  -3.813  -2.041  0.00  0.00    +0.010 C 
ATOM     21  C   LIG    1        4.020  -5.160  -1.323  0.00  0.00    +0.010 C 
ATOM     22  C   LIG    1        3.753  -4.923   0.165  0.00  0.00    +0.010 C 
ATOM     23  C   LIG    1        2.445  -4.146   0.332  0.00  0.00    +0.020 C 
ENDBRANCH  17  18
ENDBRANCH  16  17
ENDBRANCH   6  16
TORSDOF 6
