REMARK  Name = ZINCrH00000tj1jS.0
REMARK                            x       y       z     vdW  Elec       q    Type
REMARK                         _______ _______ _______ _____ _____    ______ ____
ROOT
ATOM      1  C   LIG    1        2.353  -4.805  -0.046  0.00  0.00    +0.070 C 
ENDROOT
BRANCH   1   2
ATOM      2  C   LIG    1        2.872  -6.213  -0.183  0.00  0.00    +0.550 C 
ATOM      3  N   LIG    1        2.082  -7.176  -0.697  0.00  0.00    -0.600 N 
ATOM      4  C   LIG    1        0.706  -6.878  -1.125  0.00  0.00    +0.260 C 
ATOM      5  C   LIG    1        0.519  -7.423  -2.550  0.00  0.00    +0.220 C 
ATOM      6  O   LIG    1        0.909  -8.798  -2.582  0.00  0.00    -0.380 OA
ATOM      7  C   LIG    1        2.287  -9.022  -2.274  0.00  0.00    +0.220 C 
ATOM      8  C   LIG    1        2.567  -8.558  -0.840  0.00  0.00    +0.270 C 
ATOM      9  O   LIG    1        4.002  -6.479   0.169  0.00  0.00    -0.520 OA
ENDBRANCH   1   2
BRANCH   1  10
ATOM     10  C   LIG    1        1.595  -4.673   1.250  0.00  0.00    -0.090 A 
ATOM     11  C   LIG    1        2.233  -4.916   2.451  0.00  0.00    +0.030 A 
ATOM     12  C   LIG    1        1.540  -4.791   3.640  0.00  0.00    +0.000 A 
ATOM     13  C   LIG    1        0.205  -4.431   3.627  0.00  0.00    +0.010 A 
ATOM     14  C   LIG    1       -0.435  -4.192   2.425  0.00  0.00    +0.000 A 
ATOM     15  C   LIG    1        0.260  -4.313   1.236  0.00  0.00    +0.050 A 
ENDBRANCH   1  10
BRANCH   1  16
ATOM     16  S   LIG    1        3.743  -3.646  -0.054  0.00  0.00    +0.070 S 
BRANCH  16  25
ATOM     17  N   LIG    1        3.446  -0.880  -0.036  0.00  0.00    -0.470 N 
ATOM     18  C   LIG    1        2.421   0.053  -0.021  0.00  0.00    +0.060 A 
ATOM     19  C   LIG    1        2.384   1.439  -0.013  0.00  0.00    +0.010 A 
ATOM     20  C   LIG    1        1.168   2.093   0.002  0.00  0.00    +0.030 A 
ATOM     21  C   LIG    1       -0.017   1.373   0.010  0.00  0.00    +0.000 A 
ATOM     22  C   LIG    1        0.002  -0.004   0.002  0.00  0.00    +0.060 A 
ATOM     23  C   LIG    1        1.224  -0.681  -0.013  0.00  0.00    +0.060 A 
ATOM     24  N   LIG    1        1.561  -1.997  -0.024  0.00  0.00    -0.480 NA
ATOM     25  C   LIG    1        2.866  -2.117  -0.037  0.00  0.00    +0.250 A 
BRANCH  17  27
ATOM     26  C   LIG    1        5.368  -0.486  -1.495  0.00  0.00    +0.040 C 
ATOM     27  C   LIG    1        4.882  -0.593  -0.048  0.00  0.00    +0.290 C 
ENDBRANCH  17  27
ENDBRANCH  16  25
ENDBRANCH   1  16
TORSDOF 5
