REMARK  Name = ZINCqH0000000u8R.0
REMARK                            x       y       z     vdW  Elec       q    Type
REMARK                         _______ _______ _______ _____ _____    ______ ____
ROOT
ATOM      1  N   LIG    1       -6.189  -1.006   0.016  0.00  0.00    -0.670 N 
ATOM      2  H   LIG    1       -6.162  -1.974   0.055  0.00  0.00    +0.410 HD
ATOM      3  C   LIG    1       -5.052  -0.306  -0.170  0.00  0.00    +0.520 C 
ATOM      4  O   LIG    1       -5.097   0.897  -0.312  0.00  0.00    -0.520 OA
ENDROOT
BRANCH   1   9
ATOM      5  C   LIG    1       -9.784  -0.239  -0.198  0.00  0.00    +0.160 A 
ATOM      6  C   LIG    1       -9.822   1.003   0.424  0.00  0.00    -0.030 A 
ATOM      7  C   LIG    1       -8.658   1.572   0.906  0.00  0.00    +0.050 A 
ATOM      8  C   LIG    1       -7.454   0.908   0.771  0.00  0.00    +0.010 A 
ATOM      9  C   LIG    1       -7.409  -0.334   0.151  0.00  0.00    +0.160 A 
ATOM     10  C   LIG    1       -8.575  -0.906  -0.339  0.00  0.00    -0.010 A 
BRANCH   5  13
ATOM     11  C   LIG    1      -12.444  -2.759  -1.056  0.00  0.00    +0.110 C 
ATOM     12  C   LIG    1      -11.135  -2.149  -0.627  0.00  0.00    +0.510 C 
ATOM     13  N   LIG    1      -10.962  -0.814  -0.686  0.00  0.00    -0.680 N 
ATOM     14  H   LIG    1      -11.654  -0.252  -1.067  0.00  0.00    +0.410 HD
ATOM     15  O   LIG    1      -10.237  -2.860  -0.228  0.00  0.00    -0.530 OA
ENDBRANCH   5  13
ENDBRANCH   1   9
BRANCH   3  16
ATOM     16  C   LIG    1       -3.725  -1.020  -0.201  0.00  0.00    +0.080 C 
BRANCH  16  17
ATOM     17  C   LIG    1       -2.604  -0.003  -0.423  0.00  0.00    +0.070 C 
BRANCH  17  18
ATOM     18  C   LIG    1       -1.277  -0.717  -0.454  0.00  0.00    +0.400 C 
ATOM     19  O   LIG    1       -1.233  -1.920  -0.312  0.00  0.00    -0.450 OA
BRANCH  18  20
ATOM     20  C   LIG    1       -0.036   0.046  -0.657  0.00  0.00    -0.170 A 
ATOM     21  C   LIG    1       -0.082   1.434  -0.821  0.00  0.00    +0.070 A 
ATOM     22  C   LIG    1        1.087   2.140  -1.010  0.00  0.00    +0.010 A 
ATOM     23  C   LIG    1        2.307   1.483  -1.038  0.00  0.00    -0.060 A 
ATOM     24  C   LIG    1        3.707   2.029  -1.228  0.00  0.00    +0.080 C 
ATOM     25  C   LIG    1        4.571   0.806  -1.603  0.00  0.00    +0.030 C 
ATOM     26  C   LIG    1        3.799  -0.359  -0.947  0.00  0.00    +0.080 C 
ATOM     27  C   LIG    1        2.361   0.108  -0.876  0.00  0.00    -0.110 A 
ATOM     28  C   LIG    1        1.197  -0.611  -0.686  0.00  0.00    +0.080 A 
ENDBRANCH  18  20
ENDBRANCH  17  18
ENDBRANCH  16  17
ENDBRANCH   3  16
TORSDOF 6
