REMARK  Name = ZINCb80000002IeN.0
REMARK                            x       y       z     vdW  Elec       q    Type
REMARK                         _______ _______ _______ _____ _____    ______ ____
ROOT
ATOM      1  C   LIG    1       -0.875   5.496   0.040  0.00  0.00    -0.040 A 
ATOM      2  C   LIG    1       -1.522   4.297   0.040  0.00  0.00    +0.090 A 
ATOM      3  C   LIG    1       -0.768   3.109   0.026  0.00  0.00    +0.280 A 
ATOM      4  N   LIG    1       -1.106   1.825   0.017  0.00  0.00    -0.550 NA
ATOM      5  C   LIG    1       -0.013   1.076   0.008  0.00  0.00    +0.470 A 
ATOM      6  N   LIG    1        1.050   1.847   0.002  0.00  0.00    -0.340 NA
ATOM      7  N   LIG    1        0.597   3.173   0.013  0.00  0.00    -0.290 N 
ATOM      8  C   LIG    1        1.234   4.374   0.014  0.00  0.00    +0.290 A 
ATOM      9  C   LIG    1        0.527   5.527   0.026  0.00  0.00    +0.010 A 
ENDROOT
BRANCH   1  10
ATOM     10  C   LIG    1       -1.661   6.781   0.054  0.00  0.00    +0.260 C 
BRANCH  10  11
ATOM     11  O   LIG    1       -3.059   6.484   0.066  0.00  0.00    -0.570 OA
ATOM     12  H   LIG    1       -3.627   7.266   0.075  0.00  0.00    +0.390 HD
ENDBRANCH  10  11
ENDBRANCH   1  10
TORSDOF 2
