REMARK  Name = ZINCtV000002GRwX.0
REMARK                            x       y       z     vdW  Elec       q    Type
REMARK                         _______ _______ _______ _____ _____    ______ ____
ROOT
ATOM      1  C   LIG    1        1.214  -3.894   2.787  0.00  0.00    +0.510 C 
ATOM      2  N   LIG    1        0.861  -5.064   2.218  0.00  0.00    -0.730 N 
ATOM      3  H   LIG    1        0.112  -5.569   2.572  0.00  0.00    +0.400 HD
ATOM      4  O   LIG    1        2.149  -3.263   2.343  0.00  0.00    -0.520 OA
ENDROOT
BRANCH   2   5
ATOM      5  C   LIG    1        1.606  -5.572   1.064  0.00  0.00    +0.240 C 
ATOM      6  C   LIG    1        1.050  -4.949  -0.218  0.00  0.00    +0.020 C 
BRANCH   5   7
ATOM      7  C   LIG    1        1.464  -7.094   0.994  0.00  0.00    -0.060 C 
ATOM      8  C   LIG    1        2.021  -7.717   2.276  0.00  0.00    +0.020 C 
ATOM      9  C   LIG    1        1.879  -9.239   2.207  0.00  0.00    -0.020 C 
ATOM     10  C   LIG    1        0.401  -9.607   2.061  0.00  0.00    +0.010 C 
ATOM     11  C   LIG    1       -0.156  -8.984   0.779  0.00  0.00    -0.020 C 
ATOM     12  C   LIG    1        0.623  -9.514  -0.426  0.00  0.00    +0.010 C 
ATOM     13  C   LIG    1        2.101  -9.146  -0.280  0.00  0.00    -0.020 C 
ATOM     14  C   LIG    1        2.658  -9.770   1.001  0.00  0.00    +0.010 C 
ATOM     15  C   LIG    1       -0.014  -7.462   0.849  0.00  0.00    +0.030 C 
ATOM     16  C   LIG    1        2.243  -7.625  -0.211  0.00  0.00    +0.030 C 
ENDBRANCH   5   7
ENDBRANCH   2   5
BRANCH   1  17
ATOM     17  C   LIG    1        0.447  -3.372   3.974  0.00  0.00    +0.130 C 
BRANCH  17  23
ATOM     18  C   LIG    1        0.552   3.458   3.039  0.00  0.00    +0.090 C 
ATOM     19  C   LIG    1        0.617   1.983   3.341  0.00  0.00    -0.060 A 
ATOM     20  C   LIG    1       -0.176   1.100   2.623  0.00  0.00    -0.090 A 
ATOM     21  C   LIG    1       -0.123  -0.252   2.885  0.00  0.00    +0.060 A 
ATOM     22  C   LIG    1        0.729  -0.727   3.880  0.00  0.00    -0.110 A 
ATOM     23  C   LIG    1        1.038  -2.058   4.416  0.00  0.00    -0.160 A 
ATOM     24  C   LIG    1        1.953  -1.871   5.377  0.00  0.00    +0.220 A 
ATOM     25  O   LIG    1        2.241  -0.563   5.493  0.00  0.00    -0.190 OA
ATOM     26  C   LIG    1        1.529   0.167   4.611  0.00  0.00    +0.050 A 
ATOM     27  C   LIG    1        1.460   1.526   4.332  0.00  0.00    +0.020 A 
BRANCH  20  28
ATOM     28  C   LIG    1       -1.095   1.621   1.548  0.00  0.00    +0.030 C 
ATOM     29  C   LIG    1       -2.520   1.130   1.813  0.00  0.00    +0.030 C 
ATOM     30  C   LIG    1       -0.625   1.111   0.184  0.00  0.00    +0.030 C 
ENDBRANCH  20  28
ENDBRANCH  17  23
ENDBRANCH   1  17
TORSDOF 5
