REMARK  Name = ZINCpe000000XrDn.0
REMARK                            x       y       z     vdW  Elec       q    Type
REMARK                         _______ _______ _______ _____ _____    ______ ____
ROOT
ATOM      1  C   LIG    1        7.753   2.877  -0.059  0.00  0.00    -0.690 A 
ATOM      2  C   LIG    1        8.408   1.659  -0.073  0.00  0.00    +0.160 A 
ATOM      3  C   LIG    1        7.686   0.478  -0.072  0.00  0.00    +0.010 A 
ATOM      4  C   LIG    1        6.307   0.510  -0.052  0.00  0.00    +0.110 A 
ATOM      5  C   LIG    1        5.640   1.736  -0.044  0.00  0.00    -0.150 A 
ATOM      6  C   LIG    1        6.374   2.923  -0.044  0.00  0.00    +0.200 A 
ENDROOT
BRANCH   5   7
ATOM      7  C   LIG    1        4.162   1.777  -0.029  0.00  0.00    +0.560 C 
ATOM      8  N   LIG    1        3.456   0.629  -0.028  0.00  0.00    -0.620 N 
ATOM      9  H   LIG    1        3.917  -0.224  -0.038  0.00  0.00    +0.420 HD
ATOM     10  O   LIG    1        3.584   2.847  -0.017  0.00  0.00    -0.470 OA
BRANCH   8  11
ATOM     11  C   LIG    1        2.059   0.668  -0.014  0.00  0.00    +0.440 A 
ATOM     12  N   LIG    1        1.325   1.756  -0.001  0.00  0.00    -0.290 NA
ATOM     13  N   LIG    1       -0.016   1.340   0.009  0.00  0.00    -0.480 N 
ATOM     14  H   LIG    1       -0.801   1.909   0.016  0.00  0.00    +0.450 HD
ATOM     15  C   LIG    1        0.002  -0.004   0.002  0.00  0.00    +0.520 A 
ATOM     16  N   LIG    1        1.250  -0.396  -0.012  0.00  0.00    -0.560 NA
ENDBRANCH   8  11
ENDBRANCH   5   7
BRANCH   1  17
ATOM     17  S   LIG    1        8.682   4.375  -0.059  0.00  0.00    +2.690 S 
ATOM     18  O   LIG    1        7.826   5.378  -0.589  0.00  0.00    -0.940 OA
ATOM     19  O   LIG    1        9.950   4.060  -0.618  0.00  0.00    -0.950 OA
BRANCH  17  23
ATOM     20  C   LIG    1        6.846   5.892   4.459  0.00  0.00    +0.070 C 
ATOM     21  C   LIG    1        7.673   4.945   3.587  0.00  0.00    +0.140 C 
ATOM     22  C   LIG    1        8.013   5.638   2.258  0.00  0.00    +0.280 C 
ATOM     23  N   LIG    1        8.956   4.782   1.522  0.00  0.00    -1.000 NA
ATOM     24  C   LIG    1       10.154   4.303   2.231  0.00  0.00    +0.280 C 
ATOM     25  C   LIG    1        9.712   3.679   3.559  0.00  0.00    +0.130 C 
ATOM     26  C   LIG    1       10.944   3.348   4.404  0.00  0.00    +0.070 C 
ATOM     27  O   LIG    1        8.886   4.609   4.265  0.00  0.00    -0.370 OA
ENDBRANCH  17  23
ENDBRANCH   1  17
TORSDOF 4
