REMARK  Name = ZINCqH0000050K2e.0
REMARK                            x       y       z     vdW  Elec       q    Type
REMARK                         _______ _______ _______ _____ _____    ______ ____
ROOT
ATOM      1  N   LIG    1       -0.464  -6.016  -1.060  0.00  0.00    -0.670 N 
ATOM      2  H   LIG    1       -0.227  -6.240  -0.146  0.00  0.00    +0.410 HD
ATOM      3  C   LIG    1       -0.086  -4.832  -1.583  0.00  0.00    +0.720 C 
ATOM      4  N   LIG    1        0.518  -3.913  -0.804  0.00  0.00    -0.630 N 
ATOM      5  C   LIG    1        0.826  -4.070   0.630  0.00  0.00    +0.260 C 
ATOM      6  C   LIG    1        0.911  -2.624   1.178  0.00  0.00    +0.010 C 
ATOM      7  C   LIG    1        1.579  -1.880  -0.009  0.00  0.00    +0.070 C 
ATOM      8  C   LIG    1        0.979  -2.588  -1.242  0.00  0.00    +0.290 C 
ATOM      9  O   LIG    1       -0.291  -4.593  -2.757  0.00  0.00    -0.560 OA
ENDROOT
BRANCH   1  16
ATOM     10  C   LIG    1       -0.342  -8.780  -0.390  0.00  0.00    +0.140 C 
ATOM     11  C   LIG    1       -1.169  -8.280  -1.546  0.00  0.00    +0.100 A 
ATOM     12  N   LIG    1       -1.858  -9.136  -2.274  0.00  0.00    -0.420 NA
ATOM     13  C   LIG    1       -2.594  -8.745  -3.296  0.00  0.00    +0.010 A 
ATOM     14  C   LIG    1       -2.672  -7.410  -3.645  0.00  0.00    +0.050 A 
ATOM     15  C   LIG    1       -1.968  -6.474  -2.904  0.00  0.00    +0.080 A 
ATOM     16  C   LIG    1       -1.196  -6.922  -1.835  0.00  0.00    +0.160 A 
BRANCH  13  17
ATOM     17  C   LIG    1       -3.362  -9.767  -4.093  0.00  0.00    +0.530 C 
ATOM     18  F   LIG    1       -2.858  -9.816  -5.397  0.00  0.00    -0.170 F 
ATOM     19  F   LIG    1       -4.714  -9.412  -4.128  0.00  0.00    -0.170 F 
ATOM     20  F   LIG    1       -3.226 -11.024  -3.494  0.00  0.00    -0.160 F 
ENDBRANCH  13  17
ENDBRANCH   1  16
BRANCH   7  21
ATOM     21  C   LIG    1        1.208  -0.420   0.001  0.00  0.00    -0.100 A 
ATOM     22  C   LIG    1       -0.058  -0.001   0.008  0.00  0.00    -0.050 A 
ATOM     23  S   LIG    1       -0.098   1.758   0.018  0.00  0.00    +0.110 S 
ATOM     24  C   LIG    1        1.660   1.827   0.012  0.00  0.00    -0.040 A 
ATOM     25  C   LIG    1        2.156   0.589   0.003  0.00  0.00    +0.010 A 
ENDBRANCH   7  21
BRANCH   6  26
ATOM     26  C   LIG    1        1.791  -2.562   2.428  0.00  0.00    +0.200 C 
BRANCH  26  27
ATOM     27  O   LIG    1        1.096  -3.154   3.528  0.00  0.00    -0.570 OA
ATOM     28  H   LIG    1        1.595  -3.150   4.356  0.00  0.00    +0.390 HD
ENDBRANCH  26  27
ENDBRANCH   6  26
TORSDOF 5
