REMARK  Name = ZINCkj000005hUlM.0
REMARK                            x       y       z     vdW  Elec       q    Type
REMARK                         _______ _______ _______ _____ _____    ______ ____
ROOT
ATOM      1  O   LIG    1       -0.971   5.405   2.702  0.00  0.00    -0.300 OA
ENDROOT
BRANCH   1   5
ATOM      2  C   LIG    1       -2.376   7.253   6.116  0.00  0.00    -0.160 A 
ATOM      3  C   LIG    1       -1.741   8.004   5.123  0.00  0.00    +0.140 A 
ATOM      4  C   LIG    1       -1.274   7.384   3.986  0.00  0.00    +0.000 A 
ATOM      5  C   LIG    1       -1.433   6.013   3.825  0.00  0.00    +0.160 A 
ATOM      6  C   LIG    1       -2.068   5.262   4.807  0.00  0.00    -0.090 A 
ATOM      7  C   LIG    1       -2.533   5.873   5.950  0.00  0.00    +0.130 A 
BRANCH   2   8
ATOM      8  C   LIG    1       -2.878   7.912   7.336  0.00  0.00    +0.510 C 
ATOM      9  O   LIG    1       -2.740   9.111   7.478  0.00  0.00    -0.500 OA
BRANCH   8  11
ATOM     10  C   LIG    1       -3.958   7.902   9.465  0.00  0.00    +0.290 C 
ATOM     11  O   LIG    1       -3.489   7.186   8.292  0.00  0.00    -0.360 OA
ENDBRANCH   8  11
ENDBRANCH   2   8
ENDBRANCH   1   5
BRANCH   1  12
ATOM     12  C   LIG    1       -1.167   3.994   2.601  0.00  0.00    +0.190 C 
BRANCH  12  13
ATOM     13  C   LIG    1       -0.586   3.492   1.278  0.00  0.00    +0.220 C 
BRANCH  13  14
ATOM     14  O   LIG    1       -1.321   4.055   0.190  0.00  0.00    -0.540 OA
ATOM     15  H   LIG    1       -2.261   3.829   0.192  0.00  0.00    +0.390 HD
ENDBRANCH  13  14
BRANCH  13  16
ATOM     16  C   LIG    1       -0.683   1.966   1.224  0.00  0.00    +0.240 C 
BRANCH  16  17
ATOM     17  N   LIG    1       -0.018   1.475   0.010  0.00  0.00    -0.390 N 
ATOM     18  C   LIG    1        1.405   1.899  -0.001  0.00  0.00    +0.260 C 
ATOM     19  C   LIG    1        2.070   0.885  -0.966  0.00  0.00    +0.080 C 
ATOM     20  C   LIG    1        1.333  -0.434  -0.643  0.00  0.00    +0.060 C 
ATOM     21  C   LIG    1        0.002  -0.004   0.002  0.00  0.00    +0.250 C 
ATOM     22  H   LIG    1       -0.491   1.821  -0.811  0.00  0.00    +0.430 HD
ENDBRANCH  16  17
ENDBRANCH  13  16
ENDBRANCH  12  13
ENDBRANCH   1  12
TORSDOF 8
