REMARK  Name = ZINCvU0000000FOE.0
REMARK                            x       y       z     vdW  Elec       q    Type
REMARK                         _______ _______ _______ _____ _____    ______ ____
ROOT
ATOM      1  C   LIG    1        1.334  10.299   0.048  0.00  0.00    +0.150 C 
ENDROOT
BRANCH   1   5
ATOM      2  O   LIG    1        0.965  14.457  -2.181  0.00  0.00    -0.460 OA
ATOM      3  C   LIG    1        0.736  13.805  -1.179  0.00  0.00    +0.500 A 
ATOM      4  C   LIG    1        1.214  12.486  -1.075  0.00  0.00    -0.060 A 
ATOM      5  C   LIG    1        0.975  11.762   0.060  0.00  0.00    +0.040 A 
ATOM      6  C   LIG    1        0.405  12.410   1.174  0.00  0.00    -0.150 A 
ATOM      7  C   LIG    1       -0.149  13.690   0.987  0.00  0.00    +0.180 A 
ATOM      8  C   LIG    1       -0.944  14.266   1.984  0.00  0.00    +0.010 A 
ATOM      9  C   LIG    1       -1.143  13.654   3.174  0.00  0.00    +0.120 A 
ATOM     10  C   LIG    1       -0.497  12.439   3.475  0.00  0.00    -0.080 A 
ATOM     11  C   LIG    1       -0.692  11.818   4.717  0.00  0.00    +0.060 A 
ATOM     12  C   LIG    1        0.096  10.767   5.078  0.00  0.00    +0.010 A 
ATOM     13  C   LIG    1        1.092  10.313   4.221  0.00  0.00    +0.040 A 
ATOM     14  C   LIG    1        1.255  10.861   2.980  0.00  0.00    +0.000 A 
ATOM     15  C   LIG    1        0.401  11.868   2.531  0.00  0.00    +0.010 A 
ATOM     16  O   LIG    1        0.026  14.349  -0.177  0.00  0.00    -0.260 OA
ENDBRANCH   1   5
BRANCH   1  17
ATOM     17  S   LIG    1       -0.177   9.307  -0.039  0.00  0.00    +0.110 S 
BRANCH  17  18
ATOM     18  C   LIG    1        0.519   7.689  -0.038  0.00  0.00    +0.130 A 
ATOM     19  N   LIG    1        1.796   7.392   0.013  0.00  0.00    -0.280 NA
ATOM     20  N   LIG    1        1.941   6.114  -0.005  0.00  0.00    -0.260 NA
ATOM     21  C   LIG    1        0.762   5.543  -0.068  0.00  0.00    +0.220 A 
ATOM     22  O   LIG    1       -0.163   6.528  -0.096  0.00  0.00    -0.200 OA
BRANCH  21  23
ATOM     23  C   LIG    1        0.495   4.091  -0.108  0.00  0.00    -0.020 A 
ATOM     24  C   LIG    1       -0.818   3.623  -0.176  0.00  0.00    +0.080 A 
ATOM     25  C   LIG    1       -1.065   2.266  -0.218  0.00  0.00    +0.050 A 
ATOM     26  C   LIG    1       -0.013   1.363  -0.183  0.00  0.00    +0.060 A 
ATOM     27  O   LIG    1        0.006  -0.002  -0.207  0.00  0.00    -0.300 OA
ATOM     28  C   LIG    1        1.316  -0.377   0.258  0.00  0.00    +0.440 C 
ATOM     29  O   LIG    1        2.141   0.748  -0.098  0.00  0.00    -0.300 OA
ATOM     30  C   LIG    1        1.302   1.825  -0.115  0.00  0.00    +0.030 A 
ATOM     31  C   LIG    1        1.556   3.183  -0.078  0.00  0.00    +0.100 A 
ENDBRANCH  21  23
ENDBRANCH  17  18
ENDBRANCH   1  17
TORSDOF 4
