REMARK  Name = ZINCpk00000eb94w.0
REMARK                            x       y       z     vdW  Elec       q    Type
REMARK                         _______ _______ _______ _____ _____    ______ ____
ROOT
ATOM      1  C   LIG    1        1.298  -2.171  -0.021  0.00  0.00    +0.120 C 
ENDROOT
BRANCH   1   4
ATOM      2  C   LIG    1        3.737  -0.602  -0.036  0.00  0.00    +0.140 C 
ATOM      3  C   LIG    1        2.396   0.085  -0.020  0.00  0.00    +0.210 A 
ATOM      4  C   LIG    1        1.236  -0.665  -0.013  0.00  0.00    -0.300 A 
ATOM      5  C   LIG    1        0.002  -0.004   0.002  0.00  0.00    +0.510 A 
ATOM      6  N   LIG    1       -0.016   1.346   0.009  0.00  0.00    -0.430 N 
ATOM      7  C   LIG    1       -1.209   2.003   0.030  0.00  0.00    +0.280 A 
ATOM      8  C   LIG    1       -1.253   3.355   0.033  0.00  0.00    -0.010 A 
ATOM      9  C   LIG    1       -0.064   4.098   0.025  0.00  0.00    +0.120 A 
ATOM     10  C   LIG    1        1.134   3.450   0.010  0.00  0.00    +0.030 A 
ATOM     11  C   LIG    1        1.160   2.043   0.002  0.00  0.00    +0.390 A 
ATOM     12  O   LIG    1       -1.041  -0.638   0.009  0.00  0.00    -0.520 OA
ATOM     13  N   LIG    1        2.330   1.407  -0.013  0.00  0.00    -0.540 NA
ENDBRANCH   1   4
BRANCH   1  14
ATOM     14  C   LIG    1        1.207  -2.693   1.414  0.00  0.00    +0.170 C 
BRANCH  14  15
ATOM     15  N   LIG    1        1.267  -4.160   1.406  0.00  0.00    -0.520 NA
ATOM     16  C   LIG    1        2.352  -4.638   0.536  0.00  0.00    +0.140 C 
ATOM     17  C   LIG    1        2.341  -6.169   0.510  0.00  0.00    +0.220 C 
ATOM     18  O   LIG    1        2.461  -6.664   1.847  0.00  0.00    -0.390 OA
ATOM     19  C   LIG    1        1.420  -6.219   2.721  0.00  0.00    +0.240 C 
ATOM     20  C   LIG    1        1.422  -4.689   2.769  0.00  0.00    +0.120 C 
BRANCH  20  21
ATOM     21  C   LIG    1        0.261  -4.204   3.640  0.00  0.00    +0.150 C 
ATOM     22  C   LIG    1        0.468  -4.643   5.106  0.00  0.00    +0.000 C 
ATOM     23  C   LIG    1       -0.955  -4.990   5.598  0.00  0.00    +0.010 C 
ATOM     24  C   LIG    1       -1.853  -4.720   4.371  0.00  0.00    +0.190 C 
ATOM     25  O   LIG    1       -0.971  -4.840   3.234  0.00  0.00    -0.350 OA
ENDBRANCH  20  21
ENDBRANCH  14  15
ENDBRANCH   1  14
TORSDOF 4
