REMARK  Name = ZINCqH0000003Fko.0
REMARK                            x       y       z     vdW  Elec       q    Type
REMARK                         _______ _______ _______ _____ _____    ______ ____
ROOT
ATOM      1  C   LIG    1       -1.594   6.517   1.671  0.00  0.00    +0.560 C 
ATOM      2  N   LIG    1       -1.465   5.691   0.614  0.00  0.00    -0.590 N 
ATOM      3  C   LIG    1       -2.658   5.134  -0.030  0.00  0.00    +0.300 C 
ATOM      4  O   LIG    1       -0.614   7.064   2.137  0.00  0.00    -0.520 OA
ENDROOT
BRANCH   1   7
ATOM      5  C   LIG    1       -5.125   6.010   2.879  0.00  0.00    +0.320 A 
ATOM      6  C   LIG    1       -3.886   5.741   2.312  0.00  0.00    +0.000 A 
ATOM      7  C   LIG    1       -2.929   6.757   2.265  0.00  0.00    -0.050 A 
ATOM      8  C   LIG    1       -3.264   8.006   2.800  0.00  0.00    -0.010 A 
ATOM      9  C   LIG    1       -4.520   8.191   3.341  0.00  0.00    +0.310 A 
ATOM     10  N   LIG    1       -5.399   7.208   3.368  0.00  0.00    -0.530 NA
BRANCH   5  11
ATOM     11  O   LIG    1       -6.065   5.033   2.931  0.00  0.00    -0.300 OA
BRANCH  11  13
ATOM     12  C   LIG    1       -8.244   4.153   3.495  0.00  0.00    +0.070 C 
ATOM     13  C   LIG    1       -7.320   5.371   3.526  0.00  0.00    +0.210 C 
ENDBRANCH  11  13
ENDBRANCH   5  11
ENDBRANCH   1   7
BRANCH   2  14
ATOM     14  C   LIG    1       -0.133   5.350   0.108  0.00  0.00    +0.370 C 
BRANCH  14  15
ATOM     15  C   LIG    1        0.028   3.852   0.086  0.00  0.00    +0.120 A 
ATOM     16  C   LIG    1        1.293   3.300   0.156  0.00  0.00    -0.020 A 
ATOM     17  C   LIG    1        1.430   1.920   0.134  0.00  0.00    +0.070 A 
ATOM     18  C   LIG    1        0.284   1.145   0.043  0.00  0.00    -0.030 A 
ATOM     19  C   LIG    1       -0.947   1.768  -0.029  0.00  0.00    +0.260 A 
ATOM     20  N   LIG    1       -1.040   3.083  -0.001  0.00  0.00    -0.470 NA
ENDBRANCH  14  15
BRANCH  14  21
ATOM     21  C   LIG    1        0.028   5.894  -1.288  0.00  0.00    -0.090 A 
ATOM     22  C   LIG    1        0.850   5.246  -2.192  0.00  0.00    +0.010 A 
ATOM     23  C   LIG    1        0.994   5.742  -3.474  0.00  0.00    +0.000 A 
ATOM     24  C   LIG    1        0.325   6.891  -3.850  0.00  0.00    +0.000 A 
ATOM     25  C   LIG    1       -0.493   7.542  -2.945  0.00  0.00    +0.000 A 
ATOM     26  C   LIG    1       -0.641   7.043  -1.664  0.00  0.00    +0.020 A 
ENDBRANCH  14  21
ENDBRANCH   2  14
TORSDOF 6
