REMARK  Name = ZINCpe000000XD13.0
REMARK                            x       y       z     vdW  Elec       q    Type
REMARK                         _______ _______ _______ _____ _____    ______ ____
ROOT
ATOM      1  C   LIG    1       -2.521   1.036   0.129  0.00  0.00    +0.560 C 
ATOM      2  N   LIG    1       -3.679   1.722   0.210  0.00  0.00    -0.610 N 
ATOM      3  C   LIG    1       -3.689   3.192   0.182  0.00  0.00    +0.290 C 
ATOM      4  C   LIG    1       -4.696   3.647  -0.886  0.00  0.00    +0.190 C 
ATOM      5  N   LIG    1       -5.999   3.022  -0.622  0.00  0.00    -0.520 NA
ATOM      6  C   LIG    1       -5.921   1.560  -0.733  0.00  0.00    +0.180 C 
ATOM      7  C   LIG    1       -4.965   1.019   0.335  0.00  0.00    +0.300 C 
ATOM      8  O   LIG    1       -2.537  -0.176   0.062  0.00  0.00    -0.520 OA
ENDROOT
BRANCH   1  12
ATOM      9  C   LIG    1        1.461   2.723  -2.351  0.00  0.00    +0.150 C 
ATOM     10  C   LIG    1        0.684   2.574  -1.069  0.00  0.00    +0.180 A 
ATOM     11  C   LIG    1       -0.496   1.913  -1.077  0.00  0.00    -0.060 A 
ATOM     12  C   LIG    1       -1.227   1.764   0.121  0.00  0.00    -0.010 A 
ATOM     13  C   LIG    1       -0.720   2.310   1.286  0.00  0.00    -0.050 A 
ATOM     14  C   LIG    1        0.514   2.988   1.242  0.00  0.00    +0.520 A 
ATOM     15  O   LIG    1        0.980   3.472   2.261  0.00  0.00    -0.540 OA
ATOM     16  N   LIG    1        1.180   3.103   0.078  0.00  0.00    -0.600 N 
ATOM     17  H   LIG    1        2.029   3.572   0.059  0.00  0.00    +0.420 HD
ENDBRANCH   1  12
BRANCH   5  18
ATOM     18  C   LIG    1       -7.033   3.564  -1.513  0.00  0.00    +0.180 C 
ATOM     19  C   LIG    1       -6.637   3.308  -2.968  0.00  0.00    +0.010 C 
BRANCH  18  20
ATOM     20  C   LIG    1       -7.168   5.047  -1.282  0.00  0.00    +0.540 C 
ATOM     21  N   LIG    1       -8.124   5.745  -1.928  0.00  0.00    -0.620 N 
ATOM     22  C   LIG    1       -8.301   7.204  -1.877  0.00  0.00    +0.250 C 
ATOM     23  C   LIG    1       -9.529   7.547  -2.747  0.00  0.00    +0.030 C 
ATOM     24  C   LIG    1      -10.317   6.210  -2.773  0.00  0.00    +0.040 C 
ATOM     25  C   LIG    1       -9.168   5.172  -2.796  0.00  0.00    +0.250 C 
ATOM     26  O   LIG    1       -6.418   5.613  -0.515  0.00  0.00    -0.520 OA
ENDBRANCH  18  20
ENDBRANCH   5  18
TORSDOF 3
