REMARK  Name = ZINCpe00000RajaL.0
REMARK                            x       y       z     vdW  Elec       q    Type
REMARK                         _______ _______ _______ _____ _____    ______ ____
ROOT
ATOM      1  C   LIG    1        1.406  -0.530   0.397  0.00  0.00    +0.160 C 
ATOM      2  C   LIG    1        1.808   0.936   0.130  0.00  0.00    +0.090 C 
ATOM      3  C   LIG    1        0.705   1.427  -0.845  0.00  0.00    +0.050 C 
ATOM      4  C   LIG    1       -0.538   0.670  -0.314  0.00  0.00    +0.250 C 
ATOM      5  N   LIG    1       -0.029  -0.650   0.099  0.00  0.00    -0.620 N 
ATOM      6  C   LIG    1       -0.757  -1.781   0.187  0.00  0.00    +0.560 C 
ATOM      7  O   LIG    1       -0.208  -2.842   0.414  0.00  0.00    -0.460 OA
ENDROOT
BRANCH   6   8
ATOM      8  C   LIG    1       -2.220  -1.731   0.008  0.00  0.00    +0.090 A 
ATOM      9  C   LIG    1       -2.853  -2.803  -0.529  0.00  0.00    +0.050 A 
ATOM     10  C   LIG    1       -4.305  -2.766  -0.706  0.00  0.00    -0.010 A 
ATOM     11  C   LIG    1       -5.007  -3.843  -1.249  0.00  0.00    +0.030 A 
ATOM     12  C   LIG    1       -6.374  -3.756  -1.400  0.00  0.00    +0.050 A 
ATOM     13  C   LIG    1       -7.058  -2.610  -1.017  0.00  0.00    +0.010 A 
ATOM     14  C   LIG    1       -6.384  -1.534  -0.478  0.00  0.00    +0.090 A 
ATOM     15  C   LIG    1       -5.002  -1.599  -0.316  0.00  0.00    -0.140 A 
ATOM     16  C   LIG    1       -4.236  -0.481   0.253  0.00  0.00    +0.550 A 
ATOM     17  O   LIG    1       -4.804   0.539   0.600  0.00  0.00    -0.520 OA
ATOM     18  N   LIG    1       -2.901  -0.594   0.388  0.00  0.00    -0.630 N 
ATOM     19  H   LIG    1       -2.402   0.148   0.764  0.00  0.00    +0.410 HD
ENDBRANCH   6   8
BRANCH   1  23
ATOM     20  C   LIG    1        2.322  -3.068  -2.316  0.00  0.00    +0.280 C 
ATOM     21  N   LIG    1        1.554  -2.253  -1.371  0.00  0.00    -0.720 N 
ATOM     22  H   LIG    1        0.585  -2.292  -1.373  0.00  0.00    +0.400 HD
ATOM     23  C   LIG    1        2.195  -1.449  -0.500  0.00  0.00    +0.530 C 
ATOM     24  O   LIG    1        3.406  -1.465  -0.437  0.00  0.00    -0.540 OA
ENDBRANCH   1  23
BRANCH   1  25
ATOM     25  C   LIG    1        1.664  -0.885   1.862  0.00  0.00    +0.190 C 
BRANCH  25  26
ATOM     26  O   LIG    1        1.274  -2.239   2.100  0.00  0.00    -0.360 OA
ATOM     27  C   LIG    1        1.475  -2.674   3.446  0.00  0.00    +0.200 C 
ENDBRANCH  25  26
ENDBRANCH   1  25
TORSDOF 4
