REMARK  Name = ZINCrD00000hQ5Zu.1
REMARK                            x       y       z     vdW  Elec       q    Type
REMARK                         _______ _______ _______ _____ _____    ______ ____
ROOT
ATOM      1  C   LIG    1        0.369   2.446   4.524  0.00  0.00    +0.050 C 
ATOM      2  S   LIG    1        1.336   3.700   3.619  0.00  0.00    -0.060 S 
ATOM      3  C   LIG    1        0.666   3.273   2.034  0.00  0.00    +0.390 C 
ATOM      4  N   LIG    1       -0.222   2.250   2.225  0.00  0.00    -0.530 N 
ATOM      5  N   LIG    1        0.968   3.836   0.887  0.00  0.00    -0.460 NA
ATOM      6  C   LIG    1       -0.440   1.774   3.439  0.00  0.00    +0.540 C 
ATOM      7  O   LIG    1       -1.220   0.872   3.663  0.00  0.00    -0.470 OA
ENDROOT
BRANCH   5   8
ATOM      8  C   LIG    1        1.880   4.857   0.843  0.00  0.00    +0.060 A 
ATOM      9  C   LIG    1        3.028   4.805   1.634  0.00  0.00    +0.010 A 
ATOM     10  C   LIG    1        3.944   5.837   1.586  0.00  0.00    +0.030 A 
ATOM     11  C   LIG    1        3.726   6.921   0.755  0.00  0.00    +0.050 A 
ATOM     12  C   LIG    1        2.589   6.981  -0.033  0.00  0.00    +0.000 A 
ATOM     13  C   LIG    1        1.668   5.953   0.002  0.00  0.00    +0.120 A 
ATOM     14  F   LIG    1        0.562   6.009  -0.772  0.00  0.00    -0.130 F 
ENDBRANCH   5   8
BRANCH   4  15
ATOM     15  C   LIG    1       -0.939   1.683   1.080  0.00  0.00    +0.230 C 
ATOM     16  C   LIG    1       -0.013   1.086   0.008  0.00  0.00    +0.020 C 
ATOM     17  C   LIG    1       -0.959   1.695  -1.040  0.00  0.00    +0.030 C 
ATOM     18  C   LIG    1       -1.349   2.730   0.028  0.00  0.00    +0.040 C 
ENDBRANCH   4  15
BRANCH   1  19
ATOM     19  C   LIG    1       -0.553   3.113   5.547  0.00  0.00    +0.120 C 
BRANCH  19  21
ATOM     20  O   LIG    1        1.488   3.701   6.575  0.00  0.00    -0.520 OA
ATOM     21  C   LIG    1        0.278   3.764   6.622  0.00  0.00    +0.530 C 
ATOM     22  N   LIG    1       -0.324   4.416   7.637  0.00  0.00    -0.730 N 
ATOM     23  H   LIG    1       -1.292   4.467   7.675  0.00  0.00    +0.410 HD
BRANCH  22  24
ATOM     24  C   LIG    1        0.484   5.050   8.682  0.00  0.00    +0.320 C 
BRANCH  24  25
ATOM     25  C   LIG    1       -0.438   5.716   9.706  0.00  0.00    +0.450 C 
ATOM     26  F   LIG    1       -1.219   6.686   9.068  0.00  0.00    -0.180 F 
ATOM     27  F   LIG    1        0.333   6.321  10.704  0.00  0.00    -0.170 F 
ATOM     28  F   LIG    1       -1.271   4.751  10.281  0.00  0.00    -0.180 F 
ENDBRANCH  24  25
ENDBRANCH  22  24
ENDBRANCH  19  21
ENDBRANCH   1  19
TORSDOF 6
