REMARK  Name = ZINCpk00000RHR5B.0
REMARK                            x       y       z     vdW  Elec       q    Type
REMARK                         _______ _______ _______ _____ _____    ______ ____
ROOT
ATOM      1  C   LIG    1        1.395  -3.713   3.003  0.00  0.00    +0.620 C 
ATOM      2  N   LIG    1        1.420  -5.006   2.623  0.00  0.00    -0.600 N 
ATOM      3  C   LIG    1        0.241  -5.831   2.303  0.00  0.00    +0.270 C 
ATOM      4  C   LIG    1        0.778  -6.944   1.369  0.00  0.00    +0.020 C 
ATOM      5  C   LIG    1        2.173  -7.224   1.988  0.00  0.00    +0.060 C 
ATOM      6  C   LIG    1        2.629  -5.825   2.453  0.00  0.00    +0.220 C 
ATOM      7  O   LIG    1        2.425  -3.153   3.326  0.00  0.00    -0.540 OA
ENDROOT
BRANCH   6   8
ATOM      8  C   LIG    1        3.372  -5.940   3.786  0.00  0.00    +0.000 C 
ATOM      9  C   LIG    1        4.481  -6.986   3.663  0.00  0.00    +0.030 C 
ATOM     10  C   LIG    1        5.224  -7.101   4.996  0.00  0.00    +0.000 C 
ATOM     11  C   LIG    1        4.243  -7.524   6.091  0.00  0.00    +0.020 C 
ATOM     12  C   LIG    1        3.133  -6.478   6.214  0.00  0.00    -0.020 C 
ATOM     13  C   LIG    1        2.391  -6.363   4.881  0.00  0.00    +0.170 C 
BRANCH  13  14
ATOM     14  O   LIG    1        1.818  -7.628   4.545  0.00  0.00    -0.550 OA
ATOM     15  H   LIG    1        1.130  -7.924   5.156  0.00  0.00    +0.370 HD
ENDBRANCH  13  14
ENDBRANCH   6   8
BRANCH   1  18
ATOM     16  N   LIG    1       -1.359  -1.392   3.275  0.00  0.00    -0.350 N 
ATOM     17  C   LIG    1       -0.045  -1.668   3.386  0.00  0.00    +0.290 A 
ATOM     18  C   LIG    1        0.116  -2.977   3.028  0.00  0.00    -0.100 A 
ATOM     19  N   LIG    1       -1.086  -3.478   2.697  0.00  0.00    -0.200 NA
ATOM     20  N   LIG    1       -1.985  -2.566   2.832  0.00  0.00    -0.060 NA
BRANCH  16  21
ATOM     21  C   LIG    1       -2.009  -0.110   3.558  0.00  0.00    +0.350 C 
BRANCH  21  23
ATOM     22  C   LIG    1       -1.973   0.305   1.040  0.00  0.00    +0.070 C 
ATOM     23  C   LIG    1       -2.799   0.344   2.328  0.00  0.00    -0.150 C 
ATOM     24  C   LIG    1       -4.184  -0.317   2.199  0.00  0.00    +0.240 C 
ATOM     25  O   LIG    1       -4.653   1.005   1.849  0.00  0.00    -0.380 OA
ATOM     26  C   LIG    1       -3.568   1.662   2.534  0.00  0.00    +0.240 C 
ENDBRANCH  21  23
ENDBRANCH  16  21
ENDBRANCH   1  18
TORSDOF 5
