REMARK  Name = ZINCrD000000BIlp.0
REMARK                            x       y       z     vdW  Elec       q    Type
REMARK                         _______ _______ _______ _____ _____    ______ ____
ROOT
ATOM      1  O   LIG    1        2.377   5.921   2.955  0.00  0.00    -0.580 OA
ATOM      2  C   LIG    1        1.569   6.380   2.170  0.00  0.00    +0.710 C 
ATOM      3  N   LIG    1        0.814   5.554   1.420  0.00  0.00    -0.630 N 
ATOM      4  C   LIG    1       -0.244   6.081   0.544  0.00  0.00    +0.240 C 
ATOM      5  C   LIG    1       -0.057   5.482  -0.855  0.00  0.00    +0.220 C 
ATOM      6  O   LIG    1        0.030   4.059  -0.750  0.00  0.00    -0.370 OA
ATOM      7  C   LIG    1        1.149   3.595   0.009  0.00  0.00    +0.190 C 
ATOM      8  C   LIG    1        1.023   4.098   1.452  0.00  0.00    +0.300 C 
ATOM      9  N   LIG    1        1.429   7.716   2.051  0.00  0.00    -0.740 N 
ATOM     10  H   LIG    1        0.735   8.081   1.480  0.00  0.00    +0.390 HD
ENDROOT
BRANCH   9  11
ATOM     11  C   LIG    1        2.325   8.614   2.783  0.00  0.00    +0.250 C 
ATOM     12  C   LIG    1        1.786   8.833   4.200  0.00  0.00    -0.020 C 
ATOM     13  C   LIG    1        2.685   9.834   4.930  0.00  0.00    +0.220 C 
ATOM     14  O   LIG    1        2.734  11.056   4.192  0.00  0.00    -0.360 OA
ATOM     15  C   LIG    1        3.273  10.922   2.875  0.00  0.00    +0.130 C 
ATOM     16  C   LIG    1        4.695  10.365   2.959  0.00  0.00    -0.010 C 
ATOM     17  C   LIG    1        5.572  11.323   3.768  0.00  0.00    +0.010 C 
ATOM     18  C   LIG    1        5.599  12.690   3.082  0.00  0.00    +0.000 C 
ATOM     19  C   LIG    1        4.177  13.248   3.001  0.00  0.00    +0.010 C 
ATOM     20  C   LIG    1        3.300  12.290   2.192  0.00  0.00    +0.050 C 
ATOM     21  C   LIG    1        2.398   9.964   2.062  0.00  0.00    +0.010 C 
ENDBRANCH   9  11
BRANCH   7  22
ATOM     22  C   LIG    1        1.173   2.088   0.001  0.00  0.00    -0.070 A 
ATOM     23  C   LIG    1       -0.013   1.379   0.007  0.00  0.00    +0.030 A 
ATOM     24  C   LIG    1        0.005  -0.004  -0.000  0.00  0.00    +0.030 A 
ATOM     25  C   LIG    1        1.210  -0.679  -0.014  0.00  0.00    -0.010 A 
ATOM     26  C   LIG    1        2.402   0.031  -0.020  0.00  0.00    +0.110 A 
ATOM     27  C   LIG    1        2.381   1.417  -0.012  0.00  0.00    +0.000 A 
BRANCH  26  28
ATOM     28  O   LIG    1        3.589  -0.632  -0.034  0.00  0.00    -0.500 OA
ATOM     29  H   LIG    1        3.925  -0.818  -0.922  0.00  0.00    +0.390 HD
ENDBRANCH  26  28
ENDBRANCH   7  22
TORSDOF 3
