REMARK  Name = ZINCrg00000J0Y0y.0
REMARK                            x       y       z     vdW  Elec       q    Type
REMARK                         _______ _______ _______ _____ _____    ______ ____
ROOT
ATOM      1  C   LIG    1        1.229  -2.156  -0.022  0.00  0.00    +0.560 C 
ATOM      2  N   LIG    1        0.082  -2.856   0.087  0.00  0.00    -0.600 N 
ATOM      3  C   LIG    1       -1.222  -2.174   0.111  0.00  0.00    +0.260 C 
ATOM      4  C   LIG    1       -2.018  -2.688   1.311  0.00  0.00    +0.230 C 
ATOM      5  O   LIG    1       -2.049  -4.117   1.280  0.00  0.00    -0.360 OA
ATOM      6  C   LIG    1       -0.763  -4.732   1.391  0.00  0.00    +0.220 C 
ATOM      7  C   LIG    1        0.098  -4.324   0.190  0.00  0.00    +0.300 C 
ATOM      8  O   LIG    1        2.289  -2.740  -0.127  0.00  0.00    -0.490 OA
ENDROOT
BRANCH   1  15
ATOM      9  C   LIG    1        0.793   2.220  -2.395  0.00  0.00    +0.160 C 
ATOM     10  C   LIG    1        0.990   1.427  -1.129  0.00  0.00    +0.280 A 
ATOM     11  N   LIG    1        1.138   2.048   0.020  0.00  0.00    -0.530 NA
ATOM     12  C   LIG    1        1.315   1.364   1.156  0.00  0.00    +0.640 A 
ATOM     13  N   LIG    1        1.346   0.019   1.159  0.00  0.00    -0.620 N 
ATOM     14  H   LIG    1        1.475  -0.461   1.992  0.00  0.00    +0.420 HD
ATOM     15  C   LIG    1        1.196  -0.673  -0.013  0.00  0.00    +0.180 A 
ATOM     16  O   LIG    1        1.444   1.970   2.206  0.00  0.00    -0.520 OA
ATOM     17  C   LIG    1        1.016   0.024  -1.175  0.00  0.00    -0.070 A 
ENDBRANCH   1  15
BRANCH   6  18
ATOM     18  C   LIG    1       -0.922  -6.231   1.409  0.00  0.00    +0.200 A 
ATOM     19  C   LIG    1       -0.573  -6.960   2.535  0.00  0.00    -0.090 A 
ATOM     20  C   LIG    1       -0.735  -8.336   2.510  0.00  0.00    +0.360 A 
ATOM     21  N   LIG    1       -1.216  -8.910   1.420  0.00  0.00    -0.540 NA
ATOM     22  C   LIG    1       -1.540  -8.184   0.360  0.00  0.00    +0.490 A 
ATOM     23  N   LIG    1       -1.402  -6.866   0.353  0.00  0.00    -0.500 NA
BRANCH  22  24
ATOM     24  N   LIG    1       -2.039  -8.817  -0.765  0.00  0.00    -0.450 N 
ATOM     25  C   LIG    1       -1.137  -8.623  -1.930  0.00  0.00    +0.200 C 
ATOM     26  C   LIG    1       -1.539  -9.775  -2.884  0.00  0.00    +0.030 C 
ATOM     27  C   LIG    1       -1.824 -10.945  -1.914  0.00  0.00    +0.020 C 
ATOM     28  C   LIG    1       -2.122 -10.279  -0.558  0.00  0.00    +0.220 C 
ENDBRANCH  22  24
ENDBRANCH   6  18
TORSDOF 3
