REMARK  Name = ZINCpk00000y6va3.0
REMARK                            x       y       z     vdW  Elec       q    Type
REMARK                         _______ _______ _______ _____ _____    ______ ____
ROOT
ATOM      1  C   LIG    1        0.551  -1.490  -1.828  0.00  0.00    +0.570 C 
ATOM      2  N   LIG    1        0.905  -0.455  -1.040  0.00  0.00    -0.590 N 
ATOM      3  C   LIG    1        0.025  -0.050   0.045  0.00  0.00    +0.280 C 
ATOM      4  C   LIG    1       -0.193   1.445   0.047  0.00  0.00    +0.010 C 
ATOM      5  C   LIG    1        1.062   2.272  -0.124  0.00  0.00    +0.240 C 
ATOM      6  C   LIG    1        2.107   1.706  -1.059  0.00  0.00    +0.190 C 
ATOM      7  N   LIG    1        2.030   2.520  -2.271  0.00  0.00    -0.730 N 
ATOM      8  H   LIG    1        2.478   2.336  -3.111  0.00  0.00    +0.430 HD
ATOM      9  C   LIG    1        1.229   3.569  -2.013  0.00  0.00    +0.700 C 
ATOM     10  O   LIG    1        1.023   4.460  -2.814  0.00  0.00    -0.580 OA
ATOM     11  N   LIG    1        0.677   3.541  -0.791  0.00  0.00    -0.640 N 
ATOM     12  C   LIG    1       -0.165   4.589  -0.210  0.00  0.00    +0.330 C 
ATOM     13  C   LIG    1        2.158   0.234  -1.291  0.00  0.00    +0.310 C 
ATOM     14  O   LIG    1       -0.512  -2.052  -1.651  0.00  0.00    -0.530 OA
ENDROOT
BRANCH   1  17
ATOM     15  C   LIG    1        3.554  -1.801  -3.899  0.00  0.00    +0.360 A 
ATOM     16  N   LIG    1        2.695  -1.442  -2.972  0.00  0.00    -0.530 NA
ATOM     17  C   LIG    1        1.457  -1.943  -2.906  0.00  0.00    +0.090 A 
ATOM     18  C   LIG    1        1.002  -2.869  -3.826  0.00  0.00    +0.050 A 
ATOM     19  C   LIG    1        1.874  -3.290  -4.847  0.00  0.00    -0.010 A 
ATOM     20  C   LIG    1        1.487  -4.226  -5.817  0.00  0.00    +0.030 A 
ATOM     21  C   LIG    1        2.374  -4.596  -6.784  0.00  0.00    +0.040 A 
ATOM     22  C   LIG    1        3.658  -4.059  -6.821  0.00  0.00    +0.010 A 
ATOM     23  C   LIG    1        4.066  -3.147  -5.893  0.00  0.00    +0.070 A 
ATOM     24  C   LIG    1        3.182  -2.743  -4.885  0.00  0.00    -0.100 A 
BRANCH  15  26
ATOM     25  C   LIG    1        5.107  -0.318  -2.887  0.00  0.00    +0.260 C 
ATOM     26  O   LIG    1        4.798  -1.263  -3.912  0.00  0.00    -0.290 OA
ENDBRANCH  15  26
ENDBRANCH   1  17
TORSDOF 2
