REMARK  Name = ZINCrD000000AzH6.0
REMARK                            x       y       z     vdW  Elec       q    Type
REMARK                         _______ _______ _______ _____ _____    ______ ____
ROOT
ATOM      1  O   LIG    1       -1.225   6.923  -1.585  0.00  0.00    -0.500 OA
ATOM      2  C   LIG    1       -2.360   7.150  -1.949  0.00  0.00    +0.510 C 
ATOM      3  N   LIG    1       -2.679   8.361  -2.447  0.00  0.00    -0.680 N 
ATOM      4  H   LIG    1       -3.567   8.521  -2.801  0.00  0.00    +0.410 HD
ENDROOT
BRANCH   3   5
ATOM      5  C   LIG    1       -1.728   9.388  -2.451  0.00  0.00    +0.150 A 
ATOM      6  C   LIG    1       -2.125  10.704  -2.248  0.00  0.00    +0.020 A 
ATOM      7  C   LIG    1       -1.188  11.721  -2.247  0.00  0.00    +0.040 A 
ATOM      8  C   LIG    1        0.145  11.437  -2.459  0.00  0.00    +0.010 A 
ATOM      9  C   LIG    1        0.553  10.119  -2.670  0.00  0.00    -0.020 A 
ATOM     10  C   LIG    1       -0.390   9.093  -2.665  0.00  0.00    +0.090 A 
BRANCH   9  11
ATOM     11  C   LIG    1        1.983   9.812  -2.897  0.00  0.00    +0.290 A 
ATOM     12  N   LIG    1        2.560   8.635  -2.775  0.00  0.00    -0.310 NA
ATOM     13  N   LIG    1        3.812   8.718  -3.046  0.00  0.00    -0.040 NA
ATOM     14  N   LIG    1        4.126   9.929  -3.355  0.00  0.00    -0.080 NA
ATOM     15  N   LIG    1        2.946  10.689  -3.275  0.00  0.00    -0.350 N 
BRANCH  15  16
ATOM     16  C   LIG    1        2.790  12.121  -3.541  0.00  0.00    +0.210 C 
ATOM     17  C   LIG    1        4.030  12.894  -3.997  0.00  0.00    +0.090 C 
ATOM     18  C   LIG    1        3.478  13.096  -2.584  0.00  0.00    +0.060 C 
ENDBRANCH  15  16
ENDBRANCH   9  11
ENDBRANCH   3   5
BRANCH   2  19
ATOM     19  C   LIG    1       -3.413   6.077  -1.845  0.00  0.00    +0.120 C 
BRANCH  19  20
ATOM     20  C   LIG    1       -2.803   4.829  -1.261  0.00  0.00    -0.070 A 
ATOM     21  C   LIG    1       -2.800   4.635   0.108  0.00  0.00    +0.020 A 
ATOM     22  C   LIG    1       -2.241   3.490   0.641  0.00  0.00    +0.010 A 
ATOM     23  C   LIG    1       -1.681   2.536  -0.191  0.00  0.00    -0.090 A 
ATOM     24  C   LIG    1       -1.012   1.216   0.141  0.00  0.00    +0.080 C 
ATOM     25  C   LIG    1       -0.227   0.834  -1.133  0.00  0.00    +0.030 C 
ATOM     26  C   LIG    1       -1.020   1.553  -2.244  0.00  0.00    +0.080 C 
ATOM     27  C   LIG    1       -1.684   2.729  -1.560  0.00  0.00    -0.100 A 
ATOM     28  C   LIG    1       -2.245   3.878  -2.093  0.00  0.00    +0.030 A 
ENDBRANCH  19  20
ENDBRANCH   2  19
TORSDOF 5
