REMARK  Name = ZINCvU00000008FN.0
REMARK                            x       y       z     vdW  Elec       q    Type
REMARK                         _______ _______ _______ _____ _____    ______ ____
ROOT
ATOM      1  C   LIG    1        1.153   3.175   0.027  0.00  0.00    -0.140 A 
ATOM      2  C   LIG    1        0.118   3.536  -0.848  0.00  0.00    +0.130 A 
ATOM      3  C   LIG    1       -1.066   2.862  -0.833  0.00  0.00    +0.020 A 
ATOM      4  C   LIG    1       -1.261   1.810   0.059  0.00  0.00    +0.110 A 
ATOM      5  C   LIG    1       -0.232   1.431   0.941  0.00  0.00    -0.030 A 
ATOM      6  N   LIG    1       -0.688   0.390   1.678  0.00  0.00    -0.210 NA
ATOM      7  N   LIG    1       -1.891   0.094   1.330  0.00  0.00    +0.000 NA
ATOM      8  N   LIG    1       -2.308   0.957   0.306  0.00  0.00    -0.390 N 
ATOM      9  C   LIG    1        0.980   2.126   0.920  0.00  0.00    +0.150 A 
ENDROOT
BRANCH   1  15
ATOM     10  C   LIG    1        5.813   3.476  -0.912  0.00  0.00    -0.020 C 
ATOM     11  C   LIG    1        5.948   1.954  -0.812  0.00  0.00    +0.020 C 
ATOM     12  C   LIG    1        4.578   1.304  -1.019  0.00  0.00    +0.010 C 
ATOM     13  C   LIG    1        3.622   1.778   0.086  0.00  0.00    +0.260 C 
ATOM     14  N   LIG    1        3.598   3.247   0.086  0.00  0.00    -0.610 N 
ATOM     15  C   LIG    1        2.431   3.915  -0.001  0.00  0.00    +0.570 C 
ATOM     16  O   LIG    1        2.430   5.127  -0.102  0.00  0.00    -0.530 OA
ATOM     17  C   LIG    1        4.871   3.974   0.189  0.00  0.00    +0.290 C 
BRANCH  10  18
ATOM     18  C   LIG    1        7.189   4.123  -0.738  0.00  0.00    +0.020 C 
BRANCH  18  19
ATOM     19  C   LIG    1        7.073   5.633  -0.957  0.00  0.00    +0.000 C 
BRANCH  19  20
ATOM     20  C   LIG    1        8.449   6.280  -0.783  0.00  0.00    +0.000 C 
BRANCH  20  21
ATOM     21  C   LIG    1        8.333   7.790  -1.002  0.00  0.00    +0.000 C 
BRANCH  21  23
ATOM     22  C   LIG    1        9.593   9.947  -1.048  0.00  0.00    +0.000 C 
ATOM     23  C   LIG    1        9.709   8.437  -0.828  0.00  0.00    -0.010 C 
ENDBRANCH  21  23
ENDBRANCH  20  21
ENDBRANCH  19  20
ENDBRANCH  18  19
ENDBRANCH  10  18
ENDBRANCH   1  15
BRANCH   8  24
ATOM     24  C   LIG    1       -3.609   0.952  -0.366  0.00  0.00    +0.350 C 
BRANCH  24  25
ATOM     25  C   LIG    1       -4.574   1.871   0.385  0.00  0.00    +0.070 C 
BRANCH  25  26
ATOM     26  C   LIG    1       -5.913   1.866  -0.306  0.00  0.00    -0.090 A 
ATOM     27  C   LIG    1       -6.182   2.789  -1.300  0.00  0.00    +0.010 A 
ATOM     28  C   LIG    1       -7.408   2.781  -1.937  0.00  0.00    +0.000 A 
ATOM     29  C   LIG    1       -8.370   1.858  -1.574  0.00  0.00    +0.000 A 
ATOM     30  C   LIG    1       -8.104   0.939  -0.576  0.00  0.00    +0.000 A 
ATOM     31  C   LIG    1       -6.876   0.943   0.058  0.00  0.00    +0.010 A 
ENDBRANCH  25  26
ENDBRANCH  24  25
ENDBRANCH   8  24
TORSDOF 9
