REMARK  Name = ZINCvU00000008Qc.0
REMARK                            x       y       z     vdW  Elec       q    Type
REMARK                         _______ _______ _______ _____ _____    ______ ____
ROOT
ATOM      1  C   LIG    1       -0.019   1.503  -0.051  0.00  0.00    +0.150 C 
ATOM      2  N   LIG    1        1.188   1.951  -0.041  0.00  0.00    -0.230 NA
ATOM      3  N   LIG    1        2.165   0.957  -0.036  0.00  0.00    -0.460 N 
ATOM      4  C   LIG    1        1.505  -0.358  -0.046  0.00  0.00    +0.270 C 
ATOM      5  C   LIG    1        3.497   1.167  -0.025  0.00  0.00    +0.590 C 
ATOM      6  O   LIG    1        4.259   0.225   0.076  0.00  0.00    -0.480 OA
ATOM      7  C   LIG    1        0.004  -0.009  -0.057  0.00  0.00    +0.100 C 
ENDROOT
BRANCH   4   8
ATOM      8  C   LIG    1        1.879  -1.130  -1.285  0.00  0.00    -0.100 A 
ATOM      9  C   LIG    1        2.087  -0.463  -2.478  0.00  0.00    +0.060 A 
ATOM     10  C   LIG    1        2.435  -1.169  -3.614  0.00  0.00    -0.010 A 
ATOM     11  C   LIG    1        2.565  -2.546  -3.559  0.00  0.00    +0.110 A 
ATOM     12  C   LIG    1        2.351  -3.214  -2.365  0.00  0.00    -0.010 A 
ATOM     13  F   LIG    1        2.900  -3.238  -4.670  0.00  0.00    -0.140 F 
ATOM     14  C   LIG    1        2.009  -2.505  -1.229  0.00  0.00    +0.070 A 
ENDBRANCH   4   8
BRANCH   5  15
ATOM     15  C   LIG    1        4.029   2.540  -0.134  0.00  0.00    -0.140 A 
ATOM     16  C   LIG    1        3.160   3.633  -0.121  0.00  0.00    +0.110 A 
ATOM     17  C   LIG    1        3.664   4.912  -0.223  0.00  0.00    +0.010 A 
ATOM     18  C   LIG    1        5.028   5.116  -0.339  0.00  0.00    +0.060 A 
ATOM     19  C   LIG    1        5.896   4.039  -0.353  0.00  0.00    +0.010 A 
ATOM     20  C   LIG    1        5.406   2.752  -0.245  0.00  0.00    +0.020 A 
ATOM     21 CL   LIG    1        6.497   1.402  -0.256  0.00  0.00    -0.030 Cl
ENDBRANCH   5  15
BRANCH   1  26
ATOM     22  C   LIG    1       -3.636   2.520  -0.095  0.00  0.00    +0.170 A 
ATOM     23  C   LIG    1       -3.528   3.903  -0.088  0.00  0.00    -0.140 A 
ATOM     24  C   LIG    1       -2.278   4.506  -0.070  0.00  0.00    +0.170 A 
ATOM     25  C   LIG    1       -1.132   3.728  -0.058  0.00  0.00    -0.010 A 
ATOM     26  C   LIG    1       -1.236   2.336  -0.064  0.00  0.00    +0.040 A 
ATOM     27  C   LIG    1       -2.496   1.734  -0.087  0.00  0.00    -0.020 A 
BRANCH  22  29
ATOM     28  C   LIG    1       -5.996   2.806  -0.127  0.00  0.00    +0.250 C 
ATOM     29  O   LIG    1       -4.863   1.936  -0.114  0.00  0.00    -0.310 OA
ENDBRANCH  22  29
BRANCH  24  30
ATOM     30  O   LIG    1       -2.178   5.861  -0.064  0.00  0.00    -0.310 OA
ATOM     31  C   LIG    1       -3.400   6.602  -0.077  0.00  0.00    +0.240 C 
ENDBRANCH  24  30
ENDBRANCH   1  26
TORSDOF 5
