REMARK  Name = ZINCnE000001FXuf.0
REMARK                            x       y       z     vdW  Elec       q    Type
REMARK                         _______ _______ _______ _____ _____    ______ ____
ROOT
ATOM      1  C   LIG    1       -2.317   0.991   0.029  0.00  0.00    -0.140 A 
ATOM      2  C   LIG    1       -1.312   1.897   0.030  0.00  0.00    +0.070 A 
ATOM      3  C   LIG    1       -0.016   1.358   0.009  0.00  0.00    -0.140 A 
ATOM      4  C   LIG    1        0.002  -0.004   0.002  0.00  0.00    -0.200 A 
ATOM      5  C   LIG    1        1.364  -0.570  -0.014  0.00  0.00    -0.020 A 
ATOM      6  C   LIG    1        2.352   0.405  -0.018  0.00  0.00    -0.130 A 
ATOM      7  C   LIG    1        3.701   0.023  -0.033  0.00  0.00    +0.050 A 
ATOM      8  C   LIG    1        4.040  -1.310  -0.044  0.00  0.00    +0.020 A 
ATOM      9  C   LIG    1        3.052  -2.283  -0.040  0.00  0.00    +0.010 A 
ATOM     10  C   LIG    1        1.736  -1.931  -0.025  0.00  0.00    +0.050 A 
ATOM     11  S   LIG    1        1.632   2.004  -0.003  0.00  0.00    +0.110 S 
ATOM     12  S   LIG    1       -1.656  -0.633   0.015  0.00  0.00    +0.250 S 
ENDROOT
BRANCH   1  14
ATOM     13  N   LIG    1       -4.663   0.331   0.047  0.00  0.00    -1.130 NA
ATOM     14  C   LIG    1       -3.745   1.318   0.044  0.00  0.00    +0.590 C 
ATOM     15  O   LIG    1       -4.103   2.482   0.053  0.00  0.00    -0.620 OA
BRANCH  13  16
ATOM     16  S   LIG    1       -6.277   0.701   0.064  0.00  0.00    +2.760 S 
ATOM     17  O   LIG    1       -6.558   1.327  -1.180  0.00  0.00    -1.040 OA
ATOM     18  O   LIG    1       -6.535   1.315   1.319  0.00  0.00    -1.030 OA
BRANCH  16  19
ATOM     19  N   LIG    1       -7.108  -0.732   0.064  0.00  0.00    -1.000 NA
BRANCH  19  21
ATOM     20  C   LIG    1       -8.886  -0.968   1.726  0.00  0.00    -0.000 C 
ATOM     21  C   LIG    1       -7.464  -1.372   1.333  0.00  0.00    +0.280 C 
ENDBRANCH  19  21
BRANCH  19  22
ATOM     22  C   LIG    1       -7.487  -1.359  -1.205  0.00  0.00    +0.260 C 
ATOM     23  C   LIG    1       -6.430  -2.393  -1.598  0.00  0.00    +0.000 C 
ENDBRANCH  19  22
ENDBRANCH  16  19
ENDBRANCH  13  16
ENDBRANCH   1  14
TORSDOF 5
