REMARK  Name = ZINCtj00000000HQ.1
REMARK                            x       y       z     vdW  Elec       q    Type
REMARK                         _______ _______ _______ _____ _____    ______ ____
ROOT
ATOM      1  C   LIG    1        0.621   4.954  -1.034  0.00  0.00    +0.570 C 
ATOM      2  N   LIG    1        0.479   3.622  -1.180  0.00  0.00    -0.750 N 
ATOM      3  H   LIG    1        1.259   3.065  -1.331  0.00  0.00    +0.390 HD
ATOM      4  O   LIG    1       -0.357   5.652  -0.845  0.00  0.00    -0.500 OA
ENDROOT
BRANCH   1   9
ATOM      5  C   LIG    1        3.371   7.512  -1.017  0.00  0.00    -0.680 A 
ATOM      6  C   LIG    1        4.481   6.715  -1.232  0.00  0.00    +0.160 A 
ATOM      7  C   LIG    1        4.340   5.346  -1.382  0.00  0.00    +0.010 A 
ATOM      8  C   LIG    1        3.089   4.768  -1.314  0.00  0.00    +0.090 A 
ATOM      9  C   LIG    1        1.964   5.567  -1.103  0.00  0.00    -0.170 A 
ATOM     10  C   LIG    1        2.114   6.946  -0.952  0.00  0.00    +0.210 A 
BRANCH   5  11
ATOM     11  S   LIG    1        3.562   9.253  -0.826  0.00  0.00    +2.700 S 
ATOM     12  O   LIG    1        2.313   9.834  -1.175  0.00  0.00    -0.940 OA
ATOM     13  O   LIG    1        4.784   9.595  -1.466  0.00  0.00    -0.940 OA
BRANCH  11  14
ATOM     14  N   LIG    1        3.782   9.548   0.788  0.00  0.00    -1.110 NA
ATOM     15  H   LIG    1        3.119  10.055   1.283  0.00  0.00    +0.430 HD
BRANCH  14  16
ATOM     16  C   LIG    1        4.976   9.043   1.470  0.00  0.00    +0.430 C 
BRANCH  16  18
ATOM     17  C   LIG    1        5.242  10.262   3.803  0.00  0.00    +0.070 C 
ATOM     18  C   LIG    1        5.124   9.721   2.768  0.00  0.00    -0.220 C 
ENDBRANCH  16  18
ENDBRANCH  14  16
ENDBRANCH  11  14
ENDBRANCH   5  11
ENDBRANCH   1   9
BRANCH   2  19
ATOM     19  C   LIG    1       -0.852   3.014  -1.111  0.00  0.00    +0.320 C 
BRANCH  19  20
ATOM     20  C   LIG    1       -0.723   1.492  -1.187  0.00  0.00    +0.050 C 
ATOM     21  C   LIG    1       -2.099   0.853  -0.990  0.00  0.00    +0.060 C 
ATOM     22  C   LIG    1       -3.048   1.339  -2.087  0.00  0.00    +0.050 C 
ATOM     23  C   LIG    1       -2.492   0.941  -3.456  0.00  0.00    +0.020 C 
ATOM     24  C   LIG    1       -1.116   1.580  -3.652  0.00  0.00    +0.050 C 
ATOM     25  C   LIG    1       -0.167   1.094  -2.555  0.00  0.00    +0.050 C 
BRANCH  20  26
ATOM     26  N   LIG    1        0.189   1.025  -0.133  0.00  0.00    -0.380 N 
ATOM     27  C   LIG    1        0.289  -0.440  -0.185  0.00  0.00    +0.240 C 
ATOM     28  C   LIG    1        1.240  -0.923   0.913  0.00  0.00    +0.260 C 
ATOM     29  O   LIG    1        0.760  -0.474   2.183  0.00  0.00    -0.350 OA
ATOM     30  C   LIG    1        0.622   0.947   2.275  0.00  0.00    +0.260 C 
ATOM     31  C   LIG    1       -0.330   1.434   1.180  0.00  0.00    +0.230 C 
ATOM     32  H   LIG    1        1.102   1.430  -0.275  0.00  0.00    +0.410 HD
ENDBRANCH  20  26
ENDBRANCH  19  20
ENDBRANCH   2  19
TORSDOF 8
