REMARK  Name = ZINCpe00000gMxIL.0
REMARK                            x       y       z     vdW  Elec       q    Type
REMARK                         _______ _______ _______ _____ _____    ______ ____
ROOT
ATOM      1  C   LIG    1       -0.844   1.649  -6.006  0.00  0.00    +0.470 C 
ATOM      2  O   LIG    1       -1.839   2.333  -6.040  0.00  0.00    -0.500 OA
ENDROOT
BRANCH   1   3
ATOM      3  C   LIG    1       -0.193   1.201  -7.289  0.00  0.00    +0.370 C 
BRANCH   3   5
ATOM      4  C   LIG    1       -0.552   1.445  -9.686  0.00  0.00    +0.570 C 
ATOM      5  N   LIG    1       -0.952   1.721  -8.429  0.00  0.00    -0.720 N 
ATOM      6  H   LIG    1       -1.741   2.263  -8.279  0.00  0.00    +0.410 HD
ATOM      7  O   LIG    1        0.438   0.764  -9.874  0.00  0.00    -0.530 OA
BRANCH   4  11
ATOM      8  C   LIG    1       -2.752   2.951 -12.992  0.00  0.00    +0.160 A 
ATOM      9  C   LIG    1       -1.620   2.174 -13.209  0.00  0.00    -0.020 A 
ATOM     10  C   LIG    1       -0.904   1.684 -12.140  0.00  0.00    +0.140 A 
ATOM     11  C   LIG    1       -1.317   1.968 -10.835  0.00  0.00    -0.180 A 
ATOM     12  C   LIG    1       -2.458   2.746 -10.621  0.00  0.00    +0.090 A 
ATOM     13  C   LIG    1       -3.166   3.237 -11.696  0.00  0.00    -0.080 A 
BRANCH   8  15
ATOM     14  C   LIG    1       -4.607   4.224 -13.754  0.00  0.00    +0.240 C 
ATOM     15  O   LIG    1       -3.455   3.433 -14.048  0.00  0.00    -0.310 OA
ENDBRANCH   8  15
ENDBRANCH   4  11
ENDBRANCH   3   5
ENDBRANCH   1   3
BRANCH   1  16
ATOM     16  O   LIG    1       -0.317   1.289  -4.825  0.00  0.00    -0.320 OA
BRANCH  16  17
ATOM     17  C   LIG    1       -0.997   1.758  -3.630  0.00  0.00    +0.270 C 
BRANCH  17  18
ATOM     18  C   LIG    1       -0.268   1.258  -2.409  0.00  0.00    +0.520 C 
ATOM     19  N   LIG    1       -0.721   1.571  -1.179  0.00  0.00    -0.730 N 
ATOM     20  H   LIG    1       -1.516   2.118  -1.079  0.00  0.00    +0.410 HD
ATOM     21  O   LIG    1        0.726   0.575  -2.534  0.00  0.00    -0.510 OA
BRANCH  19  22
ATOM     22  C   LIG    1       -0.013   1.086   0.008  0.00  0.00    +0.400 C 
BRANCH  22  23
ATOM     23  C   LIG    1       -0.718   1.572   1.248  0.00  0.00    -0.050 A 
ATOM     24  C   LIG    1       -1.704   0.926   1.896  0.00  0.00    -0.030 A 
ATOM     25  C   LIG    1       -2.070   1.736   2.996  0.00  0.00    -0.070 A 
ATOM     26  C   LIG    1       -1.286   2.828   2.954  0.00  0.00    +0.190 A 
ATOM     27  O   LIG    1       -0.465   2.720   1.896  0.00  0.00    -0.170 OA
ENDBRANCH  22  23
ENDBRANCH  19  22
ENDBRANCH  17  18
ENDBRANCH  16  17
ENDBRANCH   1  16
TORSDOF 9
