REMARK  Name = ZINC570000002h7m.0
REMARK                            x       y       z     vdW  Elec       q    Type
REMARK                         _______ _______ _______ _____ _____    ______ ____
ROOT
ATOM      1  C   LIG    1       -0.016   1.305   0.009  0.00  0.00    +0.020 C 
ATOM      2  C   LIG    1        0.002  -0.004   0.002  0.00  0.00    +0.020 C 
ATOM      3  C   LIG    1        1.434  -0.488  -0.014  0.00  0.00    +0.310 C 
ATOM      4  N   LIG    1        2.239   0.683  -0.433  0.00  0.00    -0.520 N 
ATOM      5  H   LIG    1        2.369   0.689  -1.434  0.00  0.00    +0.440 HD
ATOM      6  H   LIG    1        3.130   0.693   0.042  0.00  0.00    +0.440 HD
ATOM      7  C   LIG    1        1.402   1.828  -0.002  0.00  0.00    +0.310 C 
ENDROOT
TORSDOF 0
