REMARK  Name = ZINCrH00000No50V.0
REMARK                            x       y       z     vdW  Elec       q    Type
REMARK                         _______ _______ _______ _____ _____    ______ ____
ROOT
ATOM      1  N   LIG    1        1.086   4.714  -0.151  0.00  0.00    -0.550 N 
ENDROOT
BRANCH   1   2
ATOM      2  C   LIG    1        0.501   3.470  -0.115  0.00  0.00    +0.500 A 
ATOM      3  N   LIG    1        1.118   2.329  -0.331  0.00  0.00    -0.510 NA
ATOM      4  C   LIG    1        0.238   1.331  -0.215  0.00  0.00    +0.130 A 
ATOM      5  C   LIG    1       -0.975   1.882   0.081  0.00  0.00    -0.060 A 
ATOM      6  C   LIG    1        0.530  -0.138  -0.385  0.00  0.00    +0.170 C 
ATOM      7  O   LIG    1       -0.791   3.224   0.145  0.00  0.00    -0.210 OA
BRANCH   5   8
ATOM      8  C   LIG    1       -2.205   1.179   0.286  0.00  0.00    +0.300 C 
ATOM      9  N   LIG    1       -3.181   0.620   0.449  0.00  0.00    -0.390 NA
ENDBRANCH   5   8
ENDBRANCH   1   2
BRANCH   1  10
ATOM     10  C   LIG    1        0.281   5.910   0.110  0.00  0.00    +0.330 C 
BRANCH  10  11
ATOM     11  C   LIG    1        0.407   6.298   1.584  0.00  0.00    -0.150 C 
ATOM     12  C   LIG    1        1.409   5.518   2.437  0.00  0.00    +0.030 C 
ATOM     13  C   LIG    1       -0.093   5.293   2.624  0.00  0.00    +0.030 C 
BRANCH  11  14
ATOM     14  C   LIG    1        0.222   7.785   1.893  0.00  0.00    +0.080 C 
BRANCH  14  15
ATOM     15  C   LIG    1        1.357   8.584   1.249  0.00  0.00    +0.160 C 
BRANCH  15  16
ATOM     16  O   LIG    1        1.262   9.953   1.649  0.00  0.00    -0.390 OA
BRANCH  16  18
ATOM     17  C   LIG    1        2.083  12.225   1.593  0.00  0.00    +0.040 C 
ATOM     18  C   LIG    1        2.281  10.791   1.100  0.00  0.00    +0.160 C 
ENDBRANCH  16  18
ENDBRANCH  15  16
ENDBRANCH  14  15
ENDBRANCH  11  14
ENDBRANCH  10  11
ENDBRANCH   1  10
BRANCH   1  19
ATOM     19  C   LIG    1        2.514   4.843  -0.450  0.00  0.00    +0.440 C 
BRANCH  19  20
ATOM     20  C   LIG    1        2.702   5.035  -1.933  0.00  0.00    +0.020 A 
ATOM     21  C   LIG    1        2.818   6.215  -2.563  0.00  0.00    +0.150 A 
ATOM     22  N   LIG    1        2.979   5.949  -3.919  0.00  0.00    -0.420 N 
ATOM     23  C   LIG    1        3.149   6.638  -5.098  0.00  0.00    +0.210 A 
ATOM     24  C   LIG    1        3.260   5.954  -6.223  0.00  0.00    +0.020 A 
ATOM     25  S   LIG    1        3.137   4.248  -5.758  0.00  0.00    +0.160 S 
ATOM     26  C   LIG    1        2.940   4.594  -4.033  0.00  0.00    +0.150 A 
ATOM     27  N   LIG    1        2.775   4.058  -2.847  0.00  0.00    -0.420 NA
ENDBRANCH  19  20
ENDBRANCH   1  19
TORSDOF 10
