REMARK  Name = ZINCvU0000000AAy.1
REMARK                            x       y       z     vdW  Elec       q    Type
REMARK                         _______ _______ _______ _____ _____    ______ ____
ROOT
ATOM      1  N   LIG    1        3.528   0.550  -6.253  0.00  0.00    -0.550 N 
ATOM      2  H   LIG    1        3.490   1.518  -6.205  0.00  0.00    +0.400 HD
ENDROOT
BRANCH   1   3
ATOM      3  C   LIG    1        4.141  -0.066  -7.327  0.00  0.00    +0.510 A 
ATOM      4  C   LIG    1        4.715   0.708  -8.371  0.00  0.00    -0.230 A 
ATOM      5  C   LIG    1        4.800   2.143  -8.536  0.00  0.00    +0.060 A 
ATOM      6  C   LIG    1        5.423   2.539  -9.646  0.00  0.00    -0.140 A 
ATOM      7  S   LIG    1        5.971   1.167 -10.591  0.00  0.00    +0.200 S 
ATOM      8  C   LIG    1        5.325   0.020  -9.426  0.00  0.00    +0.120 A 
ATOM      9  N   LIG    1        5.332  -1.319  -9.411  0.00  0.00    -0.520 NA
ATOM     10  C   LIG    1        4.782  -1.989  -8.425  0.00  0.00    +0.380 A 
ATOM     11  C   LIG    1        4.817  -3.495  -8.459  0.00  0.00    +0.190 C 
ATOM     12  N   LIG    1        4.199  -1.388  -7.404  0.00  0.00    -0.550 NA
BRANCH   6  13
ATOM     13  C   LIG    1        5.627   3.952 -10.031  0.00  0.00    -0.020 A 
ATOM     14  C   LIG    1        5.148   4.977  -9.214  0.00  0.00    +0.020 A 
ATOM     15  C   LIG    1        5.347   6.293  -9.576  0.00  0.00    +0.020 A 
ATOM     16  C   LIG    1        6.008   6.598 -10.752  0.00  0.00    +0.020 A 
ATOM     17  C   LIG    1        6.480   5.587 -11.570  0.00  0.00    +0.020 A 
ATOM     18  C   LIG    1        6.293   4.266 -11.216  0.00  0.00    +0.010 A 
ENDBRANCH   6  13
ENDBRANCH   1   3
BRANCH   1  20
ATOM     19  C   LIG    1        2.384   0.354  -4.223  0.00  0.00    +0.220 C 
ATOM     20  N   LIG    1        2.960  -0.224  -5.232  0.00  0.00    -0.210 NA
BRANCH  19  23
ATOM     21  C   LIG    1        0.606  -0.608  -1.056  0.00  0.00    +0.150 A 
ATOM     22  C   LIG    1        1.166   0.160  -2.062  0.00  0.00    -0.070 A 
ATOM     23  C   LIG    1        1.787  -0.461  -3.149  0.00  0.00    +0.020 A 
ATOM     24  C   LIG    1        1.839  -1.855  -3.217  0.00  0.00    -0.040 A 
ATOM     25  C   LIG    1        1.278  -2.617  -2.208  0.00  0.00    +0.150 A 
ATOM     26  C   LIG    1        0.665  -1.996  -1.124  0.00  0.00    +0.040 A 
BRANCH  21  28
ATOM     27  C   LIG    1       -0.017   1.425   0.010  0.00  0.00    +0.240 C 
ATOM     28  O   LIG    1        0.002  -0.004   0.002  0.00  0.00    -0.300 OA
ENDBRANCH  21  28
BRANCH  25  29
ATOM     29  O   LIG    1        1.329  -3.975  -2.273  0.00  0.00    -0.300 OA
ATOM     30  C   LIG    1        1.978  -4.545  -3.411  0.00  0.00    +0.240 C 
ENDBRANCH  25  29
BRANCH  26  31
ATOM     31  O   LIG    1        0.119  -2.748  -0.131  0.00  0.00    -0.310 OA
ATOM     32  C   LIG    1       -1.252  -3.123  -0.281  0.00  0.00    +0.230 C 
ENDBRANCH  26  31
ENDBRANCH  19  23
ENDBRANCH   1  20
TORSDOF 7
