REMARK  Name = ZINCvU0000000AAy.0
REMARK                            x       y       z     vdW  Elec       q    Type
REMARK                         _______ _______ _______ _____ _____    ______ ____
ROOT
ATOM      1  C   LIG    1       -1.792   1.183   3.156  0.00  0.00    +0.360 A 
ATOM      2  C   LIG    1       -2.321   0.257   4.098  0.00  0.00    -0.130 A 
ATOM      3  C   LIG    1       -2.298  -1.142   4.096  0.00  0.00    +0.070 A 
ATOM      4  C   LIG    1       -2.884  -1.730   5.144  0.00  0.00    -0.120 A 
ATOM      5  S   LIG    1       -3.524  -0.529   6.253  0.00  0.00    +0.210 S 
ATOM      6  C   LIG    1       -2.961   0.787   5.231  0.00  0.00    +0.080 A 
ATOM      7  N   LIG    1       -3.052   2.110   5.368  0.00  0.00    -0.470 NA
ATOM      8  C   LIG    1       -2.550   2.923   4.465  0.00  0.00    +0.340 A 
ATOM      9  C   LIG    1       -2.682   4.410   4.671  0.00  0.00    +0.180 C 
ATOM     10  N   LIG    1       -1.935   2.483   3.386  0.00  0.00    -0.500 NA
ENDROOT
BRANCH   4  11
ATOM     11  C   LIG    1       -2.979  -3.191   5.342  0.00  0.00    -0.030 A 
ATOM     12  C   LIG    1       -2.441  -4.064   4.395  0.00  0.00    +0.030 A 
ATOM     13  C   LIG    1       -2.529  -5.427   4.589  0.00  0.00    +0.020 A 
ATOM     14  C   LIG    1       -3.158  -5.929   5.714  0.00  0.00    +0.020 A 
ATOM     15  C   LIG    1       -3.699  -5.070   6.654  0.00  0.00    +0.020 A 
ATOM     16  C   LIG    1       -3.614  -3.705   6.475  0.00  0.00    +0.010 A 
ENDBRANCH   4  11
BRANCH   1  18
ATOM     17  N   LIG    1       -0.698   1.558   1.213  0.00  0.00    -0.140 NA
ATOM     18  N   LIG    1       -1.151   0.742   2.030  0.00  0.00    -0.200 NA
BRANCH  17  19
ATOM     19  C   LIG    1       -0.013   1.086   0.008  0.00  0.00    +0.260 C 
BRANCH  19  22
ATOM     20  C   LIG    1       -1.065   3.264  -2.896  0.00  0.00    +0.150 A 
ATOM     21  C   LIG    1       -0.397   2.801  -1.772  0.00  0.00    -0.070 A 
ATOM     22  C   LIG    1       -0.742   1.585  -1.213  0.00  0.00    -0.010 A 
ATOM     23  C   LIG    1       -1.750   0.823  -1.774  0.00  0.00    -0.080 A 
ATOM     24  C   LIG    1       -2.426   1.282  -2.893  0.00  0.00    +0.150 A 
ATOM     25  C   LIG    1       -2.083   2.504  -3.459  0.00  0.00    +0.040 A 
BRANCH  20  27
ATOM     26  C   LIG    1        0.331   5.188  -2.814  0.00  0.00    +0.240 C 
ATOM     27  O   LIG    1       -0.725   4.461  -3.445  0.00  0.00    -0.300 OA
ENDBRANCH  20  27
BRANCH  24  28
ATOM     28  O   LIG    1       -3.422   0.534  -3.441  0.00  0.00    -0.300 OA
ATOM     29  C   LIG    1       -3.721  -0.712  -2.807  0.00  0.00    +0.250 C 
ENDBRANCH  24  28
BRANCH  25  30
ATOM     30  O   LIG    1       -2.741   2.955  -4.561  0.00  0.00    -0.310 OA
ATOM     31  C   LIG    1       -2.205   2.585  -5.833  0.00  0.00    +0.220 C 
ENDBRANCH  25  30
ENDBRANCH  19  22
ENDBRANCH  17  19
ENDBRANCH   1  18
TORSDOF 7
