REMARK  Name = ZINCvU0000000CwR.0
REMARK                            x       y       z     vdW  Elec       q    Type
REMARK                         _______ _______ _______ _____ _____    ______ ____
ROOT
ATOM      1  C   LIG    1        0.358   1.460  -0.126  0.00  0.00    +0.120 C 
ENDROOT
BRANCH   1   2
ATOM      2  C   LIG    1       -0.322   1.922   1.137  0.00  0.00    +0.540 C 
ATOM      3  N   LIG    1        0.375   2.000   2.287  0.00  0.00    -0.590 N 
ATOM      4  C   LIG    1        1.794   1.637   2.310  0.00  0.00    +0.290 C 
ATOM      5  O   LIG    1       -1.497   2.223   1.118  0.00  0.00    -0.520 OA
BRANCH   3   6
ATOM      6  C   LIG    1       -0.286   2.449   3.515  0.00  0.00    +0.350 C 
ATOM      7  C   LIG    1        0.410   3.708   4.038  0.00  0.00    +0.070 C 
BRANCH   6   8
ATOM      8  C   LIG    1       -0.205   1.362   4.556  0.00  0.00    +0.070 A 
ATOM      9  N   LIG    1        0.851   0.687   4.811  0.00  0.00    -0.450 NA
ATOM     10  C   LIG    1        0.779  -0.254   5.772  0.00  0.00    +0.080 A 
ATOM     11  C   LIG    1        1.776  -1.126   6.254  0.00  0.00    +0.080 A 
ATOM     12  C   LIG    1        1.492  -2.020   7.241  0.00  0.00    +0.030 A 
ATOM     13  C   LIG    1        0.220  -2.090   7.791  0.00  0.00    +0.040 A 
ATOM     14  C   LIG    1       -0.774  -1.250   7.340  0.00  0.00    +0.060 A 
ATOM     15  C   LIG    1       -0.501  -0.329   6.331  0.00  0.00    -0.180 A 
ATOM     16  S   LIG    1       -1.514   0.871   5.534  0.00  0.00    +0.120 S 
ENDBRANCH   6   8
ENDBRANCH   3   6
ENDBRANCH   1   2
BRANCH   1  17
ATOM     17  S   LIG    1       -0.834   1.462  -1.489  0.00  0.00    +0.080 S 
BRANCH  17  19
ATOM     18  N   LIG    1       -0.176   0.697  -4.097  0.00  0.00    -0.450 N 
ATOM     19  C   LIG    1        0.199   0.898  -2.800  0.00  0.00    +0.140 A 
ATOM     20  N   LIG    1        1.473   0.587  -2.710  0.00  0.00    -0.290 NA
ATOM     21  N   LIG    1        1.918   0.213  -3.856  0.00  0.00    -0.270 NA
ATOM     22  C   LIG    1        0.956   0.262  -4.748  0.00  0.00    +0.230 A 
BRANCH  22  23
ATOM     23  C   LIG    1        1.066  -0.089  -6.180  0.00  0.00    -0.020 A 
ATOM     24  C   LIG    1        1.931  -1.105  -6.588  0.00  0.00    +0.060 A 
ATOM     25  C   LIG    1        2.026  -1.431  -7.925  0.00  0.00    +0.010 A 
ATOM     26  C   LIG    1        1.273  -0.746  -8.862  0.00  0.00    +0.030 A 
ATOM     27  C   LIG    1        0.417   0.266  -8.465  0.00  0.00    +0.010 A 
ATOM     28  C   LIG    1        0.309   0.598  -7.130  0.00  0.00    +0.010 A 
ENDBRANCH  22  23
BRANCH  18  29
ATOM     29  C   LIG    1       -1.506   0.904  -4.676  0.00  0.00    +0.350 C 
BRANCH  29  31
ATOM     30  C   LIG    1       -2.046   2.691  -6.250  0.00  0.00    +0.060 C 
ATOM     31  C   LIG    1       -1.676   2.357  -5.039  0.00  0.00    -0.070 C 
ENDBRANCH  29  31
ENDBRANCH  18  29
ENDBRANCH  17  19
ENDBRANCH   1  17
TORSDOF 8
