REMARK  Name = ZINCvU000000050l.0
REMARK                            x       y       z     vdW  Elec       q    Type
REMARK                         _______ _______ _______ _____ _____    ______ ____
ROOT
ATOM      1  N   LIG    1       -2.068   2.379   3.441  0.00  0.00    -0.410 N 
ATOM      2  C   LIG    1       -1.371   1.964   4.542  0.00  0.00    +0.170 A 
ATOM      3  N   LIG    1       -0.964   3.043   5.174  0.00  0.00    -0.290 NA
ATOM      4  N   LIG    1       -1.354   4.095   4.548  0.00  0.00    -0.270 NA
ATOM      5  C   LIG    1       -2.030   3.756   3.475  0.00  0.00    +0.240 A 
ENDROOT
BRANCH   5   6
ATOM      6  C   LIG    1       -2.639   4.676   2.492  0.00  0.00    -0.030 A 
ATOM      7  C   LIG    1       -3.053   4.198   1.247  0.00  0.00    +0.020 A 
ATOM      8  C   LIG    1       -3.626   5.062   0.337  0.00  0.00    +0.010 A 
ATOM      9  C   LIG    1       -3.780   6.401   0.650  0.00  0.00    -0.070 A 
ATOM     10  C   LIG    1       -3.367   6.881   1.880  0.00  0.00    +0.010 A 
ATOM     11  C   LIG    1       -4.401   7.339  -0.352  0.00  0.00    +0.090 C 
ATOM     12  C   LIG    1       -2.798   6.028   2.802  0.00  0.00    +0.070 A 
ENDBRANCH   5   6
BRANCH   1  17
ATOM     13  C   LIG    1       -4.614   0.378   1.684  0.00  0.00    +0.110 A 
ATOM     14  C   LIG    1       -3.903  -0.031   0.566  0.00  0.00    +0.000 A 
ATOM     15  C   LIG    1       -2.587   0.360   0.399  0.00  0.00    -0.010 A 
ATOM     16  C   LIG    1       -1.976   1.163   1.348  0.00  0.00    +0.120 A 
ATOM     17  C   LIG    1       -2.686   1.571   2.475  0.00  0.00    +0.110 A 
ATOM     18  C   LIG    1       -4.007   1.181   2.638  0.00  0.00    +0.060 A 
BRANCH  13  20
ATOM     19  C   LIG    1       -6.470  -0.835   0.824  0.00  0.00    +0.250 C 
ATOM     20  O   LIG    1       -5.907  -0.008   1.845  0.00  0.00    -0.310 OA
ENDBRANCH  13  20
BRANCH  16  21
ATOM     21  O   LIG    1       -0.682   1.547   1.184  0.00  0.00    -0.300 OA
ATOM     22  C   LIG    1       -0.013   1.086   0.008  0.00  0.00    +0.250 C 
ENDBRANCH  16  21
ENDBRANCH   1  17
BRANCH   2  23
ATOM     23  S   LIG    1       -1.074   0.296   5.025  0.00  0.00    +0.020 S 
BRANCH  23  24
ATOM     24  C   LIG    1       -0.115   0.571   6.534  0.00  0.00    +0.160 C 
BRANCH  24  25
ATOM     25  C   LIG    1        0.262  -0.757   7.139  0.00  0.00    -0.090 A 
ATOM     26  C   LIG    1       -0.573  -1.357   8.063  0.00  0.00    +0.040 A 
ATOM     27  C   LIG    1       -0.230  -2.578   8.614  0.00  0.00    +0.010 A 
ATOM     28  C   LIG    1        0.953  -3.193   8.250  0.00  0.00    -0.080 A 
ATOM     29  C   LIG    1        1.790  -2.590   7.330  0.00  0.00    +0.010 A 
ATOM     30  C   LIG    1        1.329  -4.521   8.855  0.00  0.00    +0.090 C 
ATOM     31  C   LIG    1        1.445  -1.372   6.775  0.00  0.00    +0.040 A 
ENDBRANCH  24  25
ENDBRANCH  23  24
ENDBRANCH   2  23
TORSDOF 7
