REMARK  Name = ZINCqH0000002Gws.0
REMARK                            x       y       z     vdW  Elec       q    Type
REMARK                         _______ _______ _______ _____ _____    ______ ____
ROOT
ATOM      1  N   LIG    1       -0.933   3.091  -2.938  0.00  0.00    -0.740 N 
ATOM      2  H   LIG    1       -1.658   2.563  -3.307  0.00  0.00    +0.400 HD
ATOM      3  C   LIG    1       -0.350   2.720  -1.781  0.00  0.00    +0.720 C 
ATOM      4  N   LIG    1       -0.706   1.563  -1.188  0.00  0.00    -0.620 N 
ATOM      5  C   LIG    1       -0.011   1.084   0.008  0.00  0.00    +0.280 C 
ATOM      6  C   LIG    1        0.556  -0.314  -0.289  0.00  0.00    +0.240 C 
ATOM      7  O   LIG    1        0.907  -0.361  -1.675  0.00  0.00    -0.320 OA
ATOM      8  C   LIG    1       -0.004  -0.795  -2.585  0.00  0.00    +0.160 A 
ATOM      9  C   LIG    1        0.399  -1.803  -3.460  0.00  0.00    -0.010 A 
ATOM     10  C   LIG    1       -0.451  -2.253  -4.448  0.00  0.00    +0.080 A 
ATOM     11  C   LIG    1       -1.713  -1.704  -4.578  0.00  0.00    -0.030 A 
ATOM     12  C   LIG    1       -2.127  -0.721  -3.698  0.00  0.00    +0.130 A 
ATOM     13  F   LIG    1       -3.362  -0.187  -3.821  0.00  0.00    -0.130 F 
ATOM     14  C   LIG    1       -1.282  -0.280  -2.688  0.00  0.00    -0.200 A 
ATOM     15  C   LIG    1       -1.798   0.749  -1.720  0.00  0.00    +0.340 C 
ATOM     16  O   LIG    1        0.496   3.429  -1.272  0.00  0.00    -0.580 OA
ENDROOT
BRANCH   1  17
ATOM     17  C   LIG    1       -0.470   4.292  -3.639  0.00  0.00    +0.330 C 
BRANCH  17  21
ATOM     18  C   LIG    1       -2.766   4.834  -7.203  0.00  0.00    +0.140 A 
ATOM     19  C   LIG    1       -3.186   5.408  -6.012  0.00  0.00    -0.020 A 
ATOM     20  C   LIG    1       -2.442   5.231  -4.861  0.00  0.00    +0.070 A 
ATOM     21  C   LIG    1       -1.280   4.483  -4.896  0.00  0.00    -0.150 A 
ATOM     22  C   LIG    1       -0.857   3.914  -6.083  0.00  0.00    +0.070 A 
ATOM     23  C   LIG    1       -1.600   4.083  -7.235  0.00  0.00    -0.080 A 
BRANCH  18  24
ATOM     24  O   LIG    1       -3.496   5.007  -8.336  0.00  0.00    -0.310 OA
BRANCH  24  25
ATOM     25  C   LIG    1       -3.004   4.386  -9.526  0.00  0.00    +0.180 C 
BRANCH  25  27
ATOM     26  C   LIG    1       -3.424   4.026 -11.962  0.00  0.00    +0.040 C 
ATOM     27  C   LIG    1       -3.950   4.690 -10.688  0.00  0.00    +0.020 C 
ENDBRANCH  25  27
ENDBRANCH  24  25
ENDBRANCH  18  24
ENDBRANCH  17  21
ENDBRANCH   1  17
TORSDOF 5
