REMARK  Name = ZINCqH0000000vwC.0
REMARK                            x       y       z     vdW  Elec       q    Type
REMARK                         _______ _______ _______ _____ _____    ______ ____
ROOT
ATOM      1  C   LIG    1       -1.189   2.131  -0.024  0.00  0.00    +0.590 C 
ATOM      2  N   LIG    1       -0.239   1.738   0.847  0.00  0.00    -0.610 N 
ATOM      3  C   LIG    1        1.077   2.392   0.866  0.00  0.00    +0.280 C 
ATOM      4  C   LIG    1        1.375   2.859   2.294  0.00  0.00    +0.030 C 
ATOM      5  C   LIG    1        1.250   1.672   3.252  0.00  0.00    +0.010 C 
ATOM      6  C   LIG    1       -0.180   1.129   3.210  0.00  0.00    +0.020 C 
ATOM      7  C   LIG    1       -0.496   0.642   1.792  0.00  0.00    +0.260 C 
ATOM      8  O   LIG    1       -0.997   3.098  -0.738  0.00  0.00    -0.520 OA
ENDROOT
BRANCH   1  13
ATOM      9  C   LIG    1       -4.612   0.874  -0.372  0.00  0.00    -0.250 A 
ATOM     10  C   LIG    1       -3.907  -0.284  -0.081  0.00  0.00    +0.100 A 
ATOM     11  N   LIG    1       -2.613   0.037   0.069  0.00  0.00    -0.530 N 
ATOM     12  H   LIG    1       -1.900  -0.588   0.273  0.00  0.00    +0.420 HD
ATOM     13  C   LIG    1       -2.456   1.395  -0.110  0.00  0.00    -0.060 A 
ATOM     14  C   LIG    1       -4.493  -1.667   0.040  0.00  0.00    +0.160 C 
ATOM     15  C   LIG    1       -3.675   1.935  -0.387  0.00  0.00    -0.040 A 
ATOM     16  C   LIG    1       -3.971   3.388  -0.658  0.00  0.00    +0.120 C 
BRANCH   9  18
ATOM     17  C   LIG    1       -6.588   0.877  -2.023  0.00  0.00    +0.060 C 
ATOM     18  C   LIG    1       -6.054   0.979  -0.617  0.00  0.00    +0.440 C 
ATOM     19  O   LIG    1       -6.816   1.147   0.311  0.00  0.00    -0.450 OA
ENDBRANCH   9  18
ENDBRANCH   1  13
BRANCH   5  20
ATOM     20  C   LIG    1        1.581   2.127   4.674  0.00  0.00    +0.180 C 
BRANCH  20  21
ATOM     21  O   LIG    1        2.951   2.525   4.740  0.00  0.00    -0.310 OA
BRANCH  21  22
ATOM     22  C   LIG    1        3.410   2.960   5.943  0.00  0.00    +0.130 A 
ATOM     23  C   LIG    1        2.557   3.008   7.036  0.00  0.00    -0.080 A 
ATOM     24  C   LIG    1        3.027   3.446   8.259  0.00  0.00    +0.040 A 
ATOM     25  C   LIG    1        4.344   3.845   8.392  0.00  0.00    -0.040 A 
ATOM     26  C   LIG    1        5.195   3.804   7.303  0.00  0.00    +0.050 A 
ATOM     27  C   LIG    1        4.731   3.362   6.079  0.00  0.00    -0.020 A 
ENDBRANCH  21  22
ENDBRANCH  20  21
ENDBRANCH   5  20
TORSDOF 5
