REMARK  Name = ZINCqH0000008w2f.0
REMARK                            x       y       z     vdW  Elec       q    Type
REMARK                         _______ _______ _______ _____ _____    ______ ____
ROOT
ATOM      1  C   LIG    1       -2.477   3.857   0.048  0.00  0.00    +0.190 A 
ATOM      2  N   LIG    1       -3.585   3.130   0.054  0.00  0.00    -0.530 NA
ATOM      3  C   LIG    1       -3.542   1.799   0.045  0.00  0.00    +0.380 A 
ATOM      4  N   LIG    1       -2.409   1.121   0.030  0.00  0.00    -0.500 NA
ATOM      5  C   LIG    1       -1.233   1.764   0.018  0.00  0.00    +0.180 A 
ATOM      6  C   LIG    1       -0.013   1.076   0.008  0.00  0.00    +0.040 A 
ATOM      7  C   LIG    1        1.157   1.778   0.001  0.00  0.00    +0.070 A 
ATOM      8  C   LIG    1        1.157   3.169   0.009  0.00  0.00    +0.030 A 
ATOM      9  C   LIG    1       -0.014   3.871   0.024  0.00  0.00    +0.070 A 
ATOM     10  C   LIG    1       -1.230   3.181   0.032  0.00  0.00    -0.140 A 
ENDROOT
BRANCH   3  11
ATOM     11  C   LIG    1       -4.820   1.047   0.052  0.00  0.00    -0.030 A 
ATOM     12  C   LIG    1       -4.811  -0.347   0.038  0.00  0.00    +0.090 A 
ATOM     13  C   LIG    1       -6.003  -1.042   0.050  0.00  0.00    +0.040 A 
ATOM     14  C   LIG    1       -7.206  -0.358   0.065  0.00  0.00    -0.070 A 
ATOM     15  C   LIG    1       -7.220   1.026   0.074  0.00  0.00    +0.040 A 
ATOM     16 BR   LIG    1       -8.835  -1.317   0.074  0.00  0.00    -0.040 Br
ATOM     17  C   LIG    1       -6.034   1.731   0.068  0.00  0.00    +0.070 A 
ENDBRANCH   3  11
BRANCH   1  18
ATOM     18  S   LIG    1       -2.551   5.617   0.059  0.00  0.00    +0.070 S 
BRANCH  18  20
ATOM     19  C   LIG    1       -4.943   5.328  -1.227  0.00  0.00    +0.090 C 
ATOM     20  C   LIG    1       -4.345   5.856   0.078  0.00  0.00    +0.010 C 
BRANCH  20  21
ATOM     21  C   LIG    1       -4.655   7.325   0.214  0.00  0.00    +0.540 C 
ATOM     22  N   LIG    1       -5.830   7.720   0.744  0.00  0.00    -0.680 N 
ATOM     23  H   LIG    1       -6.476   7.058   1.037  0.00  0.00    +0.410 HD
ATOM     24  C   LIG    1       -6.106   9.033   0.866  0.00  0.00    +0.700 C 
ATOM     25  O   LIG    1       -5.297   9.861   0.498  0.00  0.00    -0.530 OA
ATOM     26  N   LIG    1       -7.281   9.428   1.395  0.00  0.00    -0.850 N 
ATOM     27  H   LIG    1       -7.481  10.373   1.483  0.00  0.00    +0.420 HD
ATOM     28  H   LIG    1       -7.928   8.766   1.689  0.00  0.00    +0.400 HD
ATOM     29  O   LIG    1       -3.847   8.151  -0.153  0.00  0.00    -0.450 OA
ENDBRANCH  20  21
ENDBRANCH  18  20
ENDBRANCH   1  18
TORSDOF 4
