REMARK  Name = ZINCqH0000038W2f.0
REMARK                            x       y       z     vdW  Elec       q    Type
REMARK                         _______ _______ _______ _____ _____    ______ ____
ROOT
ATOM      1  C   LIG    1        1.439   4.408   0.015  0.00  0.00    +0.410 C 
ENDROOT
BRANCH   1   2
ATOM      2  C   LIG    1        1.391   5.030  -1.356  0.00  0.00    -0.110 A 
ATOM      3  C   LIG    1        0.302   5.795  -1.731  0.00  0.00    +0.080 A 
ATOM      4  C   LIG    1        0.261   6.371  -2.986  0.00  0.00    -0.010 A 
ATOM      5  C   LIG    1        1.305   6.173  -3.873  0.00  0.00    +0.110 A 
ATOM      6  C   LIG    1        2.393   5.403  -3.499  0.00  0.00    -0.010 A 
ATOM      7  F   LIG    1        1.263   6.731  -5.103  0.00  0.00    -0.140 F 
ATOM      8  C   LIG    1        2.435   4.832  -2.241  0.00  0.00    +0.060 A 
ENDBRANCH   1   2
BRANCH   1  14
ATOM      9  C   LIG    1        2.474   1.488  -0.004  0.00  0.00    +0.320 C 
ATOM     10  N   LIG    1        1.067   1.892   0.021  0.00  0.00    -0.450 N 
ATOM     11  C   LIG    1       -0.018   1.058   0.039  0.00  0.00    +0.130 A 
ATOM     12  C   LIG    1       -1.113   1.841   0.052  0.00  0.00    +0.140 A 
ATOM     13  N   LIG    1       -0.708   3.120   0.051  0.00  0.00    -0.470 NA
ATOM     14  C   LIG    1        0.597   3.158   0.029  0.00  0.00    +0.190 A 
ENDBRANCH   1  14
BRANCH   1  15
ATOM     15  N   LIG    1        0.918   5.358   1.001  0.00  0.00    -0.720 N 
ATOM     16  H   LIG    1        0.298   6.051   0.726  0.00  0.00    +0.410 HD
ATOM     17  C   LIG    1        1.301   5.270   2.290  0.00  0.00    +0.720 C 
ATOM     18  N   LIG    1        0.822   6.144   3.197  0.00  0.00    -0.680 N 
ATOM     19  H   LIG    1        0.267   6.886   2.909  0.00  0.00    +0.410 HD
ATOM     20  O   LIG    1        2.078   4.401   2.635  0.00  0.00    -0.570 OA
BRANCH  18  21
ATOM     21  C   LIG    1        1.125   5.981   4.556  0.00  0.00    +0.130 A 
ATOM     22  C   LIG    1        1.448   4.726   5.050  0.00  0.00    +0.090 A 
ATOM     23  C   LIG    1        1.753   4.568   6.389  0.00  0.00    +0.010 A 
ATOM     24  C   LIG    1        1.724   5.659   7.240  0.00  0.00    +0.110 A 
ATOM     25  C   LIG    1        1.396   6.913   6.752  0.00  0.00    -0.020 A 
ATOM     26  F   LIG    1        2.017   5.501   8.550  0.00  0.00    -0.130 F 
ATOM     27  C   LIG    1        1.097   7.077   5.412  0.00  0.00    +0.100 A 
ATOM     28  F   LIG    1        0.777   8.300   4.935  0.00  0.00    -0.130 F 
ENDBRANCH  18  21
ENDBRANCH   1  15
TORSDOF 4
