REMARK  Name = ZINCrH000004pSe5.0
REMARK                            x       y       z     vdW  Elec       q    Type
REMARK                         _______ _______ _______ _____ _____    ______ ____
ROOT
ATOM      1  C   LIG    1        1.901   3.567   1.460  0.00  0.00    -0.010 C 
ATOM      2  C   LIG    1        0.531   3.709   2.128  0.00  0.00    +0.040 C 
ATOM      3  C   LIG    1        0.715   4.234   3.553  0.00  0.00    +0.190 C 
ATOM      4  N   LIG    1        1.396   5.534   3.513  0.00  0.00    -0.490 N 
ATOM      5  C   LIG    1        2.734   5.414   2.920  0.00  0.00    +0.200 C 
ATOM      6  C   LIG    1        2.610   4.924   1.475  0.00  0.00    +0.050 C 
ENDROOT
BRANCH   4   7
ATOM      7  C   LIG    1        1.462   6.096   4.771  0.00  0.00    +0.400 A 
ATOM      8  N   LIG    1        2.123   5.496   5.751  0.00  0.00    -0.550 NA
ATOM      9  C   LIG    1        2.193   6.025   6.963  0.00  0.00    +0.510 A 
ATOM     10  N   LIG    1        1.624   7.164   7.278  0.00  0.00    -0.500 NA
ATOM     11  C   LIG    1        0.931   7.855   6.361  0.00  0.00    +0.130 A 
ATOM     12  C   LIG    1        0.310   9.076   6.663  0.00  0.00    +0.110 A 
ATOM     13  C   LIG    1       -0.369   9.746   5.686  0.00  0.00    +0.040 A 
ATOM     14  C   LIG    1       -0.469   9.228   4.399  0.00  0.00    +0.040 A 
ATOM     15  C   LIG    1        0.118   8.040   4.074  0.00  0.00    +0.090 A 
ATOM     16  F   LIG    1        0.397   9.594   7.908  0.00  0.00    -0.120 F 
ATOM     17  C   LIG    1        0.831   7.334   5.048  0.00  0.00    -0.120 A 
ENDBRANCH   4   7
BRANCH   1  18
ATOM     18  C   LIG    1        1.721   3.100   0.015  0.00  0.00    +0.200 C 
BRANCH  18  22
ATOM     19  C   LIG    1       -0.185   0.058  -0.016  0.00  0.00    +0.200 A 
ATOM     20  N   LIG    1        1.041  -0.373  -0.003  0.00  0.00    -0.380 NA
ATOM     21  O   LIG    1        1.815   0.561   0.009  0.00  0.00    +0.080 OA
ATOM     22  C   LIG    1        1.135   1.712   0.004  0.00  0.00    +0.180 A 
ATOM     23  N   LIG    1       -0.139   1.402  -0.011  0.00  0.00    -0.470 NA
BRANCH  19  27
ATOM     24  C   LIG    1       -3.080  -1.987   1.607  0.00  0.00    +0.070 C 
ATOM     25  C   LIG    1       -1.643  -1.754   1.138  0.00  0.00    -0.020 C 
ATOM     26  C   LIG    1       -1.253  -2.298  -0.238  0.00  0.00    +0.060 C 
ATOM     27  C   LIG    1       -1.429  -0.792  -0.033  0.00  0.00    +0.060 C 
ENDBRANCH  19  27
ENDBRANCH  18  22
ENDBRANCH   1  18
TORSDOF 4
