REMARK  Name = ZINCnE000001TDGr.0
REMARK                            x       y       z     vdW  Elec       q    Type
REMARK                         _______ _______ _______ _____ _____    ______ ____
ROOT
ATOM      1  C   LIG    1       -0.014  -0.217  -4.832  0.00  0.00    +0.090 C 
ATOM      2  C   LIG    1       -1.305   0.552  -4.541  0.00  0.00    +0.040 C 
ATOM      3  C   LIG    1       -0.988   1.752  -3.643  0.00  0.00    +0.270 C 
ATOM      4  N   LIG    1       -0.288   1.272  -2.443  0.00  0.00    -0.610 N 
ATOM      5  C   LIG    1        0.918   0.451  -2.610  0.00  0.00    +0.270 C 
ATOM      6  C   LIG    1       -0.742   1.585  -1.213  0.00  0.00    +0.520 C 
ATOM      7  O   LIG    1       -1.736   2.268  -1.088  0.00  0.00    -0.540 OA
ATOM      8  C   LIG    1        0.577  -0.739  -3.520  0.00  0.00    +0.040 C 
ENDROOT
BRANCH   1  12
ATOM      9  C   LIG    1       -0.545  -3.096  -7.493  0.00  0.00    -0.240 A 
ATOM     10  C   LIG    1       -1.290  -3.283  -6.359  0.00  0.00    +0.220 A 
ATOM     11  N   LIG    1       -1.132  -2.344  -5.462  0.00  0.00    -0.470 NA
ATOM     12  C   LIG    1       -0.316  -1.379  -5.743  0.00  0.00    -0.010 A 
ATOM     13  S   LIG    1        0.366  -1.601  -7.295  0.00  0.00    +0.150 S 
BRANCH   9  15
ATOM     14  O   LIG    1       -1.201  -4.991  -8.680  0.00  0.00    -0.670 OA
ATOM     15  C   LIG    1       -0.515  -3.976  -8.660  0.00  0.00    +0.550 C 
ATOM     16  O   LIG    1        0.195  -3.699  -9.618  0.00  0.00    -0.680 OA
ENDBRANCH   9  15
ENDBRANCH   1  12
BRANCH   6  17
ATOM     17  C   LIG    1       -0.013   1.086   0.008  0.00  0.00    +0.090 C 
BRANCH  17  18
ATOM     18  C   LIG    1       -0.718   1.572   1.248  0.00  0.00    -0.100 C 
ATOM     19  C   LIG    1       -1.579   0.782   1.805  0.00  0.00    -0.050 C 
ATOM     20  C   LIG    1       -2.366   1.130   3.035  0.00  0.00    +0.050 C 
ATOM     21  C   LIG    1       -1.719   2.314   3.757  0.00  0.00    +0.000 C 
ATOM     22  C   LIG    1       -1.458   3.424   2.731  0.00  0.00    +0.010 C 
ATOM     23  C   LIG    1       -0.374   2.938   1.763  0.00  0.00    +0.060 C 
ENDBRANCH  17  18
ENDBRANCH   6  17
TORSDOF 4
