REMARK  Name = ZINCrH00000No4yM.0
REMARK                            x       y       z     vdW  Elec       q    Type
REMARK                         _______ _______ _______ _____ _____    ______ ____
ROOT
ATOM      1  N   LIG    1        1.419  -4.500   0.065  0.00  0.00    -0.600 N 
ATOM      2  C   LIG    1        1.864  -3.232  -0.037  0.00  0.00    +0.590 C 
ATOM      3  O   LIG    1        3.056  -3.013  -0.151  0.00  0.00    -0.520 OA
ENDROOT
BRANCH   2   4
ATOM      4  C   LIG    1        0.911  -2.115  -0.010  0.00  0.00    -0.210 A 
ATOM      5  C   LIG    1       -0.023  -1.862   0.950  0.00  0.00    +0.280 A 
ATOM      6  N   LIG    1       -0.718  -0.743   0.631  0.00  0.00    -0.580 N 
ATOM      7  H   LIG    1       -1.435  -0.365   1.164  0.00  0.00    +0.420 HD
ATOM      8  C   LIG    1       -0.261  -0.216  -0.560  0.00  0.00    +0.120 A 
ATOM      9  C   LIG    1       -0.625   0.897  -1.310  0.00  0.00    -0.020 A 
ATOM     10  C   LIG    1        0.032   1.177  -2.491  0.00  0.00    +0.120 A 
ATOM     11  C   LIG    1        1.058   0.355  -2.940  0.00  0.00    -0.030 A 
ATOM     12  C   LIG    1        1.432  -0.752  -2.210  0.00  0.00    +0.100 A 
ATOM     13  F   LIG    1       -0.326   2.259  -3.216  0.00  0.00    -0.130 F 
ATOM     14  C   LIG    1        0.776  -1.045  -1.017  0.00  0.00    -0.080 A 
ENDBRANCH   2   4
BRANCH   1  15
ATOM     15  C   LIG    1        2.374  -5.606   0.164  0.00  0.00    +0.400 C 
BRANCH  15  22
ATOM     16  C   LIG    1        0.844  -7.620   2.196  0.00  0.00    +0.160 C 
ATOM     17  C   LIG    1        2.030  -6.744   2.505  0.00  0.00    +0.030 A 
ATOM     18  N   LIG    1        2.649  -6.643   3.646  0.00  0.00    -0.370 NA
ATOM     19  O   LIG    1        3.566  -5.857   3.587  0.00  0.00    +0.090 OA
ATOM     20  C   LIG    1        3.680  -5.323   2.363  0.00  0.00    -0.000 A 
ATOM     21  C   LIG    1        4.704  -4.315   1.910  0.00  0.00    +0.200 C 
ATOM     22  C   LIG    1        2.691  -5.868   1.613  0.00  0.00    -0.230 A 
ENDBRANCH  15  22
ENDBRANCH   1  15
BRANCH   1  23
ATOM     23  C   LIG    1       -0.021  -4.772   0.077  0.00  0.00    +0.260 C 
BRANCH  23  24
ATOM     24  C   LIG    1       -0.488  -5.104  -1.342  0.00  0.00    +0.150 C 
ATOM     25  C   LIG    1       -2.022  -5.280  -1.360  0.00  0.00    +0.010 C 
ATOM     26  C   LIG    1       -2.206  -6.475  -2.334  0.00  0.00    +0.000 C 
ATOM     27  C   LIG    1       -0.939  -7.309  -2.020  0.00  0.00    +0.200 C 
ATOM     28  O   LIG    1        0.094  -6.342  -1.768  0.00  0.00    -0.370 OA
ENDBRANCH  23  24
ENDBRANCH   1  23
TORSDOF 5
