REMARK  Name = ZINCrg000000rvx0.0
REMARK                            x       y       z     vdW  Elec       q    Type
REMARK                         _______ _______ _______ _____ _____    ______ ____
ROOT
ATOM      1  C   LIG    1       -0.014   1.209   0.009  0.00  0.00    +0.510 C 
ATOM      2  N   LIG    1       -1.191   1.867   0.018  0.00  0.00    -0.610 N 
ATOM      3  C   LIG    1       -1.236   3.337   0.032  0.00  0.00    +0.260 C 
ATOM      4  C   LIG    1       -2.180   3.799  -1.089  0.00  0.00    +0.220 C 
ATOM      5  O   LIG    1       -3.433   3.124  -0.954  0.00  0.00    -0.370 OA
ATOM      6  C   LIG    1       -3.352   1.704  -1.095  0.00  0.00    +0.200 C 
ATOM      7  C   LIG    1       -2.468   1.135   0.020  0.00  0.00    +0.270 C 
ATOM      8  O   LIG    1        0.002  -0.004   0.002  0.00  0.00    -0.520 OA
ENDROOT
BRANCH   6   9
ATOM      9  C   LIG    1       -4.733   1.108  -0.996  0.00  0.00    -0.070 A 
ATOM     10  C   LIG    1       -5.669   1.671  -0.149  0.00  0.00    +0.030 A 
ATOM     11  C   LIG    1       -6.937   1.127  -0.056  0.00  0.00    +0.030 A 
ATOM     12  C   LIG    1       -7.271   0.019  -0.809  0.00  0.00    -0.010 A 
ATOM     13  C   LIG    1       -6.333  -0.549  -1.660  0.00  0.00    +0.110 A 
ATOM     14  C   LIG    1       -5.064   0.003  -1.756  0.00  0.00    +0.000 A 
BRANCH  13  15
ATOM     15  O   LIG    1       -6.659  -1.640  -2.401  0.00  0.00    -0.500 OA
ATOM     16  H   LIG    1       -7.028  -1.429  -3.270  0.00  0.00    +0.390 HD
ENDBRANCH  13  15
ENDBRANCH   6   9
BRANCH   1  17
ATOM     17  C   LIG    1        1.280   1.980   0.001  0.00  0.00    +0.360 C 
BRANCH  17  23
ATOM     18  C   LIG    1        3.861  -1.798   1.068  0.00  0.00    +0.100 C 
ATOM     19  C   LIG    1        4.101  -0.363   0.595  0.00  0.00    +0.160 C 
ATOM     20  N   LIG    1        3.990  -0.274  -0.871  0.00  0.00    -0.720 N 
ATOM     21  H   LIG    1        4.542  -0.734  -1.523  0.00  0.00    +0.440 HD
ATOM     22  C   LIG    1        2.974   0.569  -1.130  0.00  0.00    +0.710 C 
ATOM     23  N   LIG    1        2.407   1.043  -0.015  0.00  0.00    -0.560 N 
ATOM     24  O   LIG    1        2.612   0.867  -2.252  0.00  0.00    -0.540 OA
ATOM     25  C   LIG    1        3.003   0.557   1.091  0.00  0.00    +0.540 C 
ATOM     26  O   LIG    1        2.719   0.803   2.244  0.00  0.00    -0.460 OA
BRANCH  19  27
ATOM     27  C   LIG    1        5.470   0.134   1.062  0.00  0.00    -0.030 C 
ATOM     28  C   LIG    1        6.384   0.774   0.016  0.00  0.00    +0.030 C 
ATOM     29  C   LIG    1        6.704  -0.620   0.562  0.00  0.00    +0.040 C 
ENDBRANCH  19  27
ENDBRANCH  17  23
ENDBRANCH   1  17
TORSDOF 5
