REMARK  Name = ZINCpe000000Wt5a.0
REMARK                            x       y       z     vdW  Elec       q    Type
REMARK                         _______ _______ _______ _____ _____    ______ ____
ROOT
ATOM      1  S   LIG    1       -1.518  -0.907   0.012  0.00  0.00    +2.690 S 
ATOM      2  O   LIG    1       -2.496  -0.040   0.570  0.00  0.00    -0.950 OA
ATOM      3  O   LIG    1       -1.221  -2.190   0.547  0.00  0.00    -0.950 OA
ENDROOT
BRANCH   1   4
ATOM      4  N   LIG    1       -1.953  -1.148  -1.567  0.00  0.00    -1.000 NA
ATOM      5  C   LIG    1       -2.800  -0.171  -2.267  0.00  0.00    +0.290 C 
ATOM      6  C   LIG    1       -2.071   0.275  -3.546  0.00  0.00    +0.270 C 
ATOM      7  N   LIG    1       -1.623  -0.922  -4.271  0.00  0.00    -0.630 N 
ATOM      8  C   LIG    1       -0.780  -1.901  -3.570  0.00  0.00    +0.290 C 
ATOM      9  C   LIG    1       -1.977  -1.118  -5.557  0.00  0.00    +0.710 C 
ATOM     10  N   LIG    1       -2.832  -0.266  -6.157  0.00  0.00    -0.720 N 
ATOM     11  H   LIG    1       -3.135   0.527  -5.689  0.00  0.00    +0.400 HD
ATOM     12  O   LIG    1       -1.525  -2.062  -6.175  0.00  0.00    -0.580 OA
ATOM     13  C   LIG    1       -1.504  -2.344  -2.293  0.00  0.00    +0.290 C 
BRANCH  10  14
ATOM     14  C   LIG    1       -3.304  -0.540  -7.517  0.00  0.00    +0.240 C 
ATOM     15  C   LIG    1       -3.344   0.632  -8.500  0.00  0.00    +0.010 C 
ATOM     16  C   LIG    1       -4.647   0.063  -7.934  0.00  0.00    +0.020 C 
ENDBRANCH  10  14
ENDBRANCH   1   4
BRANCH   1  20
ATOM     17  C   LIG    1        2.382   1.400  -0.008  0.00  0.00    +0.160 A 
ATOM     18  C   LIG    1        2.393   0.015  -0.016  0.00  0.00    -0.050 A 
ATOM     19  C   LIG    1        1.201  -0.686  -0.010  0.00  0.00    +0.140 A 
ATOM     20  C   LIG    1       -0.003  -0.008   0.004  0.00  0.00    -0.680 A 
ATOM     21  C   LIG    1       -0.021   1.375   0.013  0.00  0.00    +0.070 A 
ATOM     22  C   LIG    1        1.170   2.083   0.007  0.00  0.00    +0.080 A 
BRANCH  17  24
ATOM     23  C   LIG    1        4.759   1.323  -0.030  0.00  0.00    +0.250 C 
ATOM     24  O   LIG    1        3.554   2.091  -0.014  0.00  0.00    -0.300 OA
ENDBRANCH  17  24
BRANCH  22  25
ATOM     25  O   LIG    1        1.154   3.443   0.014  0.00  0.00    -0.300 OA
ATOM     26  C   LIG    1       -0.127   4.077   0.029  0.00  0.00    +0.250 C 
ENDBRANCH  22  25
ENDBRANCH   1  20
TORSDOF 5
