REMARK  Name = ZINCrD000000AyqW.0
REMARK                            x       y       z     vdW  Elec       q    Type
REMARK                         _______ _______ _______ _____ _____    ______ ____
ROOT
ATOM      1  O   LIG    1       -0.102   9.304   2.393  0.00  0.00    -0.520 OA
ATOM      2  C   LIG    1       -0.121  10.097   1.476  0.00  0.00    +0.520 C 
ATOM      3  N   LIG    1       -0.137  11.421   1.729  0.00  0.00    -0.620 N 
ATOM      4  C   LIG    1       -0.155  12.394   0.628  0.00  0.00    +0.270 C 
ATOM      5  C   LIG    1        0.996  13.380   0.818  0.00  0.00    +0.020 C 
ATOM      6  C   LIG    1        0.904  14.006   2.212  0.00  0.00    +0.280 C 
ATOM      7  C   LIG    1        1.025  12.911   3.273  0.00  0.00    +0.020 C 
ATOM      8  C   LIG    1       -0.131  11.918   3.112  0.00  0.00    +0.290 C 
ENDROOT
BRANCH   6   9
ATOM      9  N   LIG    1        1.990  14.975   2.384  0.00  0.00    -0.630 N 
ATOM     10  C   LIG    1        1.820  16.410   2.660  0.00  0.00    +0.240 C 
ATOM     11  C   LIG    1        3.264  16.940   2.746  0.00  0.00    +0.260 C 
ATOM     12  O   LIG    1        4.087  15.761   2.511  0.00  0.00    -0.330 OA
ATOM     13  C   LIG    1        3.299  14.697   2.322  0.00  0.00    +0.640 C 
ATOM     14  O   LIG    1        3.731  13.582   2.110  0.00  0.00    -0.510 OA
ENDBRANCH   6   9
BRANCH   2  15
ATOM     15  C   LIG    1       -0.128   9.603   0.052  0.00  0.00    +0.100 C 
BRANCH  15  16
ATOM     16  C   LIG    1       -0.108   8.096   0.044  0.00  0.00    -0.070 A 
ATOM     17  C   LIG    1       -1.298   7.391   0.051  0.00  0.00    +0.020 A 
ATOM     18  C   LIG    1       -1.285   6.011   0.044  0.00  0.00    +0.020 A 
ATOM     19  C   LIG    1       -0.070   5.328   0.029  0.00  0.00    -0.050 A 
ATOM     20  C   LIG    1        1.125   6.043   0.027  0.00  0.00    +0.020 A 
ATOM     21  C   LIG    1        1.101   7.423   0.029  0.00  0.00    +0.020 A 
BRANCH  19  22
ATOM     22  C   LIG    1       -0.050   3.844   0.022  0.00  0.00    -0.040 A 
ATOM     23  C   LIG    1        1.164   3.161   0.007  0.00  0.00    +0.020 A 
ATOM     24  C   LIG    1        1.177   1.781   0.000  0.00  0.00    +0.000 A 
ATOM     25  C   LIG    1       -0.013   1.076   0.008  0.00  0.00    +0.000 A 
ATOM     26  C   LIG    1       -1.221   1.748   0.017  0.00  0.00    +0.000 A 
ATOM     27  C   LIG    1       -1.246   3.128   0.030  0.00  0.00    +0.020 A 
ENDBRANCH  19  22
ENDBRANCH  15  16
ENDBRANCH   2  15
TORSDOF 4
