REMARK  Name = ZINCpe000000UIit.0
REMARK                            x       y       z     vdW  Elec       q    Type
REMARK                         _______ _______ _______ _____ _____    ______ ____
ROOT
ATOM      1  C   LIG    1       -0.792   1.605   1.189  0.00  0.00    +0.530 C 
ATOM      2  N   LIG    1       -0.410   1.287   2.441  0.00  0.00    -0.610 N 
ATOM      3  C   LIG    1        0.765   0.433   2.690  0.00  0.00    +0.280 C 
ATOM      4  C   LIG    1        1.790   1.257   3.473  0.00  0.00    +0.070 C 
ATOM      5  C   LIG    1        1.120   1.997   4.593  0.00  0.00    -0.010 C 
ATOM      6  C   LIG    1       -0.168   2.235   4.658  0.00  0.00    -0.110 C 
ATOM      7  C   LIG    1       -1.145   1.782   3.614  0.00  0.00    +0.340 C 
ATOM      8  O   LIG    1       -1.763   2.310   1.012  0.00  0.00    -0.520 OA
ENDROOT
BRANCH   1  11
ATOM      9  N   LIG    1        0.192   2.853  -1.600  0.00  0.00    -0.600 N 
ATOM     10  C   LIG    1       -0.582   1.638  -1.317  0.00  0.00    +0.300 C 
ATOM     11  C   LIG    1       -0.013   1.086   0.008  0.00  0.00    +0.010 C 
ATOM     12  C   LIG    1        1.423   1.659  -0.003  0.00  0.00    +0.080 C 
ATOM     13  C   LIG    1        1.326   2.888  -0.879  0.00  0.00    +0.520 C 
ATOM     14  O   LIG    1        2.152   3.775  -0.926  0.00  0.00    -0.530 OA
BRANCH   9  18
ATOM     15  C   LIG    1        1.312   6.819  -2.804  0.00  0.00    +0.170 C 
ATOM     16  N   LIG    1        0.308   5.799  -3.134  0.00  0.00    -0.480 NA
ATOM     17  C   LIG    1       -0.351   5.290  -1.911  0.00  0.00    +0.160 C 
ATOM     18  C   LIG    1       -0.219   3.893  -2.546  0.00  0.00    +0.250 C 
ATOM     19  C   LIG    1        0.945   4.481  -3.365  0.00  0.00    +0.170 C 
ENDBRANCH   9  18
ENDBRANCH   1  11
BRANCH   6  20
ATOM     20  C   LIG    1       -0.682   2.994   5.817  0.00  0.00    -0.010 A 
ATOM     21  C   LIG    1       -1.553   2.400   6.737  0.00  0.00    -0.020 A 
ATOM     22  C   LIG    1       -2.006   3.143   7.806  0.00  0.00    +0.260 A 
ATOM     23  N   LIG    1       -1.636   4.400   7.962  0.00  0.00    -0.490 NA
ATOM     24  C   LIG    1       -0.820   5.000   7.117  0.00  0.00    +0.260 A 
ATOM     25  C   LIG    1       -0.316   4.330   6.022  0.00  0.00    -0.020 A 
ENDBRANCH   6  20
TORSDOF 3
