REMARK  Name = ZINCqH0000004a88.0
REMARK                            x       y       z     vdW  Elec       q    Type
REMARK                         _______ _______ _______ _____ _____    ______ ____
ROOT
ATOM      1  C   LIG    1        4.747   1.293   0.064  0.00  0.00    +0.600 C 
ATOM      2  N   LIG    1        3.606   2.004  -0.022  0.00  0.00    -0.660 N 
ATOM      3  H   LIG    1        3.640   2.971  -0.085  0.00  0.00    +0.410 HD
ATOM      4  O   LIG    1        4.709   0.077   0.058  0.00  0.00    -0.510 OA
ENDROOT
BRANCH   1  11
ATOM      5  C   LIG    1       10.679   2.977   0.094  0.00  0.00    -0.020 C 
ATOM      6  C   LIG    1       10.270   4.204   0.913  0.00  0.00    +0.030 C 
ATOM      7  C   LIG    1        8.926   4.723   0.396  0.00  0.00    +0.120 C 
ATOM      8  C   LIG    1        7.952   3.562   0.318  0.00  0.00    -0.180 A 
ATOM      9  C   LIG    1        8.315   2.260   0.342  0.00  0.00    -0.120 A 
ATOM     10  C   LIG    1        7.252   1.380   0.258  0.00  0.00    +0.120 A 
ATOM     11  C   LIG    1        6.036   1.985   0.165  0.00  0.00    -0.280 A 
ATOM     12  S   LIG    1        6.258   3.727   0.180  0.00  0.00    +0.190 S 
ATOM     13  C   LIG    1        9.764   1.804   0.453  0.00  0.00    +0.110 C 
BRANCH   5  15
ATOM     14  C   LIG    1       12.574   1.458  -0.492  0.00  0.00    +0.000 C 
ATOM     15  C   LIG    1       12.129   2.610   0.412  0.00  0.00    +0.000 C 
ENDBRANCH   5  15
ENDBRANCH   1  11
BRANCH   2  16
ATOM     16  C   LIG    1        2.369   1.346  -0.020  0.00  0.00    +0.070 A 
ATOM     17  C   LIG    1        2.231   0.101  -0.632  0.00  0.00    +0.100 A 
ATOM     18  C   LIG    1        0.992  -0.512  -0.606  0.00  0.00    -0.020 A 
ATOM     19  C   LIG    1       -0.069   0.129   0.026  0.00  0.00    +0.300 A 
ATOM     20  N   LIG    1        0.099   1.311   0.598  0.00  0.00    -0.500 NA
ATOM     21  C   LIG    1        1.267   1.925   0.591  0.00  0.00    +0.270 A 
BRANCH  19  22
ATOM     22  N   LIG    1       -1.320  -0.480   0.058  0.00  0.00    -0.470 N 
ATOM     23  C   LIG    1       -1.791  -0.789  -1.300  0.00  0.00    +0.180 C 
ATOM     24  C   LIG    1       -3.139  -1.509  -1.215  0.00  0.00    +0.230 C 
ATOM     25  O   LIG    1       -4.066  -0.693  -0.493  0.00  0.00    -0.380 OA
ATOM     26  C   LIG    1       -3.639  -0.373   0.834  0.00  0.00    +0.220 C 
ATOM     27  C   LIG    1       -2.296   0.358   0.770  0.00  0.00    +0.190 C 
ENDBRANCH  19  22
ENDBRANCH   2  16
TORSDOF 4
