REMARK  Name = ZINCvU00000004bU.0
REMARK                            x       y       z     vdW  Elec       q    Type
REMARK                         _______ _______ _______ _____ _____    ______ ____
ROOT
ATOM      1  S   LIG    1       -2.689   0.750   0.019  0.00  0.00    +0.080 S 
ENDROOT
BRANCH   1   2
ATOM      2  C   LIG    1       -4.064   1.851   0.031  0.00  0.00    +0.140 A 
ATOM      3  N   LIG    1       -4.014   3.163   0.044  0.00  0.00    -0.290 NA
ATOM      4  N   LIG    1       -5.205   3.646   0.048  0.00  0.00    -0.280 NA
ATOM      5  C   LIG    1       -6.079   2.680   0.046  0.00  0.00    +0.220 A 
ATOM      6  N   LIG    1       -5.384   1.502   0.036  0.00  0.00    -0.450 N 
BRANCH   5   7
ATOM      7  C   LIG    1       -7.579   2.832   0.055  0.00  0.00    +0.030 C 
ATOM      8  C   LIG    1       -8.147   4.239  -0.141  0.00  0.00    +0.070 C 
ATOM      9  C   LIG    1       -8.207   3.573   1.236  0.00  0.00    +0.060 C 
ENDBRANCH   5   7
BRANCH   6  10
ATOM     10  C   LIG    1       -5.941   0.147   0.030  0.00  0.00    +0.370 C 
BRANCH  10  11
ATOM     11  C   LIG    1       -6.125  -0.326   1.449  0.00  0.00    -0.120 A 
ATOM     12  C   LIG    1       -5.104  -1.003   2.090  0.00  0.00    +0.040 A 
ATOM     13  C   LIG    1       -5.272  -1.433   3.393  0.00  0.00    +0.010 A 
ATOM     14  C   LIG    1       -6.464  -1.195   4.052  0.00  0.00    +0.030 A 
ATOM     15  C   LIG    1       -7.486  -0.523   3.409  0.00  0.00    +0.010 A 
ATOM     16  C   LIG    1       -7.317  -0.089   2.108  0.00  0.00    +0.030 A 
ENDBRANCH  10  11
ENDBRANCH   6  10
ENDBRANCH   1   2
BRANCH   1  17
ATOM     17  C   LIG    1       -1.330   1.944   0.019  0.00  0.00    +0.120 C 
BRANCH  17  29
ATOM     18  C   LIG    1        4.044   1.761   3.455  0.00  0.00    +0.070 C 
ATOM     19  C   LIG    1        3.307   2.182   2.182  0.00  0.00    +0.030 C 
ATOM     20  C   LIG    1        2.933   0.943   1.384  0.00  0.00    +0.030 C 
ATOM     21  C   LIG    1        2.439   1.199  -0.015  0.00  0.00    +0.300 C 
ATOM     22  N   LIG    1        1.143   1.899   0.001  0.00  0.00    -0.560 N 
ATOM     23  C   LIG    1        1.145   3.296   0.003  0.00  0.00    +0.140 A 
ATOM     24  C   LIG    1        0.822   3.984  -1.162  0.00  0.00    +0.010 A 
ATOM     25  C   LIG    1        0.875   5.365  -1.184  0.00  0.00    +0.040 A 
ATOM     26  C   LIG    1        1.245   6.077  -0.058  0.00  0.00    +0.030 A 
ATOM     27  C   LIG    1        1.549   5.400   1.129  0.00  0.00    +0.080 A 
ATOM     28  C   LIG    1        1.481   4.022   1.145  0.00  0.00    -0.100 A 
ATOM     29  C   LIG    1       -0.014   1.209   0.009  0.00  0.00    +0.550 C 
ATOM     30  O   LIG    1        0.002  -0.004   0.002  0.00  0.00    -0.510 OA
ATOM     31  S   LIG    1        1.814   3.111   2.636  0.00  0.00    -0.150 S 
ENDBRANCH  17  29
ENDBRANCH   1  17
TORSDOF 6
