REMARK  Name = ZINCrg00000SjSs2.0
REMARK                            x       y       z     vdW  Elec       q    Type
REMARK                         _______ _______ _______ _____ _____    ______ ____
ROOT
ATOM      1  C   LIG    1       -4.957   1.635   1.432  0.00  0.00    +0.130 C 
ATOM      2  C   LIG    1       -3.980   2.709   0.952  0.00  0.00    +0.280 C 
ATOM      3  N   LIG    1       -3.002   2.083   0.048  0.00  0.00    -0.610 N 
ATOM      4  C   LIG    1       -3.511   1.248  -1.051  0.00  0.00    +0.250 C 
ATOM      5  C   LIG    1       -4.511   0.241  -0.471  0.00  0.00    +0.220 C 
ATOM      6  C   LIG    1       -1.678   2.265   0.225  0.00  0.00    +0.530 C 
ATOM      7  O   LIG    1       -1.274   2.884   1.187  0.00  0.00    -0.530 OA
ATOM      8  O   LIG    1       -5.489   0.941   0.301  0.00  0.00    -0.370 OA
ENDROOT
BRANCH   6   9
ATOM      9  C   LIG    1       -0.700   1.701  -0.773  0.00  0.00    -0.020 C 
ATOM     10  C   LIG    1       -0.329   0.272  -0.372  0.00  0.00    +0.040 C 
ATOM     11  C   LIG    1        0.639  -0.314  -1.403  0.00  0.00    +0.020 C 
ATOM     12  C   LIG    1        1.919   0.528  -1.431  0.00  0.00    +0.280 C 
ATOM     13  N   LIG    1        1.556   1.931  -1.673  0.00  0.00    -0.610 N 
ATOM     14  C   LIG    1        2.124   2.623  -2.681  0.00  0.00    +0.520 C 
ATOM     15  O   LIG    1        2.886   2.068  -3.444  0.00  0.00    -0.530 OA
ATOM     16  C   LIG    1        0.564   2.566  -0.794  0.00  0.00    +0.300 C 
BRANCH  14  17
ATOM     17  C   LIG    1        1.811   4.087  -2.860  0.00  0.00    -0.030 C 
ATOM     18  C   LIG    1        2.127   4.504  -4.297  0.00  0.00    +0.050 C 
ATOM     19  C   LIG    1        2.660   4.912  -1.891  0.00  0.00    +0.050 C 
ENDBRANCH  14  17
ENDBRANCH   6   9
BRANCH   1  20
ATOM     20  C   LIG    1       -6.097   2.291   2.213  0.00  0.00    +0.370 C 
BRANCH  20  24
ATOM     21  C   LIG    1       -8.086  -1.125   5.301  0.00  0.00    +0.190 C 
ATOM     22  C   LIG    1       -7.822  -0.227   4.120  0.00  0.00    +0.230 A 
ATOM     23  N   LIG    1       -6.843   0.633   4.024  0.00  0.00    -0.320 NA
ATOM     24  N   LIG    1       -6.968   1.253   2.770  0.00  0.00    -0.380 N 
ATOM     25  C   LIG    1       -8.049   0.708   2.185  0.00  0.00    +0.300 A 
ATOM     26  C   LIG    1       -8.589   1.059   0.823  0.00  0.00    +0.200 C 
ATOM     27  N   LIG    1       -8.548  -0.181   3.004  0.00  0.00    -0.550 NA
ENDBRANCH  20  24
ENDBRANCH   1  20
TORSDOF 4
