REMARK  Name = ZINCrH000004sVII.0
REMARK                            x       y       z     vdW  Elec       q    Type
REMARK                         _______ _______ _______ _____ _____    ______ ____
ROOT
ATOM      1  N   LIG    1        0.619   8.074  -3.533  0.00  0.00    -0.540 NA
ATOM      2  C   LIG    1       -0.648   8.345  -2.838  0.00  0.00    +0.200 C 
ATOM      3  C   LIG    1       -0.537   7.886  -1.383  0.00  0.00    +0.200 C 
ATOM      4  N   LIG    1       -0.217   6.452  -1.347  0.00  0.00    -0.540 NA
ATOM      5  C   LIG    1        1.049   6.181  -2.041  0.00  0.00    +0.170 C 
ATOM      6  C   LIG    1        0.938   6.640  -3.497  0.00  0.00    +0.180 C 
ENDROOT
BRANCH   1   7
ATOM      7  C   LIG    1        0.578   8.570  -4.915  0.00  0.00    +0.350 C 
BRANCH   7  11
ATOM      8  C   LIG    1        3.721   7.873  -6.513  0.00  0.00    +0.210 A 
ATOM      9  N   LIG    1        3.892   9.085  -6.053  0.00  0.00    -0.370 NA
ATOM     10  O   LIG    1        2.890   9.457  -5.478  0.00  0.00    +0.100 OA
ATOM     11  C   LIG    1        1.959   8.499  -5.514  0.00  0.00    +0.200 A 
ATOM     12  N   LIG    1        2.474   7.485  -6.164  0.00  0.00    -0.470 NA
BRANCH   8  17
ATOM     13 CL   LIG    1        7.726   4.636  -9.571  0.00  0.00    -0.060 Cl
ATOM     14  C   LIG    1        6.565   5.574  -8.685  0.00  0.00    -0.020 A 
ATOM     15  C   LIG    1        6.889   6.852  -8.261  0.00  0.00    +0.030 A 
ATOM     16  C   LIG    1        5.970   7.601  -7.555  0.00  0.00    +0.070 A 
ATOM     17  C   LIG    1        4.714   7.071  -7.271  0.00  0.00    -0.020 A 
ATOM     18  C   LIG    1        4.394   5.783  -7.696  0.00  0.00    +0.090 A 
ATOM     19  C   LIG    1        5.317   5.043  -8.405  0.00  0.00    +0.030 A 
ENDBRANCH   8  17
ENDBRANCH   7  11
ENDBRANCH   1   7
BRANCH   4  20
ATOM     20  C   LIG    1       -0.177   5.956   0.035  0.00  0.00    +0.240 C 
BRANCH  20  21
ATOM     21  C   LIG    1       -0.092   4.451   0.026  0.00  0.00    -0.130 A 
ATOM     22  C   LIG    1        1.141   3.818   0.011  0.00  0.00    +0.080 A 
ATOM     23  C   LIG    1        1.172   2.432   0.004  0.00  0.00    +0.000 A 
ATOM     24  C   LIG    1       -0.021   1.732   0.012  0.00  0.00    +0.170 A 
ATOM     25  N   LIG    1       -1.177   2.369   0.021  0.00  0.00    -0.480 NA
ATOM     26 CL   LIG    1        0.002  -0.004   0.002  0.00  0.00    -0.030 Cl
ATOM     27  C   LIG    1       -1.243   3.686   0.033  0.00  0.00    +0.310 A 
ENDBRANCH  20  21
ENDBRANCH   4  20
TORSDOF 5
