REMARK  Name = ZINCpk00001AZj1l.0
REMARK                            x       y       z     vdW  Elec       q    Type
REMARK                         _______ _______ _______ _____ _____    ______ ____
ROOT
ATOM      1  C   LIG    1        0.523   2.643  -3.352  0.00  0.00    +0.300 C 
ENDROOT
BRANCH   1   2
ATOM      2  C   LIG    1        0.662   1.617  -2.225  0.00  0.00    +0.150 C 
ATOM      3  C   LIG    1       -0.596   1.638  -1.321  0.00  0.00    +0.070 C 
ATOM      4  C   LIG    1       -0.013   1.086   0.008  0.00  0.00    -0.040 C 
ATOM      5  C   LIG    1        1.422   1.655  -0.003  0.00  0.00    +0.220 C 
ATOM      6  O   LIG    1        1.752   1.973  -1.360  0.00  0.00    -0.370 OA
BRANCH   4   7
ATOM      7  C   LIG    1       -0.786   1.603   1.194  0.00  0.00    +0.530 C 
ATOM      8  N   LIG    1       -0.397   1.283   2.444  0.00  0.00    -0.720 N 
ATOM      9  H   LIG    1        0.382   0.720   2.580  0.00  0.00    +0.400 HD
ATOM     10  O   LIG    1       -1.758   2.307   1.023  0.00  0.00    -0.520 OA
BRANCH   8  11
ATOM     11  C   LIG    1       -1.148   1.785   3.596  0.00  0.00    +0.170 C 
ATOM     12  C   LIG    1       -1.135   3.315   3.586  0.00  0.00    +0.020 C 
ATOM     13  C   LIG    1       -0.501   1.279   4.887  0.00  0.00    +0.040 C 
ATOM     14  C   LIG    1       -2.592   1.287   3.520  0.00  0.00    +0.030 C 
ENDBRANCH   8  11
ENDBRANCH   4   7
ENDBRANCH   1   2
BRANCH   1  15
ATOM     15  N   LIG    1        1.698   2.572  -4.225  0.00  0.00    -0.690 N 
ATOM     16  H   LIG    1        2.405   1.937  -4.034  0.00  0.00    +0.420 HD
BRANCH  15  20
ATOM     17  C   LIG    1       -0.198   6.062  -6.898  0.00  0.00    +0.190 C 
ATOM     18  C   LIG    1        0.924   5.090  -6.639  0.00  0.00    +0.410 A 
ATOM     19  N   LIG    1        0.834   4.282  -5.598  0.00  0.00    -0.600 NA
ATOM     20  C   LIG    1        1.797   3.410  -5.319  0.00  0.00    +0.520 A 
ATOM     21  C   LIG    1        2.918   3.356  -6.169  0.00  0.00    -0.340 A 
ATOM     22  C   LIG    1        4.102   2.588  -6.204  0.00  0.00    +0.300 A 
ATOM     23  N   LIG    1        4.807   2.963  -7.233  0.00  0.00    -0.260 NA
ATOM     24  N   LIG    1        4.135   3.983  -7.919  0.00  0.00    -0.380 N 
ATOM     25  C   LIG    1        4.610   4.662  -9.127  0.00  0.00    +0.360 C 
ATOM     26  C   LIG    1        2.964   4.235  -7.269  0.00  0.00    +0.370 A 
ATOM     27  N   LIG    1        1.950   5.077  -7.461  0.00  0.00    -0.580 NA
ENDBRANCH  15  20
ENDBRANCH   1  15
TORSDOF 5
