REMARK  Name = ZINCkj000005hwvE.0
REMARK                            x       y       z     vdW  Elec       q    Type
REMARK                         _______ _______ _______ _____ _____    ______ ____
ROOT
ATOM      1  C   LIG    1       -0.094   1.236   0.148  0.00  0.00    +0.500 C 
ATOM      2  N   LIG    1        1.082   1.889   0.072  0.00  0.00    -0.580 N 
ATOM      3  C   LIG    1        1.128   3.358   0.006  0.00  0.00    +0.290 C 
ATOM      4  C   LIG    1        2.097   3.864   1.079  0.00  0.00    +0.180 C 
ATOM      5  N   LIG    1        3.395   3.195   0.917  0.00  0.00    -0.520 NA
ATOM      6  C   LIG    1        3.276   1.745   1.126  0.00  0.00    +0.090 C 
ATOM      7  C   LIG    1        2.688   1.476   2.512  0.00  0.00    +0.000 C 
ATOM      8  C   LIG    1        4.660   1.100   1.024  0.00  0.00    +0.060 C 
ATOM      9  C   LIG    1        2.355   1.152   0.061  0.00  0.00    +0.320 C 
ATOM     10  O   LIG    1       -0.113   0.025   0.203  0.00  0.00    -0.530 OA
ENDROOT
BRANCH   1  11
ATOM     11  C   LIG    1       -1.387   2.011   0.159  0.00  0.00    +0.290 C 
BRANCH  11  13
ATOM     12  C   LIG    1       -3.777   1.832   0.251  0.00  0.00    +0.340 C 
ATOM     13  N   LIG    1       -2.517   1.077   0.240  0.00  0.00    -0.500 N 
ATOM     14  H   LIG    1       -2.444   0.533   1.087  0.00  0.00    +0.440 HD
ATOM     15  H   LIG    1       -2.502   0.460  -0.558  0.00  0.00    +0.440 HD
ENDBRANCH  11  13
ENDBRANCH   1  11
BRANCH   5  16
ATOM     16  C   LIG    1        4.402   3.775   1.815  0.00  0.00    +0.240 C 
BRANCH  16  17
ATOM     17  C   LIG    1        4.817   5.128   1.296  0.00  0.00    -0.080 A 
ATOM     18  C   LIG    1        5.880   5.236   0.419  0.00  0.00    +0.020 A 
ATOM     19  C   LIG    1        6.257   6.476  -0.060  0.00  0.00    +0.000 A 
ATOM     20  C   LIG    1        5.578   7.610   0.346  0.00  0.00    +0.000 A 
ATOM     21  C   LIG    1        4.519   7.503   1.227  0.00  0.00    +0.000 A 
ATOM     22  C   LIG    1        4.138   6.262   1.702  0.00  0.00    +0.000 A 
ENDBRANCH  16  17
ENDBRANCH   5  16
TORSDOF 4
