REMARK  Name = ZINCqH0000006qSG.0
REMARK                            x       y       z     vdW  Elec       q    Type
REMARK                         _______ _______ _______ _____ _____    ______ ____
ROOT
ATOM      1  C   LIG    1        1.932   2.118  -3.460  0.00  0.00    +0.600 C 
ATOM      2  N   LIG    1        1.368   2.338  -2.256  0.00  0.00    -0.610 N 
ATOM      3  C   LIG    1        2.074   1.972  -1.020  0.00  0.00    +0.300 C 
ATOM      4  C   LIG    1        2.136   3.199  -0.106  0.00  0.00    +0.050 C 
ATOM      5  C   LIG    1        0.720   3.738   0.115  0.00  0.00    +0.120 C 
ATOM      6  C   LIG    1        0.120   4.165  -1.226  0.00  0.00    +0.060 C 
ATOM      7  C   LIG    1        0.036   2.948  -2.154  0.00  0.00    +0.270 C 
ATOM      8  O   LIG    1        3.076   1.708  -3.530  0.00  0.00    -0.500 OA
ENDROOT
BRANCH   5   9
ATOM      9  C   LIG    1        0.774   4.925   1.042  0.00  0.00    +0.250 A 
ATOM     10  N   LIG    1        1.434   6.019   0.808  0.00  0.00    -0.470 NA
ATOM     11  C   LIG    1        1.254   6.872   1.854  0.00  0.00    +0.030 A 
ATOM     12  C   LIG    1        1.711   8.158   2.141  0.00  0.00    +0.070 A 
ATOM     13  C   LIG    1        1.345   8.765   3.322  0.00  0.00    +0.030 A 
ATOM     14  C   LIG    1        0.526   8.106   4.226  0.00  0.00    +0.040 A 
ATOM     15  C   LIG    1        0.067   6.833   3.955  0.00  0.00    -0.060 A 
ATOM     16  C   LIG    1       -0.822   6.125   4.945  0.00  0.00    +0.110 C 
ATOM     17  C   LIG    1        0.426   6.207   2.772  0.00  0.00    +0.010 A 
ATOM     18  O   LIG    1        0.150   5.002   2.228  0.00  0.00    -0.210 OA
ENDBRANCH   5   9
BRANCH   1  20
ATOM     19  C   LIG    1        1.644   2.944  -5.820  0.00  0.00    +0.140 A 
ATOM     20  C   LIG    1        1.168   2.373  -4.685  0.00  0.00    -0.270 A 
ATOM     21  S   LIG    1       -0.530   1.986  -4.950  0.00  0.00    +0.190 S 
ATOM     22  C   LIG    1       -0.440   2.628  -6.532  0.00  0.00    +0.240 A 
ATOM     23  N   LIG    1        0.756   3.060  -6.775  0.00  0.00    -0.460 NA
BRANCH  19  24
ATOM     24  C   LIG    1        3.071   3.405  -5.969  0.00  0.00    +0.280 C 
BRANCH  24  26
ATOM     25  C   LIG    1        5.244   2.668  -6.663  0.00  0.00    +0.200 C 
ATOM     26  O   LIG    1        3.866   2.335  -6.483  0.00  0.00    -0.370 OA
ENDBRANCH  24  26
ENDBRANCH  19  24
ENDBRANCH   1  20
TORSDOF 4
