REMARK  Name = ZINCrH00000llUa8.0
REMARK                            x       y       z     vdW  Elec       q    Type
REMARK                         _______ _______ _______ _____ _____    ______ ____
ROOT
ATOM      1  C   LIG    1        4.957  -2.734   0.154  0.00  0.00    +0.300 C 
ENDROOT
BRANCH   1   4
ATOM      2  N   LIG    1        3.622  -0.661  -0.037  0.00  0.00    -0.660 N 
ATOM      3  H   LIG    1        4.454  -0.167  -0.107  0.00  0.00    +0.420 HD
ATOM      4  C   LIG    1        3.642  -2.005   0.057  0.00  0.00    +0.510 C 
ATOM      5  O   LIG    1        2.601  -2.628   0.064  0.00  0.00    -0.520 OA
BRANCH   2  11
ATOM      6  C   LIG    1        2.302   1.276   0.571  0.00  0.00    +0.110 A 
ATOM      7  C   LIG    1        1.091   1.948   0.572  0.00  0.00    -0.060 A 
ATOM      8  C   LIG    1       -0.018   1.376  -0.025  0.00  0.00    +0.040 A 
ATOM      9  C   LIG    1        0.078   0.134  -0.624  0.00  0.00    -0.010 A 
ATOM     10  C   LIG    1        1.283  -0.543  -0.629  0.00  0.00    +0.070 A 
ATOM     11  C   LIG    1        2.399   0.023  -0.032  0.00  0.00    +0.110 A 
BRANCH   6  12
ATOM     12  O   LIG    1        3.393   1.836   1.157  0.00  0.00    -0.320 OA
BRANCH  12  13
ATOM     13  C   LIG    1        3.219   3.122   1.756  0.00  0.00    +0.180 C 
BRANCH  13  15
ATOM     14  C   LIG    1        4.359   4.964   3.001  0.00  0.00    +0.040 C 
ATOM     15  C   LIG    1        4.545   3.587   2.360  0.00  0.00    +0.020 C 
ENDBRANCH  13  15
ENDBRANCH  12  13
ENDBRANCH   6  12
ENDBRANCH   2  11
ENDBRANCH   1   4
BRANCH   1  16
ATOM     16  N   LIG    1        4.711  -4.176   0.245  0.00  0.00    -0.720 N 
ATOM     17  H   LIG    1        3.802  -4.514   0.237  0.00  0.00    +0.410 HD
ATOM     18  C   LIG    1        5.748  -5.032   0.341  0.00  0.00    +0.530 C 
ATOM     19  O   LIG    1        6.885  -4.609   0.351  0.00  0.00    -0.540 OA
BRANCH  18  20
ATOM     20  C   LIG    1        5.495  -6.514   0.434  0.00  0.00    -0.070 C 
ATOM     21  C   LIG    1        4.655  -6.811   1.679  0.00  0.00    +0.040 C 
ATOM     22  C   LIG    1        4.398  -8.316   1.774  0.00  0.00    -0.010 C 
ATOM     23  C   LIG    1        3.645  -8.785   0.527  0.00  0.00    +0.020 C 
ATOM     24  C   LIG    1        4.485  -8.488  -0.717  0.00  0.00    +0.000 C 
ATOM     25  C   LIG    1        5.821  -9.229  -0.619  0.00  0.00    +0.010 C 
ATOM     26  C   LIG    1        6.573  -8.760   0.628  0.00  0.00    -0.020 C 
ATOM     27  C   LIG    1        5.734  -9.056   1.872  0.00  0.00    +0.010 C 
ATOM     28  C   LIG    1        4.742  -6.983  -0.812  0.00  0.00    +0.040 C 
ATOM     29  C   LIG    1        6.830  -7.254   0.532  0.00  0.00    +0.050 C 
ENDBRANCH  18  20
ENDBRANCH   1  16
TORSDOF 7
