REMARK  Name = ZINCrH000004s8v4.0
REMARK                            x       y       z     vdW  Elec       q    Type
REMARK                         _______ _______ _______ _____ _____    ______ ____
ROOT
ATOM      1  C   LIG    1       -8.307   1.561  -0.678  0.00  0.00    +0.180 C 
ATOM      2  C   LIG    1       -8.263   3.076  -0.888  0.00  0.00    +0.040 C 
ATOM      3  C   LIG    1       -7.386   3.712   0.195  0.00  0.00    +0.280 C 
ATOM      4  N   LIG    1       -6.068   3.061   0.178  0.00  0.00    -0.610 N 
ATOM      5  C   LIG    1       -6.002   1.597   0.275  0.00  0.00    +0.300 C 
ATOM      6  C   LIG    1       -4.942   3.794   0.069  0.00  0.00    +0.570 C 
ATOM      7  O   LIG    1       -3.866   3.241  -0.050  0.00  0.00    -0.520 OA
ATOM      8  C   LIG    1       -6.895   0.985  -0.803  0.00  0.00    +0.000 C 
ENDROOT
BRANCH   6   9
ATOM      9  C   LIG    1       -5.015   5.269   0.094  0.00  0.00    -0.180 A 
ATOM     10  C   LIG    1       -4.170   6.027  -0.709  0.00  0.00    +0.160 A 
ATOM     11  C   LIG    1       -4.281   7.426  -0.646  0.00  0.00    -0.090 A 
ATOM     12  C   LIG    1       -3.461   8.257  -1.428  0.00  0.00    +0.020 A 
ATOM     13  C   LIG    1       -3.596   9.611  -1.342  0.00  0.00    +0.110 A 
ATOM     14  C   LIG    1       -4.540  10.181  -0.487  0.00  0.00    +0.030 A 
ATOM     15  C   LIG    1       -5.349   9.405   0.284  0.00  0.00    +0.090 A 
ATOM     16  F   LIG    1       -2.808  10.410  -2.094  0.00  0.00    -0.130 F 
ATOM     17  C   LIG    1       -5.236   8.005   0.227  0.00  0.00    +0.130 A 
ATOM     18  N   LIG    1       -6.027   7.223   0.972  0.00  0.00    -0.460 NA
ATOM     19  C   LIG    1       -5.941   5.919   0.930  0.00  0.00    +0.320 A 
ENDBRANCH   6   9
BRANCH   1  20
ATOM     20  O   LIG    1       -9.152   0.968  -1.668  0.00  0.00    -0.300 OA
BRANCH  20  27
ATOM     21  C   LIG    1      -10.825  -0.213  -3.617  0.00  0.00    +0.110 C 
ATOM     22  C   LIG    1      -10.640  -0.792  -2.238  0.00  0.00    -0.160 A 
ATOM     23  C   LIG    1      -11.300  -1.951  -1.870  0.00  0.00    +0.090 A 
ATOM     24  C   LIG    1      -11.100  -2.449  -0.589  0.00  0.00    -0.070 A 
ATOM     25  C   LIG    1      -10.255  -1.777   0.272  0.00  0.00    +0.290 A 
ATOM     26  N   LIG    1       -9.636  -0.676  -0.109  0.00  0.00    -0.540 NA
ATOM     27  C   LIG    1       -9.805  -0.169  -1.319  0.00  0.00    +0.320 A 
ENDBRANCH  20  27
ENDBRANCH   1  20
TORSDOF 3
