REMARK  Name = ZINCpk00000eaMSo.1
REMARK                            x       y       z     vdW  Elec       q    Type
REMARK                         _______ _______ _______ _____ _____    ______ ____
ROOT
ATOM      1  N   LIG    1       -0.706   1.976   1.219  0.00  0.00    -0.660 NA
ATOM      2  H   LIG    1       -1.635   1.588   1.282  0.00  0.00    +0.350 HD
ENDROOT
BRANCH   1   4
ATOM      3  C   LIG    1       -1.948   3.946   0.460  0.00  0.00    +0.030 C 
ATOM      4  C   LIG    1       -0.745   3.444   1.261  0.00  0.00    +0.170 C 
BRANCH   4   5
ATOM      5  C   LIG    1       -0.868   3.903   2.692  0.00  0.00    +0.520 C 
ATOM      6  N   LIG    1       -0.922   5.219   2.975  0.00  0.00    -0.610 N 
ATOM      7  C   LIG    1       -0.862   6.205   1.893  0.00  0.00    +0.270 C 
ATOM      8  O   LIG    1       -0.918   3.087   3.587  0.00  0.00    -0.510 OA
BRANCH   6   9
ATOM      9  C   LIG    1       -1.042   5.665   4.365  0.00  0.00    +0.340 C 
BRANCH   9  10
ATOM     10  C   LIG    1        0.333   5.852   4.953  0.00  0.00    -0.110 A 
ATOM     11  C   LIG    1        0.961   4.800   5.593  0.00  0.00    +0.040 A 
ATOM     12  C   LIG    1        2.224   4.970   6.127  0.00  0.00    +0.000 A 
ATOM     13  C   LIG    1        2.855   6.196   6.031  0.00  0.00    +0.000 A 
ATOM     14  C   LIG    1        2.225   7.250   5.396  0.00  0.00    -0.010 A 
ATOM     15  C   LIG    1        0.964   7.078   4.857  0.00  0.00    +0.010 A 
ENDBRANCH   9  10
ENDBRANCH   6   9
ENDBRANCH   4   5
ENDBRANCH   1   4
BRANCH   1  16
ATOM     16  C   LIG    1       -0.018   1.503   0.010  0.00  0.00    +0.230 C 
BRANCH  16  17
ATOM     17  C   LIG    1        0.002  -0.004   0.002  0.00  0.00    -0.020 A 
ATOM     18  C   LIG    1        1.057  -0.684   0.582  0.00  0.00    +0.020 A 
ATOM     19  C   LIG    1        1.073  -2.067   0.579  0.00  0.00    +0.120 A 
ATOM     20  C   LIG    1        0.040  -2.768  -0.013  0.00  0.00    -0.670 A 
ATOM     21  C   LIG    1       -1.012  -2.088  -0.599  0.00  0.00    +0.120 A 
ATOM     22  C   LIG    1       -1.031  -0.706  -0.591  0.00  0.00    -0.010 A 
BRANCH  20  23
ATOM     23  S   LIG    1        0.063  -4.530  -0.023  0.00  0.00    +2.700 S 
ATOM     24  O   LIG    1       -1.287  -4.949  -0.165  0.00  0.00    -0.960 OA
ATOM     25  O   LIG    1        0.889  -4.926   1.064  0.00  0.00    -0.960 OA
BRANCH  23  26
ATOM     26  N   LIG    1        0.847  -5.003  -1.403  0.00  0.00    -1.250 NA
ATOM     27  H   LIG    1        0.966  -5.946  -1.594  0.00  0.00    +0.420 HD
ATOM     28  H   LIG    1        1.188  -4.336  -2.019  0.00  0.00    +0.420 HD
ENDBRANCH  23  26
ENDBRANCH  20  23
ENDBRANCH  16  17
ENDBRANCH   1  16
TORSDOF 8
