REMARK  Name = ZINCrD00000hQ4nh.0
REMARK                            x       y       z     vdW  Elec       q    Type
REMARK                         _______ _______ _______ _____ _____    ______ ____
ROOT
ATOM      1  C   LIG    1       -0.668  -0.540   0.886  0.00  0.00    +0.560 C 
ATOM      2  N   LIG    1        0.365   0.112   0.317  0.00  0.00    -0.590 N 
ATOM      3  C   LIG    1        1.296  -0.641  -0.493  0.00  0.00    +0.270 C 
ATOM      4  C   LIG    1        2.459  -1.153   0.394  0.00  0.00    +0.030 C 
ATOM      5  C   LIG    1        3.296  -0.017   0.823  0.00  0.00    +0.200 C 
ATOM      6  N   LIG    1        2.598   0.973   1.643  0.00  0.00    -0.460 N 
ATOM      7  C   LIG    1        1.959   1.969   0.808  0.00  0.00    +0.200 C 
ATOM      8  C   LIG    1        0.495   1.566   0.548  0.00  0.00    +0.280 C 
ATOM      9  O   LIG    1       -0.847  -1.720   0.649  0.00  0.00    -0.530 OA
ENDROOT
BRANCH   6  10
ATOM     10  C   LIG    1        3.465   1.567   2.553  0.00  0.00    +0.250 A 
ATOM     11  C   LIG    1        2.997   2.542   3.432  0.00  0.00    +0.020 A 
ATOM     12  C   LIG    1        3.901   3.104   4.320  0.00  0.00    +0.060 A 
ATOM     13  C   LIG    1        5.216   2.662   4.278  0.00  0.00    +0.040 A 
ATOM     14  N   LIG    1        5.573   1.734   3.412  0.00  0.00    -0.220 NA
ATOM     15  C   LIG    1        6.237   3.243   5.223  0.00  0.00    +0.140 C 
ATOM     16  N   LIG    1        4.740   1.206   2.591  0.00  0.00    -0.280 NA
ENDBRANCH   6  10
BRANCH   1  20
ATOM     17  C   LIG    1       -3.298   1.521   3.507  0.00  0.00    +0.160 A 
ATOM     18  C   LIG    1       -2.929   2.100   2.299  0.00  0.00    -0.080 A 
ATOM     19  C   LIG    1       -2.076   1.435   1.446  0.00  0.00    +0.080 A 
ATOM     20  C   LIG    1       -1.582   0.176   1.797  0.00  0.00    -0.170 A 
ATOM     21  C   LIG    1       -1.960  -0.406   3.010  0.00  0.00    +0.120 A 
ATOM     22  C   LIG    1       -2.808   0.269   3.860  0.00  0.00    -0.020 A 
BRANCH  17  23
ATOM     23  O   LIG    1       -4.138   2.180   4.345  0.00  0.00    -0.300 OA
BRANCH  23  24
ATOM     24  C   LIG    1       -4.700   3.405   3.869  0.00  0.00    +0.160 C 
ATOM     25  C   LIG    1       -3.810   4.574   4.296  0.00  0.00    +0.020 C 
BRANCH  24  27
ATOM     26  C   LIG    1       -7.023   2.487   3.932  0.00  0.00    +0.010 C 
ATOM     27  C   LIG    1       -6.100   3.587   4.459  0.00  0.00    +0.040 C 
ENDBRANCH  24  27
ENDBRANCH  23  24
ENDBRANCH  17  23
ENDBRANCH   1  20
TORSDOF 5
