REMARK  Name = ZINCrH000004m6W6.0
REMARK                            x       y       z     vdW  Elec       q    Type
REMARK                         _______ _______ _______ _____ _____    ______ ____
ROOT
ATOM      1  N   LIG    1       -2.456   1.455   0.022  0.00  0.00    -0.710 N 
ATOM      2  H   LIG    1       -2.484   0.485   0.018  0.00  0.00    +0.410 HD
ATOM      3  C   LIG    1       -1.270   2.095   0.020  0.00  0.00    +0.600 C 
ATOM      4  O   LIG    1       -1.235   3.310   0.026  0.00  0.00    -0.530 OA
ENDROOT
BRANCH   3   5
ATOM      5  C   LIG    1       -0.016   1.322   0.009  0.00  0.00    +0.010 A 
ATOM      6  C   LIG    1        1.200   1.913   0.001  0.00  0.00    -0.020 A 
ATOM      7  S   LIG    1        2.410   0.704  -0.017  0.00  0.00    +0.190 S 
ATOM      8  C   LIG    1        1.178  -0.553  -0.012  0.00  0.00    +0.100 A 
ATOM      9  N   LIG    1        0.002  -0.004   0.002  0.00  0.00    -0.440 NA
BRANCH   8  10
ATOM     10  C   LIG    1        1.442  -2.009  -0.022  0.00  0.00    -0.030 A 
ATOM     11  C   LIG    1        0.380  -2.914  -0.011  0.00  0.00    +0.070 A 
ATOM     12  C   LIG    1        0.633  -4.270  -0.025  0.00  0.00    +0.010 A 
ATOM     13  C   LIG    1        1.937  -4.733  -0.041  0.00  0.00    +0.030 A 
ATOM     14  C   LIG    1        2.994  -3.842  -0.046  0.00  0.00    +0.010 A 
ATOM     15  C   LIG    1        2.755  -2.483  -0.037  0.00  0.00    +0.030 A 
ENDBRANCH   8  10
ENDBRANCH   3   5
BRANCH   1  16
ATOM     16  C   LIG    1       -3.703   2.223   0.033  0.00  0.00    +0.320 C 
BRANCH  16  19
ATOM     17  C   LIG    1       -6.486  -0.032   1.238  0.00  0.00    +0.150 A 
ATOM     18  C   LIG    1       -5.407   0.839   1.232  0.00  0.00    -0.070 A 
ATOM     19  C   LIG    1       -4.876   1.278   0.034  0.00  0.00    -0.040 A 
ATOM     20  C   LIG    1       -5.423   0.855  -1.164  0.00  0.00    -0.070 A 
ATOM     21  C   LIG    1       -6.498  -0.019  -1.167  0.00  0.00    +0.150 A 
ATOM     22  C   LIG    1       -7.035  -0.463   0.036  0.00  0.00    +0.040 A 
BRANCH  17  24
ATOM     23  C   LIG    1       -6.393   0.022   3.614  0.00  0.00    +0.240 C 
ATOM     24  O   LIG    1       -7.007  -0.463   2.418  0.00  0.00    -0.300 OA
ENDBRANCH  17  24
BRANCH  21  25
ATOM     25  O   LIG    1       -7.032  -0.439  -2.346  0.00  0.00    -0.300 OA
ATOM     26  C   LIG    1       -6.430   0.058  -3.543  0.00  0.00    +0.240 C 
ENDBRANCH  21  25
BRANCH  22  27
ATOM     27  O   LIG    1       -8.094  -1.317   0.037  0.00  0.00    -0.310 OA
ATOM     28  C   LIG    1       -9.398  -0.733   0.046  0.00  0.00    +0.210 C 
ENDBRANCH  22  27
ENDBRANCH  16  19
ENDBRANCH   1  16
TORSDOF 7
