REMARK  Name = ZINCrH000004qBL9.0
REMARK                            x       y       z     vdW  Elec       q    Type
REMARK                         _______ _______ _______ _____ _____    ______ ____
ROOT
ATOM      1  C   LIG    1       -4.102  -1.282   0.066  0.00  0.00    -0.080 C 
ATOM      2  C   LIG    1       -4.031  -0.570  -1.288  0.00  0.00    +0.070 C 
ATOM      3  C   LIG    1       -2.645   0.057  -1.457  0.00  0.00    +0.210 C 
ATOM      4  N   LIG    1       -2.401   1.011  -0.367  0.00  0.00    -0.510 N 
ATOM      5  C   LIG    1       -2.418   0.340   0.939  0.00  0.00    +0.180 C 
ATOM      6  C   LIG    1       -5.505  -1.860   0.266  0.00  0.00    +0.050 C 
ATOM      7  C   LIG    1       -3.797  -0.277   1.180  0.00  0.00    +0.060 C 
ENDROOT
BRANCH   4   8
ATOM      8  C   LIG    1       -1.206   1.694  -0.562  0.00  0.00    +0.140 A 
ATOM      9  C   LIG    1       -0.008   0.997  -0.638  0.00  0.00    +0.010 A 
ATOM     10  C   LIG    1        1.177   1.677  -0.836  0.00  0.00    +0.070 A 
ATOM     11  C   LIG    1        1.183   3.058  -0.956  0.00  0.00    -0.040 A 
ATOM     12  C   LIG    1        0.003   3.768  -0.879  0.00  0.00    +0.090 A 
ATOM     13 CL   LIG    1        2.682   3.897  -1.205  0.00  0.00    -0.050 Cl
ATOM     14  C   LIG    1       -1.204   3.093  -0.678  0.00  0.00    +0.000 A 
BRANCH  14  15
ATOM     15  C   LIG    1       -2.433   3.824  -0.597  0.00  0.00    +0.270 C 
ATOM     16  N   LIG    1       -3.408   4.404  -0.532  0.00  0.00    -0.410 NA
ENDBRANCH  14  15
ENDBRANCH   4   8
BRANCH   1  18
ATOM     17  N   LIG    1       -3.011  -3.203   1.179  0.00  0.00    -0.610 N 
ATOM     18  C   LIG    1       -3.089  -2.397   0.102  0.00  0.00    +0.530 C 
ATOM     19  O   LIG    1       -2.343  -2.569  -0.839  0.00  0.00    -0.520 OA
ATOM     20  C   LIG    1       -3.990  -3.074   2.262  0.00  0.00    +0.290 C 
BRANCH  17  21
ATOM     21  C   LIG    1       -1.948  -4.207   1.268  0.00  0.00    +0.390 C 
BRANCH  21  25
ATOM     22  C   LIG    1        1.546  -2.753   4.672  0.00  0.00    +0.180 C 
ATOM     23  C   LIG    1        0.743  -2.991   3.419  0.00  0.00    -0.030 A 
ATOM     24  C   LIG    1       -0.416  -3.684   3.318  0.00  0.00    -0.060 A 
ATOM     25  C   LIG    1       -0.744  -3.604   1.945  0.00  0.00    -0.000 A 
ATOM     26  N   LIG    1        0.204  -2.913   1.381  0.00  0.00    -0.340 NA
ATOM     27  O   LIG    1        1.035  -2.559   2.184  0.00  0.00    +0.100 OA
ENDBRANCH  21  25
ENDBRANCH  17  21
ENDBRANCH   1  18
TORSDOF 5
