REMARK  Name = ZINCrH000004lEPP.0
REMARK                            x       y       z     vdW  Elec       q    Type
REMARK                         _______ _______ _______ _____ _____    ______ ____
ROOT
ATOM      1  C   LIG    1       -0.540   1.083  -1.181  0.00  0.00    +0.510 C 
ATOM      2  N   LIG    1        0.102   0.704  -2.304  0.00  0.00    -0.570 N 
ATOM      3  O   LIG    1       -1.728   1.327  -1.214  0.00  0.00    -0.490 OA
ENDROOT
BRANCH   2   4
ATOM      4  C   LIG    1       -0.604   0.591  -3.510  0.00  0.00    +0.170 A 
ATOM      5  C   LIG    1       -0.715   1.687  -4.354  0.00  0.00    +0.070 A 
ATOM      6  C   LIG    1       -1.408   1.574  -5.548  0.00  0.00    +0.050 A 
ATOM      7  C   LIG    1       -2.002   0.363  -5.894  0.00  0.00    +0.050 A 
ATOM      8  O   LIG    1       -2.622   0.511  -7.102  0.00  0.00    -0.300 OA
ATOM      9  C   LIG    1       -2.057   1.702  -7.681  0.00  0.00    +0.440 C 
ATOM     10  C   LIG    1       -1.893  -0.728  -5.047  0.00  0.00    +0.060 A 
ATOM     11  O   LIG    1       -1.657   2.481  -6.538  0.00  0.00    -0.300 OA
ATOM     12  C   LIG    1       -1.197  -0.616  -3.858  0.00  0.00    -0.020 A 
ATOM     13 CL   LIG    1       -1.064  -1.985  -2.798  0.00  0.00    -0.040 Cl
ENDBRANCH   2   4
BRANCH   2  14
ATOM     14  C   LIG    1        1.536   0.409  -2.264  0.00  0.00    +0.230 C 
ATOM     15  C   LIG    1        2.277   1.352  -3.215  0.00  0.00    +0.000 C 
ATOM     16  C   LIG    1        3.775   1.044  -3.173  0.00  0.00    +0.020 C 
ATOM     17  C   LIG    1        4.011  -0.405  -3.605  0.00  0.00    +0.010 C 
ATOM     18  C   LIG    1        3.270  -1.347  -2.654  0.00  0.00    +0.010 C 
ATOM     19  C   LIG    1        1.772  -1.039  -2.696  0.00  0.00    +0.010 C 
ENDBRANCH   2  14
BRANCH   1  20
ATOM     20  C   LIG    1        0.218   1.204   0.116  0.00  0.00    +0.190 C 
BRANCH  20  21
ATOM     21  C   LIG    1        1.252   2.327  -0.001  0.00  0.00    -0.040 C 
ATOM     22  C   LIG    1        2.049   2.483   1.317  0.00  0.00    +0.010 C 
ATOM     23  C   LIG    1        2.175   4.007   1.504  0.00  0.00    +0.200 C 
ATOM     24  O   LIG    1        1.552   4.630   0.368  0.00  0.00    -0.370 OA
ATOM     25  C   LIG    1        0.557   3.707  -0.126  0.00  0.00    +0.230 C 
ENDBRANCH  20  21
BRANCH  20  27
ATOM     26  C   LIG    1       -0.588   0.627   2.298  0.00  0.00    +0.220 C 
ATOM     27  O   LIG    1       -0.693   1.504   1.174  0.00  0.00    -0.350 OA
ENDBRANCH  20  27
ENDBRANCH   1  20
TORSDOF 5
