REMARK  Name = ZINCue00000001FL.1
REMARK                            x       y       z     vdW  Elec       q    Type
REMARK                         _______ _______ _______ _____ _____    ______ ____
ROOT
ATOM      1  C   LIG    1       -5.400   6.088  -3.335  0.00  0.00    +0.110 C 
ATOM      2  C   LIG    1       -5.452   4.870  -2.410  0.00  0.00    +0.020 C 
ATOM      3  C   LIG    1       -5.691   5.337  -0.970  0.00  0.00    +0.290 C 
ATOM      4  N   LIG    1       -4.659   6.321  -0.615  0.00  0.00    -0.990 NA
ATOM      5  C   LIG    1       -4.467   7.489  -1.485  0.00  0.00    +0.290 C 
ATOM      6  C   LIG    1       -4.238   6.995  -2.922  0.00  0.00    +0.020 C 
ENDROOT
BRANCH   1  10
ATOM      7  C   LIG    1       -5.461   5.277  -6.848  0.00  0.00    +0.020 A 
ATOM      8  N   LIG    1       -4.328   4.717  -6.483  0.00  0.00    -0.290 NA
ATOM      9  N   LIG    1       -4.151   4.926  -5.224  0.00  0.00    -0.360 NA
ATOM     10  C   LIG    1       -5.199   5.630  -4.757  0.00  0.00    +0.090 A 
ATOM     11  N   LIG    1       -6.008   5.851  -5.761  0.00  0.00    -0.520 NA
BRANCH   7  12
ATOM     12  C   LIG    1       -6.032   5.275  -8.211  0.00  0.00    +0.570 C 
ATOM     13  O   LIG    1       -7.092   5.829  -8.426  0.00  0.00    -0.530 OA
BRANCH  12  14
ATOM     14  O   LIG    1       -5.378   4.659  -9.215  0.00  0.00    -0.350 OA
BRANCH  14  16
ATOM     15  C   LIG    1       -5.117   3.952 -11.530  0.00  0.00    +0.050 C 
ATOM     16  C   LIG    1       -5.998   4.698 -10.527  0.00  0.00    +0.180 C 
ENDBRANCH  14  16
ENDBRANCH  12  14
ENDBRANCH   7  12
ENDBRANCH   1  10
BRANCH   4  17
ATOM     17  S   LIG    1       -3.735   6.120   0.745  0.00  0.00    +2.690 S 
ATOM     18  O   LIG    1       -3.271   7.413   1.108  0.00  0.00    -0.960 OA
ATOM     19  O   LIG    1       -4.485   5.289   1.620  0.00  0.00    -0.950 OA
BRANCH  17  20
ATOM     20  C   LIG    1       -2.312   5.194   0.276  0.00  0.00    -0.690 A 
ATOM     21  C   LIG    1       -1.172   5.850  -0.153  0.00  0.00    +0.160 A 
ATOM     22  C   LIG    1       -0.047   5.133  -0.524  0.00  0.00    +0.000 A 
ATOM     23  C   LIG    1       -0.059   3.757  -0.466  0.00  0.00    +0.000 A 
ATOM     24  C   LIG    1        1.151   2.955  -0.865  0.00  0.00    +0.090 C 
ATOM     25  C   LIG    1        1.251   1.700  -0.001  0.00  0.00    +0.270 C 
ATOM     26  N   LIG    1       -0.011   0.966   0.007  0.00  0.00    -0.730 N 
ATOM     27  H   LIG    1        0.002  -0.004   0.002  0.00  0.00    +0.410 HD
ATOM     28  C   LIG    1       -1.194   1.612   0.017  0.00  0.00    +0.570 C 
ATOM     29  O   LIG    1       -2.236   0.988   0.069  0.00  0.00    -0.530 OA
ATOM     30  C   LIG    1       -1.208   3.090  -0.032  0.00  0.00    -0.160 A 
ATOM     31  C   LIG    1       -2.336   3.814   0.339  0.00  0.00    +0.200 A 
ENDBRANCH  17  20
ENDBRANCH   4  17
TORSDOF 6
