REMARK  Name = ZINCkj000005h4kg.0
REMARK                            x       y       z     vdW  Elec       q    Type
REMARK                         _______ _______ _______ _____ _____    ______ ____
ROOT
ATOM      1  C   LIG    1       -0.157  -0.251  -1.263  0.00  0.00    -0.120 A 
ATOM      2  C   LIG    1        1.075  -0.210  -0.609  0.00  0.00    +0.120 A 
ATOM      3  C   LIG    1        2.165   0.351  -1.241  0.00  0.00    +0.020 A 
ATOM      4  C   LIG    1        2.034   0.871  -2.517  0.00  0.00    +0.150 A 
ATOM      5  C   LIG    1        0.808   0.835  -3.175  0.00  0.00    -0.170 A 
ATOM      6  C   LIG    1        0.718   1.421  -4.559  0.00  0.00    +0.350 C 
ATOM      7  N   LIG    1       -0.471   0.920  -5.256  0.00  0.00    -0.500 N 
ATOM      8  H   LIG    1       -0.374  -0.070  -5.418  0.00  0.00    +0.430 HD
ATOM      9  H   LIG    1       -0.572   1.399  -6.138  0.00  0.00    +0.440 HD
ATOM     10  C   LIG    1       -1.656   1.171  -4.421  0.00  0.00    +0.290 C 
ATOM     11  C   LIG    1       -1.627   0.206  -3.234  0.00  0.00    +0.140 C 
ATOM     12  F   LIG    1        3.106   1.419  -3.130  0.00  0.00    -0.120 F 
ATOM     13  C   LIG    1       -0.283   0.275  -2.554  0.00  0.00    -0.010 A 
ENDROOT
BRANCH   1  16
ATOM     14  C   LIG    1        0.022  -2.823  -0.115  0.00  0.00    +0.290 C 
ATOM     15  N   LIG    1       -1.253  -2.103  -0.097  0.00  0.00    -0.590 N 
ATOM     16  C   LIG    1       -1.328  -0.851  -0.592  0.00  0.00    +0.560 C 
ATOM     17  O   LIG    1       -2.360  -0.217  -0.487  0.00  0.00    -0.520 OA
BRANCH  15  18
ATOM     18  C   LIG    1       -2.448  -2.743   0.460  0.00  0.00    +0.230 C 
ATOM     19  C   LIG    1       -2.753  -4.061  -0.286  0.00  0.00    -0.000 C 
ATOM     20  C   LIG    1       -2.648  -5.145   0.810  0.00  0.00    +0.200 C 
ATOM     21  O   LIG    1       -2.893  -4.443   2.048  0.00  0.00    -0.360 OA
ATOM     22  C   LIG    1       -2.196  -3.183   1.919  0.00  0.00    +0.200 C 
ENDBRANCH  15  18
ENDBRANCH   1  16
TORSDOF 2
