REMARK  Name = ZINCrH000004qPL7.0
REMARK                            x       y       z     vdW  Elec       q    Type
REMARK                         _______ _______ _______ _____ _____    ______ ____
ROOT
ATOM      1  C   LIG    1        1.141   3.497  -0.180  0.00  0.00    -0.060 A 
ATOM      2  C   LIG    1       -0.067   4.171   0.012  0.00  0.00    +0.020 A 
ATOM      3  C   LIG    1       -1.233   3.457   0.199  0.00  0.00    +0.040 A 
ATOM      4  C   LIG    1       -1.212   2.075   0.190  0.00  0.00    +0.030 A 
ATOM      5  C   LIG    1       -0.015   1.395   0.004  0.00  0.00    +0.140 A 
ATOM      6  C   LIG    1        1.163   2.102  -0.184  0.00  0.00    +0.110 A 
ENDROOT
BRANCH   1  13
ATOM      7  C   LIG    1        5.947   3.479  -0.948  0.00  0.00    +0.140 C 
ATOM      8  C   LIG    1        4.671   4.256  -0.745  0.00  0.00    +0.190 A 
ATOM      9  C   LIG    1        4.697   5.619  -0.749  0.00  0.00    -0.140 A 
ATOM     10  C   LIG    1        3.492   6.323  -0.557  0.00  0.00    +0.530 A 
ATOM     11  N   LIG    1        2.353   5.621  -0.375  0.00  0.00    -0.630 N 
ATOM     12  H   LIG    1        1.512   6.084  -0.241  0.00  0.00    +0.420 HD
ATOM     13  C   LIG    1        2.391   4.259  -0.381  0.00  0.00    +0.450 A 
ATOM     14  O   LIG    1        3.478   7.543  -0.555  0.00  0.00    -0.540 OA
ATOM     15  N   LIG    1        3.523   3.609  -0.556  0.00  0.00    -0.520 NA
ENDBRANCH   1  13
BRANCH   5  16
ATOM     16  N   LIG    1        0.002  -0.004   0.002  0.00  0.00    -0.660 N 
ATOM     17  H   LIG    1       -0.758  -0.497  -0.345  0.00  0.00    +0.420 HD
ATOM     18  C   LIG    1        1.074  -0.666   0.481  0.00  0.00    +0.600 C 
ATOM     19  O   LIG    1        1.984  -0.052   1.004  0.00  0.00    -0.500 OA
BRANCH  18  20
ATOM     20  C   LIG    1        1.142  -2.133   0.373  0.00  0.00    +0.010 A 
ATOM     21  C   LIG    1        2.192  -2.846   0.837  0.00  0.00    -0.010 A 
ATOM     22  S   LIG    1        1.920  -4.508   0.538  0.00  0.00    +0.250 S 
ATOM     23  C   LIG    1        0.371  -4.137  -0.212  0.00  0.00    +0.110 A 
ATOM     24  N   LIG    1        0.174  -2.851  -0.181  0.00  0.00    -0.430 NA
BRANCH  23  25
ATOM     25  C   LIG    1       -0.558  -5.127  -0.779  0.00  0.00    +0.040 A 
ATOM     26  C   LIG    1       -0.368  -6.475  -0.813  0.00  0.00    +0.000 A 
ATOM     27  C   LIG    1       -1.500  -7.029  -1.441  0.00  0.00    -0.050 A 
ATOM     28  C   LIG    1       -2.317  -6.004  -1.757  0.00  0.00    +0.200 A 
ATOM     29  O   LIG    1       -1.748  -4.858  -1.351  0.00  0.00    -0.150 OA
ENDBRANCH  23  25
ENDBRANCH  18  20
ENDBRANCH   5  16
TORSDOF 4
