REMARK  Name = ZINCqH0000002T6W.0
REMARK                            x       y       z     vdW  Elec       q    Type
REMARK                         _______ _______ _______ _____ _____    ______ ____
ROOT
ATOM      1  C   LIG    1       -4.221   4.301   6.609  0.00  0.00    +0.610 C 
ATOM      2  N   LIG    1       -4.332   3.060   6.096  0.00  0.00    -0.600 N 
ATOM      3  C   LIG    1       -5.054   2.010   6.827  0.00  0.00    +0.260 C 
ATOM      4  C   LIG    1       -6.120   1.410   5.904  0.00  0.00    +0.030 C 
ATOM      5  C   LIG    1       -5.457   0.933   4.610  0.00  0.00    +0.060 C 
ATOM      6  C   LIG    1       -4.814   2.123   3.895  0.00  0.00    -0.020 C 
ATOM      7  C   LIG    1       -3.733   2.731   4.795  0.00  0.00    +0.310 C 
ATOM      8  O   LIG    1       -3.553   5.140   6.033  0.00  0.00    -0.520 OA
ENDROOT
BRANCH   1  12
ATOM      9  C   LIG    1       -5.874   4.860  10.113  0.00  0.00    +0.070 A 
ATOM     10  N   LIG    1       -6.192   5.798   9.280  0.00  0.00    -0.470 NA
ATOM     11  C   LIG    1       -5.699   5.721   8.070  0.00  0.00    +0.150 A 
ATOM     12  C   LIG    1       -4.905   4.642   7.861  0.00  0.00    -0.300 A 
ATOM     13  C   LIG    1       -5.989   6.744   7.002  0.00  0.00    +0.160 C 
ATOM     14  S   LIG    1       -4.849   3.717   9.360  0.00  0.00    +0.170 S 
BRANCH   9  15
ATOM     15  C   LIG    1       -6.345   4.782  11.543  0.00  0.00    +0.140 C 
BRANCH  15  17
ATOM     16  C   LIG    1       -8.131   3.912  13.057  0.00  0.00    +0.030 C 
ATOM     17  C   LIG    1       -7.653   3.991  11.606  0.00  0.00    +0.020 C 
ENDBRANCH  15  17
ENDBRANCH   9  15
ENDBRANCH   1  12
BRANCH   6  18
ATOM     18  C   LIG    1       -4.189   1.657   2.604  0.00  0.00    +0.520 C 
ATOM     19  N   LIG    1       -3.558   2.539   1.805  0.00  0.00    -0.730 N 
ATOM     20  H   LIG    1       -3.505   3.473   2.059  0.00  0.00    +0.400 HD
ATOM     21  O   LIG    1       -4.256   0.489   2.286  0.00  0.00    -0.530 OA
BRANCH  19  22
ATOM     22  C   LIG    1       -2.951   2.086   0.550  0.00  0.00    +0.230 C 
ATOM     23  C   LIG    1       -1.544   1.553   0.828  0.00  0.00    +0.000 C 
ATOM     24  C   LIG    1       -0.911   1.080  -0.482  0.00  0.00    +0.010 C 
ATOM     25  C   LIG    1       -0.828   2.253  -1.461  0.00  0.00    +0.000 C 
ATOM     26  C   LIG    1       -2.235   2.786  -1.739  0.00  0.00    +0.020 C 
ATOM     27  C   LIG    1       -2.869   3.259  -0.429  0.00  0.00    +0.010 C 
ENDBRANCH  19  22
ENDBRANCH   6  18
TORSDOF 5
