REMARK  Name = ZINCtV000002JFhF.0
REMARK                            x       y       z     vdW  Elec       q    Type
REMARK                         _______ _______ _______ _____ _____    ______ ____
ROOT
ATOM      1  C   LIG    1        1.965   3.590   0.002  0.00  0.00    -0.060 A 
ATOM      2  C   LIG    1        2.103   4.390   1.091  0.00  0.00    -0.010 A 
ATOM      3  O   LIG    1        2.287   5.668   0.697  0.00  0.00    -0.180 OA
ATOM      4  C   LIG    1        2.277   5.761  -0.647  0.00  0.00    +0.080 A 
ATOM      5  C   LIG    1        2.420   6.827  -1.528  0.00  0.00    +0.030 A 
ATOM      6  C   LIG    1        2.378   6.603  -2.888  0.00  0.00    +0.070 A 
ATOM      7  C   LIG    1        2.180   5.324  -3.391  0.00  0.00    +0.010 A 
ATOM      8  C   LIG    1        2.033   4.262  -2.543  0.00  0.00    +0.080 A 
ATOM      9  C   LIG    1        2.080   4.466  -1.163  0.00  0.00    -0.130 A 
ENDROOT
BRANCH   2  10
ATOM     10  C   LIG    1        2.059   3.934   2.487  0.00  0.00    +0.610 C 
ATOM     11  N   LIG    1        2.209   4.821   3.491  0.00  0.00    -0.650 N 
ATOM     12  H   LIG    1        2.426   5.745   3.293  0.00  0.00    +0.430 HD
ATOM     13  O   LIG    1        1.887   2.756   2.737  0.00  0.00    -0.480 OA
BRANCH  11  14
ATOM     14  C   LIG    1        2.052   4.407   4.820  0.00  0.00    +0.140 A 
ATOM     15  C   LIG    1        1.272   3.298   5.115  0.00  0.00    +0.100 A 
ATOM     16  C   LIG    1        1.118   2.891   6.426  0.00  0.00    +0.050 A 
ATOM     17  C   LIG    1        1.740   3.587   7.447  0.00  0.00    +0.080 A 
ATOM     18  C   LIG    1        2.521   4.696   7.157  0.00  0.00    +0.060 A 
ATOM     19  F   LIG    1        3.127   5.375   8.156  0.00  0.00    -0.110 F 
ATOM     20  F   LIG    1        1.588   3.186   8.728  0.00  0.00    -0.120 F 
ATOM     21  C   LIG    1        2.683   5.104   5.845  0.00  0.00    +0.070 A 
ATOM     22  F   LIG    1        3.448   6.181   5.560  0.00  0.00    -0.110 F 
ENDBRANCH  11  14
ENDBRANCH   2  10
BRANCH   1  23
ATOM     23  C   LIG    1        1.743   2.099  -0.004  0.00  0.00    +0.160 C 
BRANCH  23  24
ATOM     24  S   LIG    1       -0.034   1.753   0.023  0.00  0.00    +0.040 S 
BRANCH  24  29
ATOM     25  C   LIG    1       -1.967  -3.079   0.022  0.00  0.00    +0.160 C 
ATOM     26  C   LIG    1       -0.844  -2.075   0.011  0.00  0.00    +0.080 A 
ATOM     27  C   LIG    1        0.441  -2.430  -0.013  0.00  0.00    -0.080 A 
ATOM     28  S   LIG    1        1.415  -0.963  -0.026  0.00  0.00    +0.130 S 
ATOM     29  C   LIG    1       -0.003  -0.008   0.011  0.00  0.00    +0.020 A 
ATOM     30  N   LIG    1       -1.053  -0.770   0.023  0.00  0.00    -0.450 NA
ENDBRANCH  24  29
ENDBRANCH  23  24
ENDBRANCH   1  23
TORSDOF 5
