REMARK  Name = ZINCzw000000043J.0
REMARK                            x       y       z     vdW  Elec       q    Type
REMARK                         _______ _______ _______ _____ _____    ______ ____
ROOT
ATOM      1  C   LIG    1       -1.008   8.211  -0.191  0.00  0.00    +0.750 C 
ATOM      2  N   LIG    1       -0.930   8.408  -1.495  0.00  0.00    -0.550 N 
ATOM      3  C   LIG    1        0.289   8.350  -2.083  0.00  0.00    +0.440 A 
ATOM      4  N   LIG    1        0.642   8.691  -3.295  0.00  0.00    -0.430 NA
ATOM      5  C   LIG    1        1.979   8.491  -3.456  0.00  0.00    +0.060 A 
ATOM      6  C   LIG    1        2.848   8.691  -4.534  0.00  0.00    +0.110 A 
ATOM      7  C   LIG    1        4.188   8.393  -4.396  0.00  0.00    +0.080 A 
ATOM      8  C   LIG    1        4.679   7.895  -3.193  0.00  0.00    +0.120 A 
ATOM      9  O   LIG    1        6.010   7.609  -3.076  0.00  0.00    -0.310 OA
ATOM     10  C   LIG    1        6.894   8.731  -3.098  0.00  0.00    +0.230 C 
ATOM     11  C   LIG    1        7.223   9.133  -4.528  0.00  0.00    +0.000 C 
ATOM     12  C   LIG    1        6.001   9.632  -5.284  0.00  0.00    +0.230 C 
ATOM     13  C   LIG    1        3.831   7.689  -2.121  0.00  0.00    +0.020 A 
ATOM     14  O   LIG    1        5.042   8.586  -5.444  0.00  0.00    -0.310 OA
ATOM     15  C   LIG    1        2.479   7.980  -2.243  0.00  0.00    +0.100 A 
ATOM     16  N   LIG    1        1.398   7.890  -1.398  0.00  0.00    -0.520 N 
ATOM     17  C   LIG    1        1.313   7.408  -0.015  0.00  0.00    +0.620 C 
ATOM     18  H   LIG    1       -1.726   8.590  -2.019  0.00  0.00    +0.470 HD
ATOM     19  N   LIG    1        0.112   8.025   0.575  0.00  0.00    -0.690 NA
ATOM     20  H   LIG    1        0.115   8.301   1.505  0.00  0.00    +0.460 HD
ENDROOT
BRANCH  17  21
ATOM     21  C   LIG    1        1.182   5.907   0.000  0.00  0.00    -0.190 A 
ATOM     22  C   LIG    1        0.835   5.240  -1.136  0.00  0.00    +0.130 A 
ATOM     23  C   LIG    1        0.722   3.836  -1.079  0.00  0.00    -0.110 A 
ATOM     24  C   LIG    1        0.368   3.087  -2.212  0.00  0.00    +0.050 A 
ATOM     25  C   LIG    1        0.273   1.731  -2.120  0.00  0.00    +0.040 A 
ATOM     26  C   LIG    1        0.513   1.078  -0.914  0.00  0.00    +0.060 A 
ATOM     27  C   LIG    1        0.858   1.774   0.204  0.00  0.00    +0.040 A 
ATOM     28  C   LIG    1        0.971   3.173   0.148  0.00  0.00    +0.160 A 
ATOM     29  N   LIG    1        1.309   3.881   1.232  0.00  0.00    -0.480 NA
ATOM     30  C   LIG    1        1.416   5.193   1.185  0.00  0.00    +0.350 A 
BRANCH  30  31
ATOM     31  N   LIG    1        1.768   5.885   2.334  0.00  0.00    -0.500 N 
ATOM     32  C   LIG    1        3.115   5.506   2.786  0.00  0.00    +0.180 C 
ATOM     33  C   LIG    1        3.486   6.335   4.018  0.00  0.00    +0.230 C 
ATOM     34  O   LIG    1        2.499   6.138   5.034  0.00  0.00    -0.370 OA
ATOM     35  C   LIG    1        1.175   6.498   4.628  0.00  0.00    +0.230 C 
ATOM     36  C   LIG    1        0.781   5.670   3.402  0.00  0.00    +0.170 C 
ENDBRANCH  30  31
ENDBRANCH  17  21
BRANCH   1  37
ATOM     37  N   LIG    1       -2.239   8.194   0.409  0.00  0.00    -0.780 NA
ATOM     38  H   LIG    1       -2.309   8.050   1.366  0.00  0.00    +0.450 HD
ATOM     39  H   LIG    1       -3.039   8.324  -0.122  0.00  0.00    +0.440 HD
ENDBRANCH   1  37
TORSDOF 3
