REMARK  Name = ZINCrg00001JduXK.0
REMARK                            x       y       z     vdW  Elec       q    Type
REMARK                         _______ _______ _______ _____ _____    ______ ____
ROOT
ATOM      1  N   LIG    1       -1.192   1.857   0.011  0.00  0.00    -0.570 N 
ATOM      2  C   LIG    1       -0.014   1.210   0.009  0.00  0.00    +0.710 C 
ATOM      3  N   LIG    1        1.153   1.889   0.001  0.00  0.00    -0.730 N 
ATOM      4  H   LIG    1        1.994   1.429   0.127  0.00  0.00    +0.420 HD
ATOM      5  C   LIG    1        1.120   3.332  -0.219  0.00  0.00    +0.210 C 
ATOM      6  C   LIG    1        2.472   3.983   0.012  0.00  0.00    +0.040 C 
ATOM      7  C   LIG    1        2.361   5.484  -0.258  0.00  0.00    +0.090 C 
ATOM      8  C   LIG    1        1.702   6.229   0.844  0.00  0.00    -0.070 C 
ATOM      9  C   LIG    1        1.234   5.969   2.010  0.00  0.00    -0.030 C 
ATOM     10  C   LIG    1        1.270   4.621   2.677  0.00  0.00    +0.060 C 
ATOM     11  C   LIG    1        0.275   3.657   2.048  0.00  0.00    +0.020 C 
ATOM     12  C   LIG    1       -0.013   3.953   0.577  0.00  0.00    +0.030 C 
ATOM     13  O   LIG    1        0.002  -0.004   0.002  0.00  0.00    -0.530 OA
ATOM     14  C   LIG    1       -1.279   3.184   0.220  0.00  0.00    +0.520 C 
ATOM     15  O   LIG    1       -2.341   3.761   0.126  0.00  0.00    -0.490 OA
ENDROOT
BRANCH   1  16
ATOM     16  C   LIG    1       -2.421   1.092  -0.220  0.00  0.00    +0.440 C 
BRANCH  16  19
ATOM     17  N   LIG    1       -4.079   0.414   2.943  0.00  0.00    -0.290 N 
ATOM     18  C   LIG    1       -3.905   1.207   1.861  0.00  0.00    +0.160 A 
ATOM     19  C   LIG    1       -2.964   0.603   1.098  0.00  0.00    -0.040 A 
ATOM     20  N   LIG    1       -2.606  -0.510   1.748  0.00  0.00    -0.230 NA
ATOM     21  N   LIG    1       -3.285  -0.594   2.837  0.00  0.00    -0.070 NA
BRANCH  17  26
ATOM     22  C   LIG    1       -4.427   1.711   5.031  0.00  0.00    +0.140 C 
ATOM     23  C   LIG    1       -5.635   2.596   5.394  0.00  0.00    +0.220 C 
ATOM     24  O   LIG    1       -6.781   2.054   4.717  0.00  0.00    -0.350 OA
ATOM     25  C   LIG    1       -6.293   1.366   3.546  0.00  0.00    +0.250 C 
ATOM     26  C   LIG    1       -5.007   0.663   4.050  0.00  0.00    +0.260 C 
BRANCH  22  28
ATOM     27  C   LIG    1       -2.816   1.763   6.804  0.00  0.00    +0.220 C 
ATOM     28  O   LIG    1       -3.908   1.070   6.198  0.00  0.00    -0.370 OA
ENDBRANCH  22  28
ENDBRANCH  17  26
ENDBRANCH  16  19
ENDBRANCH   1  16
TORSDOF 4
