REMARK  Name = ZINCpk00000ebcOa.0
REMARK                            x       y       z     vdW  Elec       q    Type
REMARK                         _______ _______ _______ _____ _____    ______ ____
ROOT
ATOM      1  C   LIG    1        3.493   0.832  -0.026  0.00  0.00    +0.130 C 
ATOM      2  C   LIG    1        3.959   1.583   1.223  0.00  0.00    +0.040 C 
ATOM      3  C   LIG    1        5.489   1.665   1.224  0.00  0.00    +0.280 C 
ATOM      4  N   LIG    1        5.931   2.268  -0.041  0.00  0.00    -0.620 N 
ATOM      5  C   LIG    1        5.466   1.678  -1.304  0.00  0.00    +0.290 C 
ATOM      6  C   LIG    1        6.747   3.340  -0.043  0.00  0.00    +0.490 C 
ATOM      7  O   LIG    1        7.104   3.828  -1.094  0.00  0.00    -0.520 OA
ATOM      8  C   LIG    1        3.936   1.596  -1.277  0.00  0.00    +0.040 C 
ENDROOT
BRANCH   1  13
ATOM      9  C   LIG    1       -1.200  -0.912   0.009  0.00  0.00    +0.200 C 
ATOM     10  C   LIG    1        0.002  -0.004   0.002  0.00  0.00    +0.170 A 
ATOM     11  N   LIG    1       -0.015   1.295   0.009  0.00  0.00    -0.380 NA
ATOM     12  O   LIG    1        1.117   1.731   0.001  0.00  0.00    +0.080 OA
ATOM     13  C   LIG    1        1.990   0.720  -0.013  0.00  0.00    +0.180 A 
ATOM     14  N   LIG    1        1.291  -0.389  -0.012  0.00  0.00    -0.480 NA
ENDBRANCH   1  13
BRANCH   6  15
ATOM     15  C   LIG    1        7.215   3.933   1.261  0.00  0.00    +0.330 C 
BRANCH  15  16
ATOM     16  N   LIG    1        8.085   5.080   0.991  0.00  0.00    -0.580 N 
ATOM     17  C   LIG    1        9.529   4.886   0.843  0.00  0.00    +0.310 C 
BRANCH  16  18
ATOM     18  C   LIG    1        7.541   6.350   0.876  0.00  0.00    +0.440 A 
ATOM     19  C   LIG    1        6.183   6.540   1.122  0.00  0.00    -0.100 A 
ATOM     20  C   LIG    1        5.649   7.796   1.007  0.00  0.00    +0.160 A 
ATOM     21  C   LIG    1        6.497   8.853   0.643  0.00  0.00    -0.150 A 
ATOM     22  C   LIG    1        7.849   8.589   0.412  0.00  0.00    +0.380 A 
ATOM     23  N   LIG    1        8.322   7.367   0.539  0.00  0.00    -0.530 NA
BRANCH  21  24
ATOM     24  C   LIG    1        5.984  10.184   0.512  0.00  0.00    +0.260 C 
ATOM     25  N   LIG    1        5.577  11.239   0.407  0.00  0.00    -0.420 NA
ENDBRANCH  21  24
ENDBRANCH  16  18
ENDBRANCH  15  16
ENDBRANCH   6  15
TORSDOF 5
