REMARK  Name = ZINCpe00000MJINZ.0
REMARK                            x       y       z     vdW  Elec       q    Type
REMARK                         _______ _______ _______ _____ _____    ______ ____
ROOT
ATOM      1  N   LIG    1       -2.092   0.989  -1.285  0.00  0.00    -0.510 NA
ATOM      2  C   LIG    1       -2.804   1.454  -2.484  0.00  0.00    +0.160 C 
ATOM      3  C   LIG    1       -2.004   1.064  -3.729  0.00  0.00    +0.220 C 
ATOM      4  O   LIG    1       -0.686   1.612  -3.635  0.00  0.00    -0.390 OA
ATOM      5  C   LIG    1        0.036   1.179  -2.479  0.00  0.00    +0.250 C 
ATOM      6  C   LIG    1       -0.744   1.571  -1.220  0.00  0.00    +0.110 C 
ENDROOT
BRANCH   6   7
ATOM      7  C   LIG    1       -0.017   1.041   0.017  0.00  0.00    +0.010 C 
ATOM      8  C   LIG    1        1.438   1.515  -0.004  0.00  0.00    +0.020 C 
ATOM      9  C   LIG    1        2.165   0.985   1.233  0.00  0.00    +0.000 C 
ATOM     10  C   LIG    1        2.127  -0.545   1.231  0.00  0.00    +0.010 C 
ATOM     11  C   LIG    1        0.673  -1.019   1.251  0.00  0.00    -0.020 C 
ATOM     12  C   LIG    1       -0.054  -0.489   0.014  0.00  0.00    +0.190 C 
BRANCH  12  13
ATOM     13  O   LIG    1        0.590  -0.979  -1.164  0.00  0.00    -0.550 OA
ATOM     14  H   LIG    1        0.603  -1.944  -1.232  0.00  0.00    +0.370 HD
ENDBRANCH  12  13
ENDBRANCH   6   7
BRANCH   1  15
ATOM     15  C   LIG    1       -2.856   1.294  -0.068  0.00  0.00    +0.200 C 
BRANCH  15  17
ATOM     16  N   LIG    1       -4.902   0.480   1.058  0.00  0.00    -0.620 N 
ATOM     17  C   LIG    1       -4.051   0.381   0.018  0.00  0.00    +0.520 C 
ATOM     18  O   LIG    1       -4.248  -0.443  -0.850  0.00  0.00    -0.500 OA
BRANCH  16  19
ATOM     19  C   LIG    1       -6.064  -0.408   1.141  0.00  0.00    +0.310 C 
BRANCH  19  20
ATOM     20  C   LIG    1       -5.683  -1.678   1.905  0.00  0.00    +0.180 C 
BRANCH  20  22
ATOM     21  N   LIG    1       -7.752  -3.259   2.052  0.00  0.00    -0.420 NA
ATOM     22  C   LIG    1       -6.851  -2.570   1.988  0.00  0.00    +0.200 C 
ENDBRANCH  20  22
ENDBRANCH  19  20
ENDBRANCH  16  19
BRANCH  16  23
ATOM     23  C   LIG    1       -4.665   1.476   2.106  0.00  0.00    +0.300 C 
BRANCH  23  24
ATOM     24  C   LIG    1       -5.369   2.783   1.737  0.00  0.00    +0.180 C 
BRANCH  24  25
ATOM     25  C   LIG    1       -5.130   3.783   2.790  0.00  0.00    +0.200 C 
ATOM     26  N   LIG    1       -4.946   4.555   3.603  0.00  0.00    -0.420 NA
ENDBRANCH  24  25
ENDBRANCH  23  24
ENDBRANCH  16  23
ENDBRANCH  15  17
ENDBRANCH   1  15
TORSDOF 10
