REMARK  Name = ZINCvU0000000Cqa.0
REMARK                            x       y       z     vdW  Elec       q    Type
REMARK                         _______ _______ _______ _____ _____    ______ ____
ROOT
ATOM      1  C   LIG    1       -1.310   2.116   0.020  0.00  0.00    +0.300 A 
ATOM      2  N   LIG    1       -1.449   3.427   0.027  0.00  0.00    -0.280 NA
ATOM      3  N   LIG    1       -2.824   3.695   0.035  0.00  0.00    -0.340 N 
ATOM      4  C   LIG    1       -3.563   4.847   0.045  0.00  0.00    +0.370 A 
ATOM      5  N   LIG    1       -4.871   4.850   0.052  0.00  0.00    -0.490 NA
ATOM      6  C   LIG    1       -5.591   3.702   0.050  0.00  0.00    +0.140 A 
ATOM      7  C   LIG    1       -4.916   2.461   0.040  0.00  0.00    -0.090 A 
ATOM      8  C   LIG    1       -5.642   1.272   0.036  0.00  0.00    +0.090 A 
ATOM      9  C   LIG    1       -7.019   1.315   0.045  0.00  0.00    +0.020 A 
ATOM     10  C   LIG    1       -7.687   2.533   0.055  0.00  0.00    +0.070 A 
ATOM     11  C   LIG    1       -6.989   3.719   0.057  0.00  0.00    +0.060 A 
ATOM     12  C   LIG    1       -3.448   2.476   0.032  0.00  0.00    +0.340 A 
ATOM     13  N   LIG    1       -2.520   1.545   0.017  0.00  0.00    -0.510 NA
ENDROOT
BRANCH   1  18
ATOM     14  C   LIG    1        2.383   1.416  -0.014  0.00  0.00    -0.050 A 
ATOM     15  C   LIG    1        2.396   0.033  -0.021  0.00  0.00    +0.130 A 
ATOM     16  C   LIG    1        1.208  -0.675  -0.013  0.00  0.00    +0.040 A 
ATOM     17  C   LIG    1        0.002  -0.004   0.002  0.00  0.00    +0.140 A 
ATOM     18  C   LIG    1       -0.017   1.389   0.010  0.00  0.00    -0.020 A 
ATOM     19  C   LIG    1        1.183   2.097   0.002  0.00  0.00    +0.140 A 
BRANCH  14  21
ATOM     20  O   LIG    1        4.719   1.566  -0.036  0.00  0.00    -0.150 OA
ATOM     21  N   LIG    1        3.659   2.167  -0.023  0.00  0.00    +0.030 N 
ATOM     22  O   LIG    1        3.649   3.384  -0.016  0.00  0.00    -0.150 OA
ENDBRANCH  14  21
ENDBRANCH   1  18
BRANCH   4  23
ATOM     23  S   LIG    1       -2.716   6.392   0.049  0.00  0.00    +0.050 S 
BRANCH  23  24
ATOM     24  C   LIG    1       -4.128   7.524   0.062  0.00  0.00    +0.160 C 
BRANCH  24  25
ATOM     25  C   LIG    1       -3.630   8.947   0.068  0.00  0.00    -0.080 A 
ATOM     26  C   LIG    1       -3.402   9.595   1.267  0.00  0.00    +0.040 A 
ATOM     27  C   LIG    1       -2.940  10.898   1.273  0.00  0.00    +0.040 A 
ATOM     28  C   LIG    1       -2.718  11.558   0.079  0.00  0.00    +0.040 A 
ATOM     29  C   LIG    1       -2.952  10.912  -1.122  0.00  0.00    -0.030 A 
ATOM     30 CL   LIG    1       -2.672  11.739  -2.622  0.00  0.00    -0.060 Cl
ATOM     31  C   LIG    1       -3.408   9.606  -1.127  0.00  0.00    +0.050 A 
ENDBRANCH  24  25
ENDBRANCH  23  24
ENDBRANCH   4  23
TORSDOF 5
