REMARK  Name = ZINCqH0000004u7z.0
REMARK                            x       y       z     vdW  Elec       q    Type
REMARK                         _______ _______ _______ _____ _____    ______ ____
ROOT
ATOM      1  C   LIG    1       -2.641   3.844  -0.045  0.00  0.00    +0.300 C 
ATOM      2  C   LIG    1       -1.286   3.191  -0.153  0.00  0.00    -0.090 A 
ATOM      3  C   LIG    1       -1.236   1.804  -0.187  0.00  0.00    +0.010 A 
ATOM      4  C   LIG    1       -0.026   1.149  -0.294  0.00  0.00    +0.000 A 
ATOM      5  C   LIG    1        1.143   1.880  -0.378  0.00  0.00    +0.000 A 
ATOM      6  C   LIG    1        1.095   3.258  -0.344  0.00  0.00    +0.000 A 
ATOM      7  C   LIG    1       -0.121   3.921  -0.229  0.00  0.00    -0.070 A 
ATOM      8  C   LIG    1       -0.095   5.426  -0.184  0.00  0.00    +0.070 C 
ATOM      9  C   LIG    1       -1.463   6.004  -0.541  0.00  0.00    +0.280 C 
ATOM     10  N   LIG    1       -2.479   5.274   0.235  0.00  0.00    -0.600 N 
ATOM     11  C   LIG    1       -3.231   5.896   1.165  0.00  0.00    +0.600 C 
ATOM     12  O   LIG    1       -4.125   5.292   1.728  0.00  0.00    -0.520 OA
ENDROOT
BRANCH  11  13
ATOM     13  C   LIG    1       -2.971   7.301   1.500  0.00  0.00    -0.260 A 
ATOM     14  C   LIG    1       -3.464   8.325   0.682  0.00  0.00    +0.180 A 
ATOM     15  C   LIG    1       -3.205   9.642   1.020  0.00  0.00    -0.050 A 
ATOM     16  C   LIG    1       -2.464   9.931   2.159  0.00  0.00    +0.260 A 
ATOM     17  N   LIG    1       -1.984   8.926   2.954  0.00  0.00    -0.590 N 
ATOM     18  H   LIG    1       -1.468   9.146   3.745  0.00  0.00    +0.420 HD
ATOM     19  C   LIG    1       -2.224   7.636   2.656  0.00  0.00    +0.540 A 
ATOM     20  O   LIG    1       -1.794   6.753   3.378  0.00  0.00    -0.530 OA
BRANCH  16  21
ATOM     21  C   LIG    1       -2.192  11.327   2.512  0.00  0.00    -0.020 A 
ATOM     22  C   LIG    1       -1.486  11.757   3.600  0.00  0.00    +0.010 A 
ATOM     23  C   LIG    1       -1.471  13.160   3.542  0.00  0.00    -0.050 A 
ATOM     24  C   LIG    1       -2.168  13.520   2.442  0.00  0.00    +0.220 A 
ATOM     25  O   LIG    1       -2.601  12.412   1.823  0.00  0.00    -0.150 OA
ENDBRANCH  16  21
ENDBRANCH  11  13
BRANCH   1  27
ATOM     26  C   LIG    1       -4.819   4.213  -1.213  0.00  0.00    +0.020 C 
ATOM     27  C   LIG    1       -3.398   3.666  -1.363  0.00  0.00    +0.020 C 
ENDBRANCH   1  27
TORSDOF 3
