REMARK  Name = ZINCb70000002qVb.0
REMARK                            x       y       z     vdW  Elec       q    Type
REMARK                         _______ _______ _______ _____ _____    ______ ____
ROOT
ATOM      1  C   LIG    1       -2.793   3.178   1.166  0.00  0.00    +0.060 C 
ATOM      2  C   LIG    1       -1.352   2.972   0.693  0.00  0.00    +0.200 C 
ATOM      3  O   LIG    1       -1.312   2.927  -0.740  0.00  0.00    -0.360 OA
ATOM      4  C   LIG    1       -0.845   1.640  -1.177  0.00  0.00    +0.230 C 
ATOM      5  C   LIG    1       -0.013   1.086   0.008  0.00  0.00    +0.000 C 
ATOM      6  C   LIG    1       -0.820   1.626   1.211  0.00  0.00    +0.060 C 
ATOM      7  C   LIG    1        0.096   1.833   2.409  0.00  0.00    +0.270 C 
ATOM      8  N   LIG    1        0.573   0.528   2.894  0.00  0.00    -0.510 N 
ATOM      9  C   LIG    1       -0.580  -0.305   3.261  0.00  0.00    +0.250 C 
ATOM     10  C   LIG    1       -1.463  -0.526   2.029  0.00  0.00    +0.260 C 
ATOM     11  H   LIG    1        1.161   0.664   3.703  0.00  0.00    +0.440 HD
ATOM     12  H   LIG    1        1.101   0.071   2.166  0.00  0.00    +0.430 HD
ATOM     13  O   LIG    1       -1.889   0.745   1.525  0.00  0.00    -0.330 OA
ENDROOT
TORSDOF 0
