REMARK  Name = ZINCtV00001bB3Qb.0
REMARK                            x       y       z     vdW  Elec       q    Type
REMARK                         _______ _______ _______ _____ _____    ______ ____
ROOT
ATOM      1  C   LIG    1       -0.236  11.183  -0.739  0.00  0.00    +0.150 C 
ATOM      2  C   LIG    1       -0.972   9.871  -0.641  0.00  0.00    +0.030 A 
ATOM      3  C   LIG    1       -0.400   8.672  -0.440  0.00  0.00    +0.000 A 
ATOM      4  C   LIG    1       -1.493   7.689  -0.418  0.00  0.00    -0.210 A 
ATOM      5  C   LIG    1       -2.659   8.414  -0.605  0.00  0.00    +0.110 A 
ATOM      6  C   LIG    1       -4.055   7.848  -0.654  0.00  0.00    +0.160 C 
ATOM      7  N   LIG    1       -2.327   9.714  -0.736  0.00  0.00    -0.390 N 
ENDROOT
BRANCH   7   8
ATOM      8  C   LIG    1       -3.240  10.756  -0.942  0.00  0.00    +0.130 A 
ATOM      9  C   LIG    1       -3.980  10.810  -2.115  0.00  0.00    +0.050 A 
ATOM     10  C   LIG    1       -4.886  11.836  -2.313  0.00  0.00    -0.010 A 
ATOM     11  C   LIG    1       -5.046  12.815  -1.348  0.00  0.00    +0.070 A 
ATOM     12  C   LIG    1       -4.305  12.766  -0.180  0.00  0.00    -0.010 A 
ATOM     13 CL   LIG    1       -4.509  13.995   1.028  0.00  0.00    -0.040 Cl
ATOM     14 CL   LIG    1       -5.817  11.900  -3.777  0.00  0.00    -0.040 Cl
ATOM     15  C   LIG    1       -3.403  11.739   0.025  0.00  0.00    +0.060 A 
ENDBRANCH   7   8
BRANCH   4  16
ATOM     16  C   LIG    1       -1.378   6.288  -0.236  0.00  0.00    +0.300 C 
ATOM     17  C   LIG    1       -0.278   5.615  -0.731  0.00  0.00    -0.170 C 
BRANCH  17  18
ATOM     18  C   LIG    1       -0.208   4.151  -0.636  0.00  0.00    +0.580 C 
ATOM     19  N   LIG    1        0.865   3.494  -1.119  0.00  0.00    -0.670 N 
ATOM     20  H   LIG    1        1.628   3.991  -1.452  0.00  0.00    +0.410 HD
ATOM     21  O   LIG    1       -1.120   3.530  -0.120  0.00  0.00    -0.510 OA
BRANCH  19  22
ATOM     22  C   LIG    1        0.878   2.096  -1.140  0.00  0.00    +0.180 A 
ATOM     23  C   LIG    1       -0.317   1.389  -1.168  0.00  0.00    +0.030 A 
ATOM     24  C   LIG    1       -0.300   0.008  -1.190  0.00  0.00    +0.050 A 
ATOM     25  C   LIG    1        0.904  -0.671  -1.183  0.00  0.00    +0.000 A 
ATOM     26  C   LIG    1        2.096   0.029  -1.155  0.00  0.00    +0.070 A 
ATOM     27  C   LIG    1        2.087   1.411  -1.133  0.00  0.00    -0.140 A 
ATOM     28  I   LIG    1        3.893   2.471  -1.090  0.00  0.00    -0.040 I 
ENDBRANCH  19  22
ENDBRANCH  17  18
BRANCH  17  29
ATOM     29  C   LIG    1        0.794   6.345  -1.338  0.00  0.00    +0.250 C 
ATOM     30  N   LIG    1        1.645   6.924  -1.819  0.00  0.00    -0.410 NA
ENDBRANCH  17  29
ENDBRANCH   4  16
TORSDOF 5
