REMARK  Name = ZINCtV00000L6kgo.0
REMARK                            x       y       z     vdW  Elec       q    Type
REMARK                         _______ _______ _______ _____ _____    ______ ____
ROOT
ATOM      1  O   LIG    1       -1.160   1.681   0.133  0.00  0.00    -0.480 OA
ATOM      2  C   LIG    1       -0.080   1.128   0.149  0.00  0.00    +0.530 C 
ATOM      3  N   LIG    1        1.051   1.860   0.171  0.00  0.00    -0.510 N 
ENDROOT
BRANCH   2   4
ATOM      4  C   LIG    1       -0.004  -0.377   0.149  0.00  0.00    -0.020 C 
ATOM      5  C   LIG    1        0.636  -0.858  -1.157  0.00  0.00    +0.010 C 
ATOM      6  C   LIG    1        0.638  -2.388  -1.183  0.00  0.00    +0.230 C 
ATOM      7  O   LIG    1       -0.702  -2.867  -1.045  0.00  0.00    -0.380 OA
ATOM      8  C   LIG    1       -1.334  -2.488   0.179  0.00  0.00    +0.210 C 
ATOM      9  C   LIG    1       -1.415  -0.962   0.259  0.00  0.00    +0.050 C 
ENDBRANCH   2   4
BRANCH   3  10
ATOM     10  C   LIG    1        2.283   1.232   0.309  0.00  0.00    +0.290 A 
ATOM     11  N   LIG    1        3.437   1.816   0.214  0.00  0.00    -0.470 NA
ATOM     12  C   LIG    1        4.511   1.056   0.375  0.00  0.00    +0.130 A 
ATOM     13  C   LIG    1        4.266  -0.244   0.621  0.00  0.00    -0.100 A 
ATOM     14  S   LIG    1        2.520  -0.480   0.649  0.00  0.00    +0.140 S 
BRANCH  12  15
ATOM     15  C   LIG    1        5.888   1.601   0.291  0.00  0.00    -0.010 A 
ATOM     16  C   LIG    1        6.985   0.760   0.468  0.00  0.00    +0.060 A 
ATOM     17  C   LIG    1        8.264   1.272   0.388  0.00  0.00    +0.040 A 
ATOM     18  C   LIG    1        8.459   2.618   0.132  0.00  0.00    -0.020 A 
ATOM     19  C   LIG    1        7.373   3.459  -0.045  0.00  0.00    +0.040 A 
ATOM     20 CL   LIG    1       10.071   3.255   0.032  0.00  0.00    -0.050 Cl
ATOM     21  C   LIG    1        6.089   2.956   0.028  0.00  0.00    -0.000 A 
ATOM     22 CL   LIG    1        4.728   4.009  -0.201  0.00  0.00    -0.020 Cl
ENDBRANCH  12  15
ENDBRANCH   3  10
BRANCH   3  23
ATOM     23  C   LIG    1        0.983   3.319   0.050  0.00  0.00    +0.360 C 
BRANCH  23  24
ATOM     24  C   LIG    1        0.813   3.929   1.417  0.00  0.00    -0.120 A 
ATOM     25  C   LIG    1       -0.451   4.073   1.957  0.00  0.00    +0.040 A 
ATOM     26  C   LIG    1       -0.607   4.629   3.214  0.00  0.00    -0.010 A 
ATOM     27  C   LIG    1        0.501   5.050   3.925  0.00  0.00    +0.010 A 
ATOM     28  C   LIG    1        1.765   4.911   3.382  0.00  0.00    -0.010 A 
ATOM     29  C   LIG    1        1.921   4.351   2.128  0.00  0.00    +0.030 A 
ENDBRANCH  23  24
ENDBRANCH   3  23
TORSDOF 5
