REMARK  Name = ZINCqH0000005ryR.0
REMARK                            x       y       z     vdW  Elec       q    Type
REMARK                         _______ _______ _______ _____ _____    ______ ____
ROOT
ATOM      1  C   LIG    1        4.490  -4.229   1.524  0.00  0.00    -0.020 C 
ATOM      2  C   LIG    1        3.175  -5.011   1.547  0.00  0.00    +0.050 C 
ATOM      3  C   LIG    1        2.092  -4.212   0.818  0.00  0.00    +0.010 C 
ATOM      4  C   LIG    1        1.874  -2.878   1.539  0.00  0.00    +0.270 C 
ATOM      5  N   LIG    1        3.165  -2.184   1.650  0.00  0.00    -0.630 N 
ATOM      6  C   LIG    1        3.304  -0.919   1.206  0.00  0.00    +0.710 C 
ATOM      7  N   LIG    1        2.287  -0.316   0.560  0.00  0.00    -0.740 N 
ATOM      8  H   LIG    1        1.429  -0.761   0.483  0.00  0.00    +0.400 HD
ATOM      9  O   LIG    1        4.348  -0.323   1.387  0.00  0.00    -0.580 OA
ATOM     10  C   LIG    1        4.301  -2.897   2.249  0.00  0.00    +0.310 C 
ENDROOT
BRANCH   1  14
ATOM     11  C   LIG    1        7.857  -5.316   2.986  0.00  0.00    +0.290 C 
ATOM     12  N   LIG    1        6.814  -4.537   2.315  0.00  0.00    -0.730 N 
ATOM     13  H   LIG    1        7.022  -3.665   1.944  0.00  0.00    +0.400 HD
ATOM     14  C   LIG    1        5.564  -5.031   2.214  0.00  0.00    +0.520 C 
ATOM     15  O   LIG    1        5.303  -6.120   2.679  0.00  0.00    -0.530 OA
ENDBRANCH   1  14
BRANCH   7  16
ATOM     16  C   LIG    1        2.477   1.014  -0.025  0.00  0.00    +0.310 C 
ATOM     17  C   LIG    1        2.981   0.870  -1.463  0.00  0.00    +0.040 C 
BRANCH  16  18
ATOM     18  C   LIG    1        1.166   1.756  -0.024  0.00  0.00    -0.070 A 
ATOM     19  C   LIG    1       -0.009   1.068  -0.058  0.00  0.00    +0.020 A 
ATOM     20  C   LIG    1       -1.232   1.736  -0.063  0.00  0.00    +0.040 A 
ATOM     21  C   LIG    1       -1.287   3.097  -0.022  0.00  0.00    -0.020 A 
ATOM     22  C   LIG    1       -0.094   3.841   0.013  0.00  0.00    -0.040 A 
ATOM     23  C   LIG    1       -0.111   5.245   0.049  0.00  0.00    +0.020 A 
ATOM     24  C   LIG    1        1.064   5.932   0.082  0.00  0.00    +0.020 A 
ATOM     25  C   LIG    1        2.286   5.263   0.081  0.00  0.00    +0.020 A 
ATOM     26  C   LIG    1        2.341   3.904   0.047  0.00  0.00    +0.020 A 
ATOM     27 CL   LIG    1       -2.822   3.908  -0.021  0.00  0.00    -0.060 Cl
ATOM     28  C   LIG    1        1.149   3.160   0.012  0.00  0.00    -0.030 A 
ENDBRANCH  16  18
ENDBRANCH   7  16
TORSDOF 3
