REMARK  Name = ZINCpk000000nNJq.0
REMARK                            x       y       z     vdW  Elec       q    Type
REMARK                         _______ _______ _______ _____ _____    ______ ____
ROOT
ATOM      1  O   LIG    1       -1.814   1.577   1.578  0.00  0.00    -0.340 OA
ENDROOT
BRANCH   1   2
ATOM      2  C   LIG    1       -0.545   1.879   1.262  0.00  0.00    +0.470 C 
ATOM      3  O   LIG    1        0.138   2.508   2.036  0.00  0.00    -0.480 OA
BRANCH   2   4
ATOM      4  C   LIG    1        0.029   1.432  -0.058  0.00  0.00    +0.300 C 
BRANCH   4   6
ATOM      5  C   LIG    1        0.667  -0.699   1.080  0.00  0.00    +0.030 C 
ATOM      6  C   LIG    1       -0.021  -0.094  -0.146  0.00  0.00    +0.000 C 
ATOM      7  C   LIG    1       -1.479  -0.555  -0.191  0.00  0.00    +0.040 C 
ENDBRANCH   4   6
BRANCH   4   8
ATOM      8  N   LIG    1        1.420   1.882  -0.162  0.00  0.00    -1.100 NA
ATOM      9  H   LIG    1        1.989   1.886   0.623  0.00  0.00    +0.430 HD
BRANCH   8  10
ATOM     10  S   LIG    1        2.021   2.382  -1.622  0.00  0.00    +2.610 S 
ATOM     11  O   LIG    1        1.668   1.340  -2.522  0.00  0.00    -0.950 OA
ATOM     12  O   LIG    1        3.382   2.689  -1.354  0.00  0.00    -0.950 OA
ATOM     13  C   LIG    1        1.090   3.893  -2.001  0.00  0.00    -0.290 C 
ENDBRANCH   8  10
ENDBRANCH   4   8
ENDBRANCH   2   4
ENDBRANCH   1   2
BRANCH   1  14
ATOM     14  C   LIG    1       -2.300   2.040   2.866  0.00  0.00    +0.410 C 
BRANCH  14  15
ATOM     15  C   LIG    1       -3.734   1.611   3.045  0.00  0.00    +0.180 A 
ATOM     16  N   LIG    1       -4.150   0.491   3.582  0.00  0.00    -0.440 NA
ATOM     17  C   LIG    1       -5.500   0.543   3.529  0.00  0.00    +0.220 A 
ATOM     18  N   LIG    1       -5.821   1.680   2.968  0.00  0.00    -0.360 NA
ATOM     19  O   LIG    1       -4.820   2.305   2.690  0.00  0.00    +0.100 OA
BRANCH  17  20
ATOM     20  C   LIG    1       -6.441  -0.496   4.015  0.00  0.00    -0.040 A 
ATOM     21  C   LIG    1       -5.952  -1.668   4.590  0.00  0.00    +0.110 A 
ATOM     22  C   LIG    1       -6.831  -2.628   5.047  0.00  0.00    -0.010 A 
ATOM     23  C   LIG    1       -8.197  -2.435   4.924  0.00  0.00    +0.120 A 
ATOM     24  C   LIG    1       -8.688  -1.274   4.348  0.00  0.00    +0.000 A 
ATOM     25  F   LIG    1       -9.054  -3.381   5.367  0.00  0.00    -0.130 F 
ATOM     26  C   LIG    1       -7.816  -0.306   3.894  0.00  0.00    +0.090 A 
ENDBRANCH  17  20
ENDBRANCH  14  15
ENDBRANCH   1  14
TORSDOF 8
