REMARK  Name = ZINCnE000008JfhK.1
REMARK                            x       y       z     vdW  Elec       q    Type
REMARK                         _______ _______ _______ _____ _____    ______ ____
ROOT
ATOM      1  C   LIG    1        1.540   8.734   0.032  0.00  0.00    +0.170 A 
ATOM      2  C   LIG    1        1.690   8.065  -1.173  0.00  0.00    -0.100 A 
ATOM      3  C   LIG    1        2.015   6.722  -1.180  0.00  0.00    +0.150 A 
ATOM      4  C   LIG    1        2.180   6.043   0.013  0.00  0.00    -0.650 A 
ATOM      5  C   LIG    1        2.032   6.708   1.216  0.00  0.00    +0.160 A 
ATOM      6  C   LIG    1        1.712   8.052   1.228  0.00  0.00    -0.130 A 
ENDROOT
BRANCH   6   7
ATOM      7  C   LIG    1        1.551   8.777   2.540  0.00  0.00    -0.020 C 
ATOM      8  C   LIG    1        0.133   9.343   2.638  0.00  0.00    +0.030 C 
ATOM      9  C   LIG    1        2.564   9.921   2.618  0.00  0.00    +0.030 C 
ATOM     10  C   LIG    1        1.792   7.802   3.694  0.00  0.00    +0.030 C 
ENDBRANCH   6   7
BRANCH   4  11
ATOM     11  S   LIG    1        2.588   4.329   0.000  0.00  0.00    +2.610 S 
ATOM     12  O   LIG    1        3.199   4.071  -1.257  0.00  0.00    -1.030 OA
ATOM     13  O   LIG    1        3.222   4.058   1.243  0.00  0.00    -1.030 OA
BRANCH  11  14
ATOM     14  N   LIG    1        1.163   3.486   0.009  0.00  0.00    -1.090 NA
BRANCH  14  15
ATOM     15  C   LIG    1        1.178   2.089   0.002  0.00  0.00    +0.290 A 
ATOM     16  C   LIG    1        2.387   1.406  -0.013  0.00  0.00    -0.170 A 
ATOM     17  C   LIG    1        2.402   0.025  -0.021  0.00  0.00    +0.060 A 
ATOM     18  C   LIG    1        1.214  -0.681  -0.013  0.00  0.00    -0.140 A 
ATOM     19  C   LIG    1        0.002  -0.004   0.002  0.00  0.00    +0.130 A 
ATOM     20  C   LIG    1       -0.017   1.381   0.010  0.00  0.00    -0.090 A 
BRANCH  19  21
ATOM     21  O   LIG    1       -1.165  -0.700   0.009  0.00  0.00    -0.510 OA
ATOM     22  H   LIG    1       -1.511  -0.896  -0.872  0.00  0.00    +0.380 HD
ENDBRANCH  19  21
ENDBRANCH  14  15
ENDBRANCH  11  14
ENDBRANCH   4  11
BRANCH   1  24
ATOM     23  C   LIG    1        1.065  10.694  -1.227  0.00  0.00    +0.230 C 
ATOM     24  O   LIG    1        1.227  10.057   0.042  0.00  0.00    -0.310 OA
ENDBRANCH   1  24
TORSDOF 6
