REMARK  Name = ZINCqH0000006fuB.0
REMARK                            x       y       z     vdW  Elec       q    Type
REMARK                         _______ _______ _______ _____ _____    ______ ____
ROOT
ATOM      1  N   LIG    1        2.902   0.814  -1.403  0.00  0.00    -0.700 N 
ATOM      2  H   LIG    1        2.346   1.126  -2.133  0.00  0.00    +0.410 HD
ENDROOT
BRANCH   1   3
ATOM      3  C   LIG    1        4.089   0.148  -1.671  0.00  0.00    +0.450 A 
ATOM      4  N   LIG    1        4.442  -0.057  -2.923  0.00  0.00    -0.550 NA
ATOM      5  C   LIG    1        5.581  -0.691  -3.228  0.00  0.00    +0.220 A 
ATOM      6  C   LIG    1        5.955  -0.901  -4.566  0.00  0.00    +0.060 A 
ATOM      7  C   LIG    1        7.117  -1.554  -4.848  0.00  0.00    +0.110 A 
ATOM      8  C   LIG    1        7.945  -2.018  -3.829  0.00  0.00    -0.070 A 
ATOM      9  C   LIG    1        7.614  -1.832  -2.521  0.00  0.00    +0.170 A 
ATOM     10  C   LIG    1        6.425  -1.164  -2.193  0.00  0.00    -0.170 A 
ATOM     11  C   LIG    1        6.049  -0.953  -0.851  0.00  0.00    +0.150 A 
ATOM     12  C   LIG    1        4.881  -0.297  -0.603  0.00  0.00    -0.070 A 
BRANCH   8  13
ATOM     13  N   LIG    1        9.200  -2.723  -4.172  0.00  0.00    +0.030 N 
ATOM     14  O   LIG    1        9.931  -3.132  -3.288  0.00  0.00    -0.170 OA
ATOM     15  O   LIG    1        9.504  -2.893  -5.340  0.00  0.00    -0.160 OA
ENDBRANCH   8  13
ENDBRANCH   1   3
BRANCH   1  16
ATOM     16  C   LIG    1        2.490   1.045  -0.016  0.00  0.00    +0.330 C 
BRANCH  16  20
ATOM     17  C   LIG    1       -1.237   3.137   0.031  0.00  0.00    +0.150 A 
ATOM     18  C   LIG    1       -1.218   1.750   0.017  0.00  0.00    -0.080 A 
ATOM     19  C   LIG    1       -0.013   1.076   0.008  0.00  0.00    +0.080 A 
ATOM     20  C   LIG    1        1.176   1.783   0.000  0.00  0.00    -0.160 A 
ATOM     21  C   LIG    1        1.160   3.165   0.008  0.00  0.00    +0.080 A 
ATOM     22  C   LIG    1       -0.043   3.844   0.024  0.00  0.00    -0.020 A 
BRANCH  17  23
ATOM     23  O   LIG    1       -2.422   3.802   0.045  0.00  0.00    -0.300 OA
BRANCH  23  24
ATOM     24  C   LIG    1       -3.611   3.009   0.052  0.00  0.00    +0.210 C 
BRANCH  24  25
ATOM     25  C   LIG    1       -4.835   3.926   0.068  0.00  0.00    +0.190 C 
BRANCH  25  27
ATOM     26  C   LIG    1       -5.998   5.567  -1.236  0.00  0.00    +0.200 C 
ATOM     27  O   LIG    1       -4.886   4.674  -1.149  0.00  0.00    -0.390 OA
ENDBRANCH  25  27
ENDBRANCH  24  25
ENDBRANCH  23  24
ENDBRANCH  17  23
ENDBRANCH  16  20
ENDBRANCH   1  16
TORSDOF 8
