REMARK  Name = ZINCvU000000076G.0
REMARK                            x       y       z     vdW  Elec       q    Type
REMARK                         _______ _______ _______ _____ _____    ______ ____
ROOT
ATOM      1  C   LIG    1        3.526   0.753  -0.661  0.00  0.00    +0.380 C 
ENDROOT
BRANCH   1   6
ATOM      2  C   LIG    1        1.486   1.909  -0.002  0.00  0.00    +0.180 C 
ATOM      3  C   LIG    1       -0.019   1.542   0.011  0.00  0.00    +0.050 C 
ATOM      4  C   LIG    1        0.002  -0.004   0.002  0.00  0.00    +0.020 C 
ATOM      5  C   LIG    1        1.381  -0.385  -0.569  0.00  0.00    +0.180 C 
ATOM      6  N   LIG    1        2.080   0.878  -0.892  0.00  0.00    -0.490 NA
BRANCH   2  11
ATOM      7  C   LIG    1        2.156   4.714  -2.444  0.00  0.00    +0.090 A 
ATOM      8  C   LIG    1        2.071   5.826  -1.620  0.00  0.00    -0.040 A 
ATOM      9  C   LIG    1        1.798   5.669  -0.275  0.00  0.00    -0.040 A 
ATOM     10  C   LIG    1        1.603   4.400   0.250  0.00  0.00    +0.100 A 
ATOM     11  C   LIG    1        1.693   3.288  -0.573  0.00  0.00    -0.070 A 
ATOM     12  C   LIG    1        1.966   3.444  -1.918  0.00  0.00    +0.060 A 
BRANCH   7  14
ATOM     13  C   LIG    1        2.609   6.203  -4.242  0.00  0.00    +0.230 C 
ATOM     14  O   LIG    1        2.425   4.868  -3.768  0.00  0.00    -0.320 OA
ENDBRANCH   7  14
BRANCH  10  15
ATOM     15  O   LIG    1        1.329   4.247   1.573  0.00  0.00    -0.310 OA
ATOM     16  C   LIG    1        1.252   5.436   2.362  0.00  0.00    +0.240 C 
ENDBRANCH  10  15
ENDBRANCH   2  11
ENDBRANCH   1   6
BRANCH   1  17
ATOM     17  C   LIG    1        3.792   0.660   0.819  0.00  0.00    +0.160 A 
ATOM     18  N   LIG    1        3.841  -0.437   1.533  0.00  0.00    -0.470 NA
ATOM     19  C   LIG    1        4.107  -0.036   2.797  0.00  0.00    +0.210 A 
ATOM     20  N   LIG    1        4.194   1.269   2.778  0.00  0.00    -0.370 NA
ATOM     21  O   LIG    1        4.016   1.682   1.651  0.00  0.00    +0.100 OA
BRANCH  19  22
ATOM     22  C   LIG    1        4.265  -0.912   3.985  0.00  0.00    -0.020 A 
ATOM     23  C   LIG    1        4.146  -2.294   3.855  0.00  0.00    +0.110 A 
ATOM     24  C   LIG    1        4.294  -3.104   4.963  0.00  0.00    +0.030 A 
ATOM     25  C   LIG    1        4.561  -2.546   6.199  0.00  0.00    +0.100 A 
ATOM     26  C   LIG    1        4.681  -1.175   6.334  0.00  0.00    -0.180 A 
ATOM     27  C   LIG    1        4.540  -0.356   5.232  0.00  0.00    +0.110 A 
BRANCH  26  28
ATOM     28  C   LIG    1        4.973  -0.574   7.685  0.00  0.00    +0.510 C 
ATOM     29  F   LIG    1        3.935   0.292   8.044  0.00  0.00    -0.170 F 
ATOM     30  F   LIG    1        6.176   0.138   7.629  0.00  0.00    -0.170 F 
ATOM     31  F   LIG    1        5.079  -1.595   8.636  0.00  0.00    -0.170 F 
ENDBRANCH  26  28
ENDBRANCH  19  22
ENDBRANCH   1  17
TORSDOF 7
