REMARK  Name = ZINCqH0000000q8Y.0
REMARK                            x       y       z     vdW  Elec       q    Type
REMARK                         _______ _______ _______ _____ _____    ______ ____
ROOT
ATOM      1  C   LIG    1       -2.505   1.003   0.020  0.00  0.00    +0.130 A 
ATOM      2  C   LIG    1       -3.702   1.616   0.034  0.00  0.00    -0.110 A 
ATOM      3  S   LIG    1       -4.955   0.376   0.029  0.00  0.00    +0.210 S 
ATOM      4  C   LIG    1       -3.717  -0.876   0.017  0.00  0.00    +0.280 A 
ATOM      5  N   LIG    1       -2.545  -0.322   0.014  0.00  0.00    -0.500 NA
ENDROOT
BRANCH   1   9
ATOM      6  C   LIG    1        1.155   3.167   0.008  0.00  0.00    -0.080 A 
ATOM      7  C   LIG    1        1.172   1.783   0.000  0.00  0.00    +0.020 A 
ATOM      8  C   LIG    1       -0.013   1.076   0.008  0.00  0.00    +0.050 A 
ATOM      9  C   LIG    1       -1.228   1.758   0.017  0.00  0.00    -0.020 A 
ATOM     10  C   LIG    1       -1.240   3.151   0.031  0.00  0.00    +0.030 A 
ATOM     11  C   LIG    1       -0.049   3.849   0.023  0.00  0.00    +0.020 A 
BRANCH   6  12
ATOM     12  C   LIG    1        2.452   3.933  -0.001  0.00  0.00    +0.070 C 
BRANCH  12  13
ATOM     13  C   LIG    1        2.878   4.200  -1.446  0.00  0.00    +0.260 C 
BRANCH  13  16
ATOM     14  C   LIG    1        6.005   6.061  -2.633  0.00  0.00    +0.090 C 
ATOM     15  C   LIG    1        4.708   5.295  -2.625  0.00  0.00    +0.510 C 
ATOM     16  N   LIG    1        4.139   4.946  -1.454  0.00  0.00    -0.730 N 
ATOM     17  H   LIG    1        4.564   5.188  -0.617  0.00  0.00    +0.400 HD
ATOM     18  O   LIG    1        4.176   4.991  -3.672  0.00  0.00    -0.540 OA
ENDBRANCH  13  16
ENDBRANCH  12  13
ENDBRANCH   6  12
ENDBRANCH   1   9
BRANCH   4  19
ATOM     19  N   LIG    1       -3.959  -2.244   0.011  0.00  0.00    -0.620 N 
ATOM     20  H   LIG    1       -3.216  -2.868   0.004  0.00  0.00    +0.430 HD
ATOM     21  C   LIG    1       -5.226  -2.705   0.016  0.00  0.00    +0.510 C 
ATOM     22  O   LIG    1       -6.154  -1.925   0.025  0.00  0.00    -0.500 OA
BRANCH  21  23
ATOM     23  C   LIG    1       -5.488  -4.189   0.010  0.00  0.00    +0.100 C 
BRANCH  23  24
ATOM     24  C   LIG    1       -6.997  -4.440   0.016  0.00  0.00    +0.040 C 
ATOM     25  C   LIG    1       -7.610  -3.996  -1.291  0.00  0.00    -0.040 C 
ATOM     26  C   LIG    1       -8.452  -4.886  -1.742  0.00  0.00    -0.050 C 
ATOM     27  C   LIG    1       -8.540  -6.072  -0.810  0.00  0.00    +0.050 C 
ATOM     28  C   LIG    1       -7.290  -5.956   0.097  0.00  0.00    +0.030 C 
ENDBRANCH  23  24
ENDBRANCH  21  23
ENDBRANCH   4  19
TORSDOF 7
