REMARK  Name = ZINCc70000005a83.0
REMARK                            x       y       z     vdW  Elec       q    Type
REMARK                         _______ _______ _______ _____ _____    ______ ____
ROOT
ATOM      1  N   LIG    1        2.168   1.034   1.121  0.00  0.00    -0.380 N 
ATOM      2  C   LIG    1        2.288  -0.418   0.931  0.00  0.00    +0.310 C 
ATOM      3  H   LIG    1        1.677   1.220   1.983  0.00  0.00    +0.420 HD
ENDROOT
BRANCH   1   4
ATOM      4  C   LIG    1        3.508   1.632   1.183  0.00  0.00    +0.250 C 
BRANCH   4   5
ATOM      5  C   LIG    1        4.239   1.119   2.425  0.00  0.00    +0.020 C 
BRANCH   5   7
ATOM      6  C   LIG    1        6.366   1.229   3.731  0.00  0.00    +0.020 C 
ATOM      7  C   LIG    1        5.635   1.742   2.489  0.00  0.00    +0.020 C 
ENDBRANCH   5   7
ENDBRANCH   4   5
ENDBRANCH   1   4
BRANCH   1   8
ATOM      8  C   LIG    1        1.423   1.615  -0.003  0.00  0.00    +0.240 C 
BRANCH   8   9
ATOM      9  C   LIG    1       -0.013   1.086   0.008  0.00  0.00    +0.130 C 
BRANCH   9  10
ATOM     10  C   LIG    1       -0.742   1.585  -1.213  0.00  0.00    +0.470 C 
ATOM     11  O   LIG    1       -1.686   2.346  -1.090  0.00  0.00    -0.660 OA
ATOM     12  O   LIG    1       -0.387   1.228  -2.323  0.00  0.00    -0.670 OA
ENDBRANCH   9  10
BRANCH   9  13
ATOM     13  O   LIG    1       -0.682   1.547   1.184  0.00  0.00    -0.560 OA
ATOM     14  H   LIG    1       -0.732   2.510   1.256  0.00  0.00    +0.380 HD
ENDBRANCH   9  13
ENDBRANCH   8   9
ENDBRANCH   1   8
TORSDOF 7
