REMARK  Name = ZINCc70000005a83.1
REMARK                            x       y       z     vdW  Elec       q    Type
REMARK                         _______ _______ _______ _____ _____    ______ ____
ROOT
ATOM      1  N   LIG    1        0.130   1.112  -2.543  0.00  0.00    -0.380 N 
ATOM      2  C   LIG    1        0.172  -0.350  -2.676  0.00  0.00    +0.310 C 
ATOM      3  H   LIG    1        1.068   1.466  -2.428  0.00  0.00    +0.420 HD
ENDROOT
BRANCH   1   4
ATOM      4  C   LIG    1       -0.677   1.475  -1.370  0.00  0.00    +0.250 C 
BRANCH   4   5
ATOM      5  C   LIG    1        0.015   0.972  -0.101  0.00  0.00    +0.020 C 
BRANCH   5   7
ATOM      6  C   LIG    1       -0.134   0.847   2.390  0.00  0.00    +0.020 C 
ATOM      7  C   LIG    1       -0.826   1.349   1.121  0.00  0.00    +0.020 C 
ENDBRANCH   5   7
ENDBRANCH   4   5
ENDBRANCH   1   4
BRANCH   1   8
ATOM      8  C   LIG    1       -0.470   1.697  -3.749  0.00  0.00    +0.240 C 
BRANCH   8   9
ATOM      9  C   LIG    1       -0.376   3.222  -3.678  0.00  0.00    +0.120 C 
BRANCH   9  10
ATOM     10  C   LIG    1       -1.008   3.823  -4.907  0.00  0.00    +0.470 C 
ATOM     11  O   LIG    1       -0.324   4.443  -5.703  0.00  0.00    -0.660 OA
ATOM     12  O   LIG    1       -2.203   3.688  -5.106  0.00  0.00    -0.670 OA
ENDBRANCH   9  10
BRANCH   9  13
ATOM     13  O   LIG    1        0.997   3.612  -3.610  0.00  0.00    -0.550 OA
ATOM     14  H   LIG    1        1.525   3.329  -4.369  0.00  0.00    +0.380 HD
ENDBRANCH   9  13
ENDBRANCH   8   9
ENDBRANCH   1   8
TORSDOF 7
