REMARK  Name = ZINCkj000005iH8E.0
REMARK                            x       y       z     vdW  Elec       q    Type
REMARK                         _______ _______ _______ _____ _____    ______ ____
ROOT
ATOM      1  N   LIG    1       -0.803   3.072  -1.457  0.00  0.00    -0.510 N 
ATOM      2  H   LIG    1       -1.255   3.505  -0.666  0.00  0.00    +0.430 HD
ATOM      3  H   LIG    1       -1.321   3.283  -2.297  0.00  0.00    +0.430 HD
ENDROOT
BRANCH   1   4
ATOM      4  C   LIG    1        0.566   3.590  -1.583  0.00  0.00    +0.330 C 
BRANCH   4   8
ATOM      5  C   LIG    1        0.436   7.756  -2.299  0.00  0.00    +0.360 A 
ATOM      6  C   LIG    1        0.497   7.314  -0.984  0.00  0.00    -0.030 A 
ATOM      7  C   LIG    1        0.540   5.954  -0.731  0.00  0.00    +0.140 A 
ATOM      8  C   LIG    1        0.520   5.080  -1.809  0.00  0.00    -0.270 A 
ATOM      9  C   LIG    1        0.465   5.589  -3.091  0.00  0.00    +0.350 A 
ATOM     10  N   LIG    1        0.420   6.891  -3.300  0.00  0.00    -0.530 NA
BRANCH   5  12
ATOM     11  C   LIG    1        0.332   9.477  -3.933  0.00  0.00    +0.280 C 
ATOM     12  O   LIG    1        0.394   9.086  -2.560  0.00  0.00    -0.290 OA
ENDBRANCH   5  12
ENDBRANCH   4   8
ENDBRANCH   1   4
BRANCH   1  13
ATOM     13  C   LIG    1       -0.759   1.617  -1.260  0.00  0.00    +0.190 C 
BRANCH  13  14
ATOM     14  C   LIG    1       -0.083   0.959  -2.465  0.00  0.00    -0.010 C 
ATOM     15  C   LIG    1       -0.884   1.269  -3.734  0.00  0.00    -0.010 C 
ATOM     16  C   LIG    1       -0.245   0.543  -4.921  0.00  0.00    +0.230 C 
ATOM     17  O   LIG    1       -0.205  -0.860  -4.653  0.00  0.00    -0.370 OA
ATOM     18  C   LIG    1        0.569  -1.214  -3.505  0.00  0.00    +0.230 C 
ATOM     19  C   LIG    1       -0.037  -0.558  -2.262  0.00  0.00    +0.030 C 
ENDBRANCH  13  14
BRANCH  13  20
ATOM     20  C   LIG    1        0.035   1.297   0.008  0.00  0.00    +0.070 C 
BRANCH  20  21
ATOM     21  C   LIG    1       -0.696   1.867   1.225  0.00  0.00    +0.170 C 
BRANCH  21  22
ATOM     22  O   LIG    1        0.079   1.627   2.401  0.00  0.00    -0.560 OA
ATOM     23  H   LIG    1       -0.326   1.962   3.213  0.00  0.00    +0.400 HD
ENDBRANCH  21  22
ENDBRANCH  20  21
ENDBRANCH  13  20
ENDBRANCH   1  13
TORSDOF 8
