REMARK  Name = ZINCrH00000No55R.0
REMARK                            x       y       z     vdW  Elec       q    Type
REMARK                         _______ _______ _______ _____ _____    ______ ____
ROOT
ATOM      1  N   LIG    1        1.398   3.455   0.007  0.00  0.00    -0.600 N 
ATOM      2  C   LIG    1        1.377   4.135  -1.156  0.00  0.00    +0.550 C 
ATOM      3  O   LIG    1        1.376   3.533  -2.213  0.00  0.00    -0.530 OA
ENDROOT
BRANCH   2   4
ATOM      4  C   LIG    1        1.357   5.606  -1.148  0.00  0.00    -0.100 C 
ATOM      5  C   LIG    1        1.337   6.277  -2.296  0.00  0.00    +0.090 C 
BRANCH   5   6
ATOM      6  C   LIG    1        1.317   7.784  -2.288  0.00  0.00    -0.050 C 
ATOM      7  C   LIG    1        0.054   8.281  -2.994  0.00  0.00    +0.040 C 
ATOM      8  C   LIG    1        2.552   8.315  -3.018  0.00  0.00    +0.040 C 
ATOM      9  C   LIG    1        1.324   8.286  -0.843  0.00  0.00    +0.030 C 
ENDBRANCH   5   6
ENDBRANCH   2   4
BRANCH   1  10
ATOM     10  C   LIG    1        1.418   1.990  -0.001  0.00  0.00    +0.290 C 
BRANCH  10  11
ATOM     11  C   LIG    1       -0.018   1.461   0.010  0.00  0.00    +0.250 C 
BRANCH  11  13
ATOM     12  C   LIG    1       -1.156  -0.694   0.009  0.00  0.00    +0.550 C 
ATOM     13  N   LIG    1        0.002  -0.004   0.002  0.00  0.00    -0.720 N 
ATOM     14  H   LIG    1        0.849  -0.478  -0.009  0.00  0.00    +0.400 HD
ATOM     15  O   LIG    1       -2.217  -0.100   0.023  0.00  0.00    -0.550 OA
BRANCH  12  17
ATOM     16  C   LIG    1       -2.279  -2.845   0.009  0.00  0.00    +0.080 C 
ATOM     17  C   LIG    1       -1.136  -2.165   0.001  0.00  0.00    -0.100 C 
BRANCH  16  19
ATOM     18  C   LIG    1       -0.809  -4.842  -0.016  0.00  0.00    +0.030 C 
ATOM     19  C   LIG    1       -2.258  -4.352   0.000  0.00  0.00    -0.050 C 
ATOM     20  C   LIG    1       -2.984  -4.865  -1.245  0.00  0.00    +0.040 C 
ATOM     21  C   LIG    1       -2.960  -4.878   1.253  0.00  0.00    +0.040 C 
ENDBRANCH  16  19
ENDBRANCH  12  17
ENDBRANCH  11  13
ENDBRANCH  10  11
ENDBRANCH   1  10
BRANCH   1  22
ATOM     22  C   LIG    1        1.400   4.181   1.280  0.00  0.00    +0.360 C 
BRANCH  22  23
ATOM     23  C   LIG    1        2.821   4.449   1.703  0.00  0.00    +0.100 A 
ATOM     24  C   LIG    1        3.411   5.658   1.388  0.00  0.00    -0.020 A 
ATOM     25  C   LIG    1        4.719   5.895   1.782  0.00  0.00    +0.070 A 
ATOM     26  C   LIG    1        5.388   4.902   2.481  0.00  0.00    -0.030 A 
ATOM     27  C   LIG    1        4.733   3.717   2.760  0.00  0.00    +0.260 A 
ATOM     28  N   LIG    1        3.486   3.529   2.374  0.00  0.00    -0.470 NA
ENDBRANCH  22  23
ENDBRANCH   1  22
TORSDOF 9
