REMARK  Name = ZINCqH0000003Ra3.0
REMARK                            x       y       z     vdW  Elec       q    Type
REMARK                         _______ _______ _______ _____ _____    ______ ____
ROOT
ATOM      1  N   LIG    1        4.907   0.029   0.512  0.00  0.00    -1.110 NA
ATOM      2  H   LIG    1        5.401   0.637  -0.060  0.00  0.00    +0.420 HD
ENDROOT
BRANCH   1   3
ATOM      3  S   LIG    1        5.266  -0.065   2.126  0.00  0.00    +2.610 S 
ATOM      4  O   LIG    1        4.016   0.117   2.775  0.00  0.00    -0.920 OA
ATOM      5  O   LIG    1        6.326   0.864   2.304  0.00  0.00    -0.940 OA
BRANCH   3   6
ATOM      6  C   LIG    1        5.863  -1.763   2.357  0.00  0.00    -0.250 C 
BRANCH   6   7
ATOM      7  C   LIG    1        6.337  -1.939   3.777  0.00  0.00    +0.130 A 
ATOM      8  N   LIG    1        5.618  -2.328   4.784  0.00  0.00    -0.260 NA
ATOM      9  O   LIG    1        6.415  -2.372   5.951  0.00  0.00    -0.080 OA
ATOM     10  C   LIG    1        7.673  -1.995   5.647  0.00  0.00    +0.090 A 
ATOM     11  C   LIG    1        8.837  -1.859   6.394  0.00  0.00    +0.020 A 
ATOM     12  C   LIG    1       10.003  -1.456   5.778  0.00  0.00    +0.100 A 
ATOM     13  C   LIG    1       10.022  -1.171   4.420  0.00  0.00    +0.000 A 
ATOM     14  C   LIG    1        8.887  -1.294   3.669  0.00  0.00    +0.110 A 
ATOM     15  C   LIG    1        7.698  -1.709   4.272  0.00  0.00    -0.200 A 
ENDBRANCH   6   7
ENDBRANCH   3   6
ENDBRANCH   1   3
BRANCH   1  16
ATOM     16  C   LIG    1        3.841  -0.804  -0.051  0.00  0.00    +0.300 C 
BRANCH  16  22
ATOM     17  C   LIG    1        1.338  -0.670  -0.092  0.00  0.00    +0.140 A 
ATOM     18  C   LIG    1        0.160   0.061  -0.139  0.00  0.00    -0.080 A 
ATOM     19  C   LIG    1        0.205   1.440  -0.198  0.00  0.00    +0.050 A 
ATOM     20  C   LIG    1        1.424   2.092  -0.209  0.00  0.00    -0.030 A 
ATOM     21  C   LIG    1        2.600   1.366  -0.162  0.00  0.00    +0.070 A 
ATOM     22  C   LIG    1        2.560  -0.013  -0.103  0.00  0.00    -0.130 A 
BRANCH  17  23
ATOM     23  O   LIG    1        1.295  -2.027  -0.034  0.00  0.00    -0.320 OA
BRANCH  23  25
ATOM     24  C   LIG    1        0.155  -4.157   0.043  0.00  0.00    +0.070 C 
ATOM     25  C   LIG    1        0.002  -2.636  -0.025  0.00  0.00    +0.170 C 
ENDBRANCH  23  25
ENDBRANCH  17  23
ENDBRANCH  16  22
BRANCH  16  26
ATOM     26  C   LIG    1        4.229  -1.240  -1.465  0.00  0.00    +0.030 C 
ATOM     27  C   LIG    1        5.474  -2.128  -1.402  0.00  0.00    +0.020 C 
ENDBRANCH  16  26
ENDBRANCH   1  16
TORSDOF 8
