REMARK  Name = ZINCAx00000009A1.0
REMARK                            x       y       z     vdW  Elec       q    Type
REMARK                         _______ _______ _______ _____ _____    ______ ____
ROOT
ATOM      1  C   LIG    1       -3.939   6.871  -6.359  0.00  0.00    +0.320 A 
ATOM      2  C   LIG    1       -3.816   8.081  -5.706  0.00  0.00    -0.110 A 
ATOM      3  C   LIG    1       -3.062   8.189  -4.542  0.00  0.00    +0.230 A 
ATOM      4  C   LIG    1       -2.416   7.109  -4.018  0.00  0.00    -0.750 A 
ATOM      5  C   LIG    1       -2.516   5.863  -4.650  0.00  0.00    +0.110 A 
ATOM      6  C   LIG    1       -1.874   4.715  -4.149  0.00  0.00    -0.060 A 
ATOM      7  C   LIG    1       -2.019   3.539  -4.821  0.00  0.00    +0.280 A 
ATOM      8  N   LIG    1       -2.745   3.451  -5.927  0.00  0.00    -0.490 NA
ATOM      9  C   LIG    1       -3.372   4.480  -6.450  0.00  0.00    +0.310 A 
ATOM     10  C   LIG    1       -3.286   5.736  -5.835  0.00  0.00    -0.180 A 
ENDROOT
BRANCH   4  11
ATOM     11  S   LIG    1       -1.463   7.279  -2.545  0.00  0.00    +2.690 S 
ATOM     12  O   LIG    1       -0.226   6.623  -2.790  0.00  0.00    -0.950 OA
ATOM     13  O   LIG    1       -1.555   8.645  -2.163  0.00  0.00    -0.950 OA
BRANCH  11  14
ATOM     14  N   LIG    1       -2.228   6.409  -1.363  0.00  0.00    -1.000 NA
ATOM     15  C   LIG    1       -3.334   7.022  -0.650  0.00  0.00    +0.270 C 
ATOM     16  C   LIG    1       -2.800   7.753   0.605  0.00  0.00    +0.230 C 
ATOM     17  O   LIG    1       -2.326   6.825   1.511  0.00  0.00    -0.370 OA
ATOM     18  C   LIG    1       -1.218   6.008   1.159  0.00  0.00    +0.240 C 
ATOM     19  C   LIG    1       -1.730   4.776   0.439  0.00  0.00    +0.250 C 
ATOM     20  C   LIG    1       -1.761   5.040  -1.073  0.00  0.00    +0.300 C 
BRANCH  19  21
ATOM     21  N   LIG    1       -0.845   3.644   0.719  0.00  0.00    -0.380 N 
ATOM     22  C   LIG    1        0.489   3.685   0.883  0.00  0.00    +0.480 A 
ATOM     23  N   LIG    1        0.907   2.467   1.116  0.00  0.00    -0.540 NA
ATOM     24  C   LIG    1       -0.125   1.625   1.109  0.00  0.00    +0.420 A 
ATOM     25  N   LIG    1       -1.219   2.298   0.864  0.00  0.00    -0.310 NA
ENDBRANCH  19  21
ENDBRANCH  11  14
ENDBRANCH   4  11
BRANCH   1  26
ATOM     26  N   LIG    1       -4.701   6.773  -7.519  0.00  0.00    -0.710 N 
ATOM     27  H   LIG    1       -4.784   5.920  -7.974  0.00  0.00    +0.400 HD
BRANCH  26  28
ATOM     28  C   LIG    1       -5.376   7.957  -8.056  0.00  0.00    +0.230 C 
ATOM     29  C   LIG    1       -4.402   8.744  -8.936  0.00  0.00    +0.030 C 
BRANCH  28  30
ATOM     30  C   LIG    1       -6.582   7.523  -8.891  0.00  0.00    +0.140 C 
BRANCH  30  37
ATOM     31  C   LIG    1       -6.808   4.370  -8.158  0.00  0.00    +0.160 C 
ATOM     32  C   LIG    1       -7.702   5.483  -7.675  0.00  0.00    +0.020 A 
ATOM     33  N   LIG    1       -8.722   5.372  -6.874  0.00  0.00    -0.360 NA
ATOM     34  O   LIG    1       -9.248   6.442  -6.671  0.00  0.00    +0.100 OA
ATOM     35  C   LIG    1       -8.622   7.430  -7.326  0.00  0.00    -0.020 A 
ATOM     36  C   LIG    1       -8.988   8.892  -7.316  0.00  0.00    +0.190 C 
ATOM     37  C   LIG    1       -7.596   6.855  -7.999  0.00  0.00    -0.210 A 
ENDBRANCH  30  37
ENDBRANCH  28  30
ENDBRANCH  26  28
ENDBRANCH   1  26
TORSDOF 7
