REMARK  Name = ZINCrH000004mkNy.0
REMARK                            x       y       z     vdW  Elec       q    Type
REMARK                         _______ _______ _______ _____ _____    ______ ____
ROOT
ATOM      1  C   LIG    1       -0.127   2.684   6.255  0.00  0.00    +0.110 A 
ATOM      2  C   LIG    1       -0.774   1.722   5.503  0.00  0.00    -0.030 A 
ATOM      3  C   LIG    1       -1.241   2.016   4.227  0.00  0.00    -0.060 A 
ATOM      4  C   LIG    1       -1.063   3.280   3.711  0.00  0.00    -0.090 A 
ATOM      5  C   LIG    1       -1.557   3.668   2.340  0.00  0.00    +0.360 C 
ATOM      6  N   LIG    1       -1.975   2.469   1.607  0.00  0.00    -1.000 NA
ATOM      7  C   LIG    1       -2.788   1.481   2.335  0.00  0.00    +0.310 C 
ATOM      8  C   LIG    1       -0.411   4.250   4.462  0.00  0.00    -0.030 A 
ATOM      9  C   LIG    1       -1.923   0.910   3.464  0.00  0.00    +0.070 C 
ATOM     10  C   LIG    1        0.059   3.960   5.729  0.00  0.00    +0.100 A 
ENDROOT
BRANCH   6  11
ATOM     11  S   LIG    1       -1.554   2.238   0.022  0.00  0.00    +2.690 S 
ATOM     12  O   LIG    1       -2.517   1.347  -0.523  0.00  0.00    -0.950 OA
ATOM     13  O   LIG    1       -1.297   3.528  -0.517  0.00  0.00    -0.950 OA
BRANCH  11  14
ATOM     14  C   LIG    1       -0.017   1.378   0.010  0.00  0.00    -0.680 A 
ATOM     15  C   LIG    1        1.171   2.086   0.002  0.00  0.00    +0.120 A 
ATOM     16  C   LIG    1        2.377   1.411  -0.015  0.00  0.00    +0.000 A 
ATOM     17  C   LIG    1        2.396   0.029  -0.022  0.00  0.00    -0.010 A 
ATOM     18  C   LIG    1        1.208  -0.679  -0.013  0.00  0.00    -0.010 A 
ATOM     19  C   LIG    1        0.002  -0.004   0.002  0.00  0.00    +0.120 A 
BRANCH  17  20
ATOM     20  C   LIG    1        3.711  -0.707  -0.038  0.00  0.00    -0.040 C 
ATOM     21  C   LIG    1        3.817  -1.591   1.206  0.00  0.00    +0.040 C 
ATOM     22  C   LIG    1        4.860   0.303  -0.045  0.00  0.00    +0.030 C 
ATOM     23  C   LIG    1        3.792  -1.580  -1.292  0.00  0.00    +0.040 C 
ENDBRANCH  17  20
ENDBRANCH  11  14
ENDBRANCH   6  11
BRANCH   1  25
ATOM     24  C   LIG    1        0.099   1.058   7.975  0.00  0.00    +0.240 C 
ATOM     25  O   LIG    1        0.326   2.387   7.503  0.00  0.00    -0.310 OA
ENDBRANCH   1  25
BRANCH  10  26
ATOM     26  O   LIG    1        0.698   4.914   6.457  0.00  0.00    -0.310 OA
ATOM     27  C   LIG    1        0.851   6.199   5.851  0.00  0.00    +0.240 C 
ENDBRANCH  10  26
TORSDOF 5
