REMARK  Name = ZINC9p0000002DeS.0
REMARK                            x       y       z     vdW  Elec       q    Type
REMARK                         _______ _______ _______ _____ _____    ______ ____
ROOT
ATOM      1  C   LIG    1       -0.013   1.086   0.008  0.00  0.00    +0.140 C 
ENDROOT
BRANCH   1   2
ATOM      2  C   LIG    1       -0.742   1.585  -1.213  0.00  0.00    -0.220 A 
ATOM      3  C   LIG    1       -0.500   2.740  -1.833  0.00  0.00    +0.050 A 
ATOM      4  C   LIG    1       -1.295   2.986  -2.940  0.00  0.00    +0.030 A 
ATOM      5  C   LIG    1       -2.189   2.033  -3.212  0.00  0.00    -0.130 A 
ATOM      6 CL   LIG    1       -3.321   2.068  -4.528  0.00  0.00    +0.010 Cl
ATOM      7  S   LIG    1       -2.046   0.736  -2.032  0.00  0.00    +0.170 S 
ENDBRANCH   1   2
BRANCH   1   8
ATOM      8  C   LIG    1       -0.729   1.579   1.267  0.00  0.00    +0.270 C 
BRANCH   8   9
ATOM      9  N   LIG    1       -0.018   1.093   2.457  0.00  0.00    -0.640 N 
ATOM     10  H   LIG    1        0.928   1.442   2.450  0.00  0.00    +0.440 HD
ATOM     11  H   LIG    1       -0.005   0.084   2.451  0.00  0.00    +0.440 HD
ATOM     12  H   LIG    1       -0.491   1.418   3.287  0.00  0.00    +0.440 HD
ENDBRANCH   8   9
ENDBRANCH   1   8
TORSDOF 3
