REMARK  Name = ZINCtV00000L6jJn.0
REMARK                            x       y       z     vdW  Elec       q    Type
REMARK                         _______ _______ _______ _____ _____    ______ ____
ROOT
ATOM      1  C   LIG    1        1.192   2.094   0.002  0.00  0.00    -0.160 A 
ATOM      2  C   LIG    1        2.403   1.397  -0.013  0.00  0.00    +0.130 A 
ATOM      3  C   LIG    1        2.402   0.019  -0.021  0.00  0.00    -0.030 A 
ATOM      4  C   LIG    1        1.206  -0.680  -0.014  0.00  0.00    +0.100 A 
ATOM      5  C   LIG    1        0.002  -0.004   0.002  0.00  0.00    -0.080 A 
ATOM      6  C   LIG    1       -0.017   1.383   0.010  0.00  0.00    +0.200 A 
ENDROOT
BRANCH   1   7
ATOM      7  C   LIG    1        1.185   3.568   0.009  0.00  0.00    +0.510 C 
ATOM      8  O   LIG    1        0.130   4.170   0.022  0.00  0.00    -0.490 OA
BRANCH   7   9
ATOM      9  O   LIG    1        2.349   4.247   0.002  0.00  0.00    -0.340 OA
BRANCH   9  10
ATOM     10  C   LIG    1        2.266   5.697   0.010  0.00  0.00    +0.240 C 
BRANCH  10  12
ATOM     11  O   LIG    1        4.621   5.545  -0.013  0.00  0.00    -0.420 OA
ATOM     12  C   LIG    1        3.655   6.279   0.000  0.00  0.00    +0.400 C 
BRANCH  12  13
ATOM     13  C   LIG    1        3.841   7.738   0.006  0.00  0.00    -0.160 A 
ATOM     14  C   LIG    1        2.730   8.588   0.015  0.00  0.00    +0.080 A 
ATOM     15  C   LIG    1        2.912   9.954   0.025  0.00  0.00    +0.020 A 
ATOM     16  C   LIG    1        4.191  10.486   0.016  0.00  0.00    -0.000 A 
ATOM     17  C   LIG    1        5.296   9.651   0.002  0.00  0.00    +0.020 A 
ATOM     18 CL   LIG    1        4.410  12.209   0.021  0.00  0.00    -0.050 Cl
ATOM     19  C   LIG    1        5.130   8.283  -0.004  0.00  0.00    +0.110 A 
ENDBRANCH  12  13
ENDBRANCH  10  12
ENDBRANCH   9  10
ENDBRANCH   7   9
ENDBRANCH   1   7
BRANCH   6  20
ATOM     20  O   LIG    1       -1.199   2.048   0.019  0.00  0.00    -0.280 OA
BRANCH  20  21
ATOM     21  C   LIG    1       -2.389   1.256   0.020  0.00  0.00    +0.280 C 
BRANCH  21  22
ATOM     22  C   LIG    1       -3.594   2.161   0.031  0.00  0.00    -0.080 A 
ATOM     23  C   LIG    1       -3.427   3.533   0.043  0.00  0.00    +0.090 A 
ATOM     24  C   LIG    1       -4.532   4.364   0.047  0.00  0.00    +0.040 A 
ATOM     25  C   LIG    1       -5.805   3.822   0.050  0.00  0.00    -0.020 A 
ATOM     26  C   LIG    1       -5.972   2.449   0.044  0.00  0.00    +0.050 A 
ATOM     27 CL   LIG    1       -7.193   4.866   0.062  0.00  0.00    -0.050 Cl
ATOM     28  C   LIG    1       -4.867   1.618   0.034  0.00  0.00    -0.020 A 
ATOM     29 CL   LIG    1       -5.075  -0.105   0.026  0.00  0.00    -0.050 Cl
ENDBRANCH  21  22
ENDBRANCH  20  21
ENDBRANCH   6  20
TORSDOF 8
