REMARK  Name = ZINCpk000004ANOY.0
REMARK                            x       y       z     vdW  Elec       q    Type
REMARK                         _______ _______ _______ _____ _____    ______ ____
ROOT
ATOM      1  C   LIG    1       -1.349   3.788  -2.483  0.00  0.00    +0.520 C 
ATOM      2  N   LIG    1       -1.058   5.070  -2.781  0.00  0.00    -0.690 N 
ATOM      3  H   LIG    1       -0.612   5.630  -2.127  0.00  0.00    +0.410 HD
ATOM      4  O   LIG    1       -1.986   3.113  -3.265  0.00  0.00    -0.510 OA
ENDROOT
BRANCH   2   5
ATOM      5  C   LIG    1       -1.400   5.593  -4.035  0.00  0.00    +0.140 A 
ATOM      6  C   LIG    1       -1.127   4.871  -5.189  0.00  0.00    +0.040 A 
ATOM      7  C   LIG    1       -1.466   5.388  -6.426  0.00  0.00    +0.050 A 
ATOM      8  C   LIG    1       -2.078   6.624  -6.522  0.00  0.00    +0.030 A 
ATOM      9  C   LIG    1       -2.354   7.352  -5.377  0.00  0.00    +0.090 A 
ATOM     10  O   LIG    1       -2.957   8.568  -5.457  0.00  0.00    -0.300 OA
ATOM     11  C   LIG    1       -3.830   8.925  -4.382  0.00  0.00    +0.300 C 
ATOM     12  C   LIG    1       -3.163   8.620  -3.065  0.00  0.00    +0.490 C 
ATOM     13  O   LIG    1       -3.402   9.300  -2.089  0.00  0.00    -0.510 OA
ATOM     14  N   LIG    1       -2.299   7.585  -2.976  0.00  0.00    -0.550 N 
ATOM     15  C   LIG    1       -1.669   7.250  -1.697  0.00  0.00    +0.300 C 
ATOM     16  C   LIG    1       -2.019   6.834  -4.128  0.00  0.00    +0.080 A 
ENDBRANCH   2   5
BRANCH   1  21
ATOM     17  C   LIG    1       -1.959   1.429   2.373  0.00  0.00    +0.550 C 
ATOM     18  N   LIG    1       -1.280   1.964   1.339  0.00  0.00    -0.610 N 
ATOM     19  C   LIG    1       -0.837   1.123   0.219  0.00  0.00    +0.280 C 
ATOM     20  C   LIG    1       -1.342   1.735  -1.092  0.00  0.00    +0.060 C 
ATOM     21  C   LIG    1       -0.882   3.192  -1.180  0.00  0.00    +0.000 C 
ATOM     22  C   LIG    1       -1.476   3.988  -0.015  0.00  0.00    +0.030 C 
ATOM     23  C   LIG    1       -0.972   3.401   1.308  0.00  0.00    +0.290 C 
ATOM     24  O   LIG    1       -2.289   0.260   2.343  0.00  0.00    -0.540 OA
BRANCH  17  26
ATOM     25  C   LIG    1       -2.884   1.711   4.599  0.00  0.00    +0.150 C 
ATOM     26  C   LIG    1       -2.299   2.260   3.538  0.00  0.00    -0.100 C 
ENDBRANCH  17  26
ENDBRANCH   1  21
TORSDOF 3
