REMARK  Name = ZINCrg000000q5vQ.0
REMARK                            x       y       z     vdW  Elec       q    Type
REMARK                         _______ _______ _______ _____ _____    ______ ____
ROOT
ATOM      1  C   LIG    1       -4.583   3.619  -1.144  0.00  0.00    +0.520 C 
ATOM      2  N   LIG    1       -3.403   2.968  -1.154  0.00  0.00    -0.620 N 
ATOM      3  C   LIG    1       -3.357   1.502  -1.052  0.00  0.00    +0.290 C 
ATOM      4  C   LIG    1       -2.458   1.121   0.130  0.00  0.00    +0.300 C 
ATOM      5  N   LIG    1       -1.194   1.863   0.018  0.00  0.00    -0.630 N 
ATOM      6  C   LIG    1       -1.240   3.329  -0.078  0.00  0.00    +0.270 C 
ATOM      7  C   LIG    1       -0.014   1.212   0.009  0.00  0.00    +0.710 C 
ATOM      8  N   LIG    1        1.140   1.908   0.005  0.00  0.00    -0.740 N 
ATOM      9  H   LIG    1        1.122   2.875  -0.059  0.00  0.00    +0.400 HD
ATOM     10  O   LIG    1        0.009  -0.004  -0.002  0.00  0.00    -0.580 OA
ATOM     11  C   LIG    1       -2.139   3.710  -1.266  0.00  0.00    +0.270 C 
ATOM     12  O   LIG    1       -5.619   2.996  -1.050  0.00  0.00    -0.510 OA
ENDROOT
BRANCH   1  13
ATOM     13  C   LIG    1       -4.614   5.122  -1.249  0.00  0.00    +0.200 C 
BRANCH  13  15
ATOM     14  C   LIG    1       -6.112   6.992  -1.310  0.00  0.00    +0.220 C 
ATOM     15  O   LIG    1       -5.970   5.574  -1.216  0.00  0.00    -0.370 OA
ENDBRANCH  13  15
ENDBRANCH   1  13
BRANCH   8  16
ATOM     16  C   LIG    1        2.421   1.203   0.100  0.00  0.00    +0.350 C 
BRANCH  16  17
ATOM     17  C   LIG    1        3.547   2.203   0.075  0.00  0.00    -0.080 A 
ATOM     18  C   LIG    1        4.019   2.740   1.259  0.00  0.00    +0.060 A 
ATOM     19  C   LIG    1        5.053   3.657   1.241  0.00  0.00    +0.060 A 
ATOM     20  C   LIG    1        5.618   4.039   0.034  0.00  0.00    +0.100 A 
ATOM     21  C   LIG    1        5.143   3.499  -1.156  0.00  0.00    +0.100 A 
ATOM     22  F   LIG    1        5.691   3.868  -2.334  0.00  0.00    -0.120 F 
ATOM     23  C   LIG    1        4.112   2.577  -1.130  0.00  0.00    +0.030 A 
BRANCH  20  24
ATOM     24  N   LIG    1        6.668   4.970   0.013  0.00  0.00    -0.420 N 
ATOM     25  C   LIG    1        7.864   4.835  -0.643  0.00  0.00    +0.140 A 
ATOM     26  C   LIG    1        8.572   5.954  -0.398  0.00  0.00    +0.160 A 
ATOM     27  N   LIG    1        7.833   6.754   0.386  0.00  0.00    -0.480 NA
ATOM     28  C   LIG    1        6.688   6.178   0.634  0.00  0.00    +0.400 A 
ENDBRANCH  20  24
ENDBRANCH  16  17
ENDBRANCH   8  16
TORSDOF 5
