REMARK  Name = ZINCpk00000RogKL.0
REMARK                            x       y       z     vdW  Elec       q    Type
REMARK                         _______ _______ _______ _____ _____    ______ ____
ROOT
ATOM      1  N   LIG    1       -0.038   2.509   4.720  0.00  0.00    -0.490 N 
ATOM      2  C   LIG    1        1.045   3.475   4.519  0.00  0.00    +0.260 C 
ATOM      3  C   LIG    1        2.016   3.422   5.703  0.00  0.00    -0.300 C 
ATOM      4  S   LIG    1        1.123   3.908   7.210  0.00  0.00    +2.410 S 
ATOM      5  C   LIG    1       -0.309   2.790   7.142  0.00  0.00    -0.290 C 
ATOM      6  O   LIG    1        0.668   5.246   7.059  0.00  0.00    -0.930 OA
ATOM      7  O   LIG    1        1.915   3.566   8.339  0.00  0.00    -0.930 OA
ATOM      8  C   LIG    1       -0.973   2.926   5.768  0.00  0.00    +0.280 C 
ENDROOT
BRANCH   1  12
ATOM      9  C   LIG    1       -0.013   1.086   0.008  0.00  0.00    +0.140 C 
ATOM     10  C   LIG    1       -0.718   1.572   1.248  0.00  0.00    +0.190 A 
ATOM     11  C   LIG    1       -0.008   1.808   2.408  0.00  0.00    -0.100 A 
ATOM     12  C   LIG    1       -0.705   2.258   3.532  0.00  0.00    +0.360 A 
ATOM     13  N   LIG    1       -2.019   2.441   3.443  0.00  0.00    -0.520 NA
ATOM     14  C   LIG    1       -2.657   2.202   2.315  0.00  0.00    +0.350 A 
ATOM     15  N   LIG    1       -2.027   1.783   1.236  0.00  0.00    -0.530 NA
BRANCH  14  16
ATOM     16  C   LIG    1       -4.146   2.422   2.254  0.00  0.00    +0.160 C 
BRANCH  16  17
ATOM     17  C   LIG    1       -4.433   3.862   1.823  0.00  0.00    -0.040 C 
ATOM     18  C   LIG    1       -5.153   4.769   2.822  0.00  0.00    +0.010 C 
ATOM     19  C   LIG    1       -5.893   4.252   1.587  0.00  0.00    +0.030 C 
ENDBRANCH  16  17
ENDBRANCH  14  16
ENDBRANCH   1  12
BRANCH   8  20
ATOM     20  C   LIG    1       -2.202   2.056   5.718  0.00  0.00    -0.180 A 
ATOM     21  C   LIG    1       -3.478   2.470   5.895  0.00  0.00    +0.240 A 
ATOM     22  N   LIG    1       -4.281   1.393   5.770  0.00  0.00    -0.370 N 
ATOM     23  N   LIG    1       -3.471   0.278   5.517  0.00  0.00    -0.290 NA
ATOM     24  C   LIG    1       -5.742   1.389   5.886  0.00  0.00    +0.350 C 
ATOM     25  C   LIG    1       -2.225   0.677   5.486  0.00  0.00    +0.230 A 
ENDBRANCH   8  20
TORSDOF 4
