REMARK  Name = ZINCrH000004qh5I.0
REMARK                            x       y       z     vdW  Elec       q    Type
REMARK                         _______ _______ _______ _____ _____    ______ ____
ROOT
ATOM      1  C   LIG    1        3.676   2.075   0.041  0.00  0.00    +0.610 C 
ATOM      2  N   LIG    1        4.813   1.356   0.112  0.00  0.00    -0.640 N 
ATOM      3  C   LIG    1        5.160  -0.070   0.210  0.00  0.00    +0.280 C 
ATOM      4  C   LIG    1        6.456   0.346   0.914  0.00  0.00    +0.160 C 
ATOM      5  C   LIG    1        6.254   1.651   0.131  0.00  0.00    +0.320 C 
ATOM      6  O   LIG    1        3.727   3.283  -0.084  0.00  0.00    -0.520 OA
ENDROOT
BRANCH   1  15
ATOM      7  C   LIG    1        1.384  -3.215   0.092  0.00  0.00    +0.120 C 
ATOM      8  C   LIG    1        0.543  -1.967   0.171  0.00  0.00    -0.160 A 
ATOM      9  C   LIG    1       -0.794  -1.908   0.265  0.00  0.00    +0.240 A 
ATOM     10  N   LIG    1       -1.202  -0.602   0.315  0.00  0.00    -0.580 N 
ATOM     11  H   LIG    1       -2.124  -0.310   0.380  0.00  0.00    +0.420 HD
ATOM     12  C   LIG    1       -0.116   0.234   0.259  0.00  0.00    +0.310 A 
ATOM     13  N   LIG    1        0.011   1.556   0.273  0.00  0.00    -0.500 NA
ATOM     14  C   LIG    1        1.185   2.141   0.206  0.00  0.00    +0.380 A 
ATOM     15  C   LIG    1        2.367   1.396   0.116  0.00  0.00    -0.220 A 
ATOM     16  C   LIG    1        2.291   0.001   0.098  0.00  0.00    +0.150 A 
ATOM     17  C   LIG    1        1.029  -0.585   0.170  0.00  0.00    -0.160 A 
ENDBRANCH   1  15
BRANCH   4  18
ATOM     18  O   LIG    1        7.610  -0.399   0.521  0.00  0.00    -0.290 OA
BRANCH  18  19
ATOM     19  C   LIG    1        8.108  -1.285   1.423  0.00  0.00    +0.180 A 
ATOM     20  C   LIG    1        7.536  -1.391   2.682  0.00  0.00    -0.070 A 
ATOM     21  C   LIG    1        8.041  -2.297   3.595  0.00  0.00    +0.100 A 
ATOM     22  C   LIG    1        9.124  -3.088   3.259  0.00  0.00    -0.020 A 
ATOM     23  C   LIG    1        9.699  -2.981   2.006  0.00  0.00    +0.120 A 
ATOM     24  C   LIG    1        9.194  -2.081   1.088  0.00  0.00    -0.220 A 
BRANCH  24  25
ATOM     25  C   LIG    1        9.823  -1.964  -0.277  0.00  0.00    +0.520 C 
ATOM     26  F   LIG    1       10.290  -0.659  -0.465  0.00  0.00    -0.170 F 
ATOM     27  F   LIG    1        8.870  -2.263  -1.256  0.00  0.00    -0.170 F 
ATOM     28  F   LIG    1       10.892  -2.861  -0.377  0.00  0.00    -0.180 F 
ENDBRANCH  24  25
ENDBRANCH  18  19
ENDBRANCH   4  18
TORSDOF 4
