REMARK  Name = ZINCvU0000000BVT.0
REMARK                            x       y       z     vdW  Elec       q    Type
REMARK                         _______ _______ _______ _____ _____    ______ ____
ROOT
ATOM      1  C   LIG    1        3.147   0.012  -0.029  0.00  0.00    +0.120 C 
ENDROOT
BRANCH   1   2
ATOM      2  C   LIG    1        2.611   1.420  -0.010  0.00  0.00    -0.160 A 
ATOM      3  C   LIG    1        3.335   2.550  -0.002  0.00  0.00    +0.230 A 
ATOM      4  N   LIG    1        2.503   3.637   0.016  0.00  0.00    -0.590 N 
ATOM      5  H   LIG    1        2.795   4.562   0.024  0.00  0.00    +0.420 HD
ATOM      6  C   LIG    1        1.191   3.222   0.020  0.00  0.00    +0.100 A 
ATOM      7  C   LIG    1       -0.026   3.895   0.036  0.00  0.00    -0.010 A 
ATOM      8  C   LIG    1       -1.204   3.179   0.037  0.00  0.00    +0.020 A 
ATOM      9  C   LIG    1       -1.189   1.792   0.016  0.00  0.00    -0.020 A 
ATOM     10  C   LIG    1       -0.005   1.110   0.005  0.00  0.00    +0.050 A 
ATOM     11  C   LIG    1        1.200   1.815   0.004  0.00  0.00    -0.100 A 
ENDBRANCH   1   2
BRANCH   1  15
ATOM     12  C   LIG    1        5.513  -0.563  -3.542  0.00  0.00    +0.220 A 
ATOM     13  C   LIG    1        4.391  -1.351  -3.322  0.00  0.00    -0.070 A 
ATOM     14  C   LIG    1        3.629  -1.163  -2.186  0.00  0.00    +0.060 A 
ATOM     15  C   LIG    1        3.981  -0.191  -1.268  0.00  0.00    -0.130 A 
ATOM     16  C   LIG    1        5.095   0.600  -1.487  0.00  0.00    +0.060 A 
ATOM     17  C   LIG    1        5.864   0.413  -2.618  0.00  0.00    -0.080 A 
BRANCH  12  19
ATOM     18  C   LIG    1        5.988  -1.859  -5.601  0.00  0.00    +0.280 C 
ATOM     19  N   LIG    1        6.286  -0.750  -4.691  0.00  0.00    -0.640 N 
ATOM     20  C   LIG    1        7.394   0.162  -4.985  0.00  0.00    +0.280 C 
ENDBRANCH  12  19
ENDBRANCH   1  15
BRANCH   1  21
ATOM     21  C   LIG    1        4.011  -0.222   1.211  0.00  0.00    +0.280 C 
BRANCH  21  22
ATOM     22  N   LIG    1        3.175  -0.142   2.411  0.00  0.00    -0.720 N 
ATOM     23  H   LIG    1        2.225   0.036   2.329  0.00  0.00    +0.400 HD
ATOM     24  C   LIG    1        3.725  -0.318   3.629  0.00  0.00    +0.530 C 
ATOM     25  O   LIG    1        4.913  -0.541   3.732  0.00  0.00    -0.520 OA
BRANCH  24  26
ATOM     26  C   LIG    1        2.864  -0.236   4.863  0.00  0.00    +0.090 C 
BRANCH  26  27
ATOM     27  S   LIG    1        3.889  -0.513   6.334  0.00  0.00    -0.030 S 
BRANCH  27  28
ATOM     28  C   LIG    1        2.730  -0.382   7.655  0.00  0.00    -0.100 A 
ATOM     29  C   LIG    1        1.393  -0.116   7.385  0.00  0.00    -0.020 A 
ATOM     30  C   LIG    1        0.487  -0.019   8.422  0.00  0.00    +0.030 A 
ATOM     31  C   LIG    1        0.910  -0.177   9.729  0.00  0.00    +0.000 A 
ATOM     32  C   LIG    1        2.241  -0.437  10.002  0.00  0.00    +0.030 A 
ATOM     33  C   LIG    1        3.152  -0.540   8.970  0.00  0.00    +0.030 A 
ENDBRANCH  27  28
ENDBRANCH  26  27
ENDBRANCH  24  26
ENDBRANCH  21  22
ENDBRANCH   1  21
TORSDOF 8
