REMARK  Name = ZINCnE00000hdbnQ.0
REMARK                            x       y       z     vdW  Elec       q    Type
REMARK                         _______ _______ _______ _____ _____    ______ ____
ROOT
ATOM      1  C   LIG    1        0.002  -0.004   0.002  0.00  0.00    +0.330 C 
ENDROOT
BRANCH   1   2
ATOM      2  C   LIG    1       -1.412  -0.526   0.013  0.00  0.00    -0.010 A 
ATOM      3  N   LIG    1       -2.129  -0.775  -1.035  0.00  0.00    -0.240 NA
ATOM      4  N   LIG    1       -3.300  -1.214  -0.858  0.00  0.00    -0.250 NA
ATOM      5  C   LIG    1       -3.679  -1.365   0.383  0.00  0.00    +0.050 A 
ATOM      6  S   LIG    1       -2.333  -0.878   1.413  0.00  0.00    +0.170 S 
BRANCH   5   7
ATOM      7  C   LIG    1       -4.997  -1.856   0.841  0.00  0.00    -0.030 A 
ATOM      8  C   LIG    1       -5.265  -1.974   2.205  0.00  0.00    +0.040 A 
ATOM      9  C   LIG    1       -6.498  -2.429   2.625  0.00  0.00    +0.010 A 
ATOM     10  C   LIG    1       -7.464  -2.776   1.698  0.00  0.00    +0.030 A 
ATOM     11  C   LIG    1       -7.202  -2.667   0.344  0.00  0.00    +0.010 A 
ATOM     12  C   LIG    1       -5.975  -2.209  -0.090  0.00  0.00    +0.070 A 
ENDBRANCH   5   7
ENDBRANCH   1   2
BRANCH   1  13
ATOM     13  O   LIG    1       -0.017   1.425   0.010  0.00  0.00    -0.310 OA
BRANCH  13  17
ATOM     14  C   LIG    1        3.633   3.348  -0.015  0.00  0.00    -0.050 A 
ATOM     15  C   LIG    1        2.464   4.086   0.000  0.00  0.00    +0.040 A 
ATOM     16  C   LIG    1        1.240   3.444   0.009  0.00  0.00    -0.020 A 
ATOM     17  C   LIG    1        1.185   2.058   0.002  0.00  0.00    +0.100 A 
ATOM     18  C   LIG    1        2.359   1.320  -0.008  0.00  0.00    -0.080 A 
ATOM     19  C   LIG    1        3.580   1.966  -0.022  0.00  0.00    +0.040 A 
BRANCH  14  20
ATOM     20  C   LIG    1        4.966   4.050  -0.024  0.00  0.00    -0.020 C 
BRANCH  20  22
ATOM     21  O   LIG    1        4.732   3.902   2.325  0.00  0.00    -0.690 OA
ATOM     22  C   LIG    1        5.424   4.276   1.394  0.00  0.00    +0.500 C 
ATOM     23  O   LIG    1        6.487   4.834   1.610  0.00  0.00    -0.700 OA
ENDBRANCH  20  22
ENDBRANCH  14  20
ENDBRANCH  13  17
ENDBRANCH   1  13
TORSDOF 6
