REMARK  Name = ZINCvU0000000DY1.0
REMARK                            x       y       z     vdW  Elec       q    Type
REMARK                         _______ _______ _______ _____ _____    ______ ____
ROOT
ATOM      1  N   LIG    1       -2.461   3.823   0.046  0.00  0.00    -0.400 N 
ATOM      2  C   LIG    1       -2.950   4.618   1.044  0.00  0.00    +0.170 A 
ATOM      3  N   LIG    1       -4.123   5.063   0.648  0.00  0.00    -0.280 NA
ATOM      4  N   LIG    1       -4.402   4.597  -0.516  0.00  0.00    -0.250 NA
ATOM      5  C   LIG    1       -3.423   3.830  -0.940  0.00  0.00    +0.230 A 
ENDROOT
BRANCH   1   9
ATOM      6  C   LIG    1        1.179   1.786   0.000  0.00  0.00    +0.160 A 
ATOM      7  C   LIG    1       -0.013   1.076   0.008  0.00  0.00    +0.010 A 
ATOM      8  C   LIG    1       -1.218   1.750   0.017  0.00  0.00    +0.090 A 
ATOM      9  C   LIG    1       -1.236   3.138   0.031  0.00  0.00    +0.050 A 
ATOM     10  C   LIG    1       -0.043   3.848   0.023  0.00  0.00    +0.090 A 
ATOM     11  C   LIG    1        1.161   3.173   0.008  0.00  0.00    -0.060 A 
BRANCH   6  12
ATOM     12  O   LIG    1        2.366   1.122  -0.014  0.00  0.00    -0.310 OA
BRANCH  12  14
ATOM     13  C   LIG    1        4.779   1.000  -0.037  0.00  0.00    +0.070 C 
ATOM     14  C   LIG    1        3.554   1.916  -0.021  0.00  0.00    +0.190 C 
ENDBRANCH  12  14
ENDBRANCH   6  12
ENDBRANCH   1   9
BRANCH   5  15
ATOM     15  C   LIG    1       -3.366   3.111  -2.229  0.00  0.00    +0.030 A 
ATOM     16  C   LIG    1       -2.159   2.587  -2.708  0.00  0.00    -0.020 A 
ATOM     17  C   LIG    1       -2.152   1.919  -3.913  0.00  0.00    +0.270 A 
ATOM     18  N   LIG    1       -3.260   1.779  -4.617  0.00  0.00    -0.470 NA
ATOM     19  C   LIG    1       -4.417   2.262  -4.206  0.00  0.00    +0.280 A 
ATOM     20  C   LIG    1       -4.516   2.940  -3.009  0.00  0.00    +0.020 A 
ENDBRANCH   5  15
BRANCH   2  21
ATOM     21  S   LIG    1       -2.156   4.982   2.575  0.00  0.00    +0.040 S 
BRANCH  21  22
ATOM     22  C   LIG    1       -3.399   6.064   3.324  0.00  0.00    +0.100 C 
BRANCH  22  23
ATOM     23  C   LIG    1       -2.915   6.519   4.702  0.00  0.00    +0.220 C 
BRANCH  23  24
ATOM     24  O   LIG    1       -3.896   7.373   5.294  0.00  0.00    -0.310 OA
BRANCH  24  25
ATOM     25  C   LIG    1       -3.619   7.868   6.529  0.00  0.00    +0.120 A 
ATOM     26  C   LIG    1       -2.430   7.534   7.161  0.00  0.00    -0.070 A 
ATOM     27  C   LIG    1       -2.148   8.043   8.413  0.00  0.00    +0.050 A 
ATOM     28  C   LIG    1       -3.055   8.876   9.043  0.00  0.00    -0.120 A 
ATOM     29  C   LIG    1       -4.244   9.205   8.418  0.00  0.00    +0.050 A 
ATOM     30  C   LIG    1       -2.748   9.425  10.412  0.00  0.00    +0.100 C 
ATOM     31  C   LIG    1       -4.528   8.703   7.162  0.00  0.00    -0.010 A 
ENDBRANCH  24  25
ENDBRANCH  23  24
ENDBRANCH  22  23
ENDBRANCH  21  22
ENDBRANCH   2  21
TORSDOF 9
