REMARK  Name = ZINCqH0000000scW.0
REMARK                            x       y       z     vdW  Elec       q    Type
REMARK                         _______ _______ _______ _____ _____    ______ ____
ROOT
ATOM      1  C   LIG    1        2.216  -4.323  -0.040  0.00  0.00    +0.290 C 
ENDROOT
BRANCH   1   2
ATOM      2  C   LIG    1        3.614  -4.872  -0.158  0.00  0.00    +0.510 C 
ATOM      3  N   LIG    1        3.818  -6.204  -0.139  0.00  0.00    -0.720 N 
ATOM      4  H   LIG    1        3.065  -6.809  -0.051  0.00  0.00    +0.400 HD
ATOM      5  O   LIG    1        4.556  -4.116  -0.268  0.00  0.00    -0.530 OA
BRANCH   3   6
ATOM      6  C   LIG    1        5.178  -6.738  -0.253  0.00  0.00    +0.290 C 
BRANCH   6   7
ATOM      7  C   LIG    1        5.236  -8.103   0.383  0.00  0.00    -0.090 A 
ATOM      8  C   LIG    1        4.187  -8.988   0.218  0.00  0.00    +0.010 A 
ATOM      9  C   LIG    1        4.243 -10.242   0.798  0.00  0.00    +0.000 A 
ATOM     10  C   LIG    1        5.343 -10.607   1.551  0.00  0.00    +0.000 A 
ATOM     11  C   LIG    1        6.390  -9.720   1.720  0.00  0.00    +0.000 A 
ATOM     12  C   LIG    1        6.336  -8.468   1.137  0.00  0.00    +0.010 A 
ENDBRANCH   6   7
BRANCH   6  13
ATOM     13  C   LIG    1        5.561  -6.848  -1.730  0.00  0.00    -0.020 C 
ATOM     14  C   LIG    1        4.583  -7.785  -2.443  0.00  0.00    +0.020 C 
ATOM     15  C   LIG    1        6.981  -7.406  -1.849  0.00  0.00    +0.030 C 
ENDBRANCH   6  13
ENDBRANCH   3   6
ENDBRANCH   1   2
BRANCH   1  16
ATOM     16  N   LIG    1        2.261  -2.859  -0.086  0.00  0.00    -0.730 N 
ATOM     17  H   LIG    1        3.112  -2.403  -0.179  0.00  0.00    +0.410 HD
BRANCH  16  20
ATOM     18  C   LIG    1       -0.056  -0.003   0.053  0.00  0.00    +0.170 A 
ATOM     19  C   LIG    1        1.119  -0.733  -0.042  0.00  0.00    -0.030 A 
ATOM     20  C   LIG    1        1.078  -2.120   0.005  0.00  0.00    +0.230 A 
ATOM     21  C   LIG    1       -0.141  -2.773   0.139  0.00  0.00    -0.060 A 
ATOM     22  C   LIG    1       -1.312  -2.044   0.230  0.00  0.00    +0.060 A 
ATOM     23  C   LIG    1       -1.273  -0.662   0.187  0.00  0.00    +0.000 A 
ATOM     24  F   LIG    1       -2.419   0.048   0.275  0.00  0.00    -0.140 F 
BRANCH  18  27
ATOM     25  C   LIG    1        1.115   3.525  -0.542  0.00  0.00    +0.110 C 
ATOM     26  C   LIG    1        1.007   2.023  -0.602  0.00  0.00    +0.510 C 
ATOM     27  N   LIG    1       -0.017   1.396   0.010  0.00  0.00    -0.670 N 
ATOM     28  H   LIG    1       -0.729   1.914   0.416  0.00  0.00    +0.420 HD
ATOM     29  O   LIG    1        1.842   1.379  -1.201  0.00  0.00    -0.520 OA
ENDBRANCH  18  27
ENDBRANCH  16  20
ENDBRANCH   1  16
TORSDOF 7
