REMARK  Name = ZINCqH0000002XYM.0
REMARK                            x       y       z     vdW  Elec       q    Type
REMARK                         _______ _______ _______ _____ _____    ______ ____
ROOT
ATOM      1  C   LIG    1       -0.421   0.863   0.515  0.00  0.00    +0.350 C 
ENDROOT
BRANCH   1   2
ATOM      2  C   LIG    1        0.656   0.979   1.563  0.00  0.00    -0.100 A 
ATOM      3  C   LIG    1        1.794   1.718   1.304  0.00  0.00    +0.020 A 
ATOM      4  C   LIG    1        2.780   1.829   2.267  0.00  0.00    +0.000 A 
ATOM      5  C   LIG    1        2.632   1.191   3.484  0.00  0.00    -0.080 A 
ATOM      6  C   LIG    1        1.496   0.448   3.741  0.00  0.00    +0.000 A 
ATOM      7  C   LIG    1        3.709   1.308   4.532  0.00  0.00    +0.090 C 
ATOM      8  C   LIG    1        0.508   0.341   2.780  0.00  0.00    +0.020 A 
ENDBRANCH   1   2
BRANCH   1   9
ATOM      9  C   LIG    1       -1.768   0.777   1.187  0.00  0.00    -0.150 A 
ATOM     10  C   LIG    1       -2.579  -0.331   0.996  0.00  0.00    +0.080 A 
ATOM     11  C   LIG    1       -3.809  -0.366   1.635  0.00  0.00    -0.030 A 
ATOM     12  C   LIG    1       -4.184   0.697   2.433  0.00  0.00    +0.260 A 
ATOM     13  N   LIG    1       -3.387   1.736   2.591  0.00  0.00    -0.490 NA
ATOM     14  C   LIG    1       -2.208   1.801   2.005  0.00  0.00    +0.280 A 
ENDBRANCH   1   9
BRANCH   1  15
ATOM     15  N   LIG    1       -0.384   2.039  -0.356  0.00  0.00    -0.580 N 
ATOM     16  C   LIG    1       -0.310   1.885  -1.693  0.00  0.00    +0.580 C 
ATOM     17  O   LIG    1       -0.269   0.771  -2.175  0.00  0.00    -0.520 OA
BRANCH  16  18
ATOM     18  C   LIG    1       -0.279   3.075  -2.575  0.00  0.00    +0.010 A 
ATOM     19  C   LIG    1       -0.069   2.925  -3.945  0.00  0.00    +0.300 A 
ATOM     20  N   LIG    1       -0.048   3.989  -4.729  0.00  0.00    -0.440 NA
ATOM     21  C   LIG    1       -0.213   5.194  -4.213  0.00  0.00    +0.110 A 
ATOM     22  C   LIG    1       -0.416   5.347  -2.849  0.00  0.00    +0.220 A 
ATOM     23  C   LIG    1       -0.182   6.405  -5.109  0.00  0.00    +0.160 C 
ATOM     24  N   LIG    1       -0.445   4.291  -2.061  0.00  0.00    -0.390 NA
ENDBRANCH  16  18
BRANCH  15  26
ATOM     25  C   LIG    1       -1.855   3.927   0.148  0.00  0.00    +0.020 C 
ATOM     26  C   LIG    1       -0.427   3.383   0.225  0.00  0.00    +0.290 C 
ENDBRANCH  15  26
ENDBRANCH   1  15
TORSDOF 5
