REMARK  Name = ZINCvU0000000GSR.0
REMARK                            x       y       z     vdW  Elec       q    Type
REMARK                         _______ _______ _______ _____ _____    ______ ____
ROOT
ATOM      1  O   LIG    1        7.412   4.854  -0.622  0.00  0.00    -0.510 OA
ATOM      2  C   LIG    1        6.243   5.121  -0.421  0.00  0.00    +0.570 C 
ATOM      3  N   LIG    1        5.351   4.131  -0.216  0.00  0.00    -0.680 N 
ATOM      4  H   LIG    1        4.408   4.338  -0.132  0.00  0.00    +0.400 HD
ENDROOT
BRANCH   2   5
ATOM      5  C   LIG    1        5.800   6.529  -0.402  0.00  0.00    -0.180 A 
ATOM      6  C   LIG    1        4.456   6.837  -0.177  0.00  0.00    +0.080 A 
ATOM      7  C   LIG    1        4.048   8.152  -0.153  0.00  0.00    -0.080 A 
ATOM      8  C   LIG    1        4.968   9.171  -0.365  0.00  0.00    +0.170 A 
ATOM      9  C   LIG    1        6.306   8.868  -0.596  0.00  0.00    -0.020 A 
ATOM     10  C   LIG    1        6.723   7.556  -0.615  0.00  0.00    +0.140 A 
BRANCH   8  11
ATOM     11  O   LIG    1        4.561  10.466  -0.347  0.00  0.00    -0.300 OA
BRANCH  11  12
ATOM     12  C   LIG    1        3.174  10.706  -0.105  0.00  0.00    +0.200 C 
BRANCH  12  13
ATOM     13  C   LIG    1        2.906  12.212  -0.122  0.00  0.00    +0.170 C 
ATOM     14  C   LIG    1        1.435  12.488   0.258  0.00  0.00    +0.020 C 
ATOM     15  C   LIG    1        1.060  13.649  -0.705  0.00  0.00    +0.010 C 
ATOM     16  C   LIG    1        1.895  13.277  -1.956  0.00  0.00    +0.190 C 
ATOM     17  O   LIG    1        3.119  12.729  -1.441  0.00  0.00    -0.370 OA
ENDBRANCH  12  13
ENDBRANCH  11  12
ENDBRANCH   8  11
ENDBRANCH   2   5
BRANCH   3  18
ATOM     18  C   LIG    1        5.786   2.809  -0.125  0.00  0.00    +0.170 A 
ATOM     19  C   LIG    1        6.707   2.314  -1.037  0.00  0.00    +0.030 A 
ATOM     20  C   LIG    1        7.132   1.002  -0.949  0.00  0.00    +0.060 A 
ATOM     21  C   LIG    1        6.648   0.175   0.051  0.00  0.00    +0.010 A 
ATOM     22  C   LIG    1        5.736   0.653   0.969  0.00  0.00    +0.090 A 
ATOM     23  C   LIG    1        5.298   1.976   0.891  0.00  0.00    -0.060 A 
BRANCH  23  24
ATOM     24  C   LIG    1        4.322   2.494   1.871  0.00  0.00    +0.170 A 
ATOM     25  N   LIG    1        3.748   1.785   2.785  0.00  0.00    -0.450 NA
ATOM     26  C   LIG    1        2.879   2.400   3.606  0.00  0.00    +0.080 A 
ATOM     27  C   LIG    1        2.131   1.854   4.672  0.00  0.00    +0.080 A 
ATOM     28  C   LIG    1        1.288   2.639   5.399  0.00  0.00    +0.030 A 
ATOM     29  C   LIG    1        1.151   3.989   5.113  0.00  0.00    +0.040 A 
ATOM     30  C   LIG    1        1.868   4.551   4.079  0.00  0.00    +0.060 A 
ATOM     31  C   LIG    1        2.733   3.763   3.322  0.00  0.00    -0.180 A 
ATOM     32  S   LIG    1        3.775   4.162   1.959  0.00  0.00    +0.050 S 
ENDBRANCH  23  24
ENDBRANCH   3  18
TORSDOF 6
