REMARK  Name = ZINCpk000000mZ9r.0
REMARK                            x       y       z     vdW  Elec       q    Type
REMARK                         _______ _______ _______ _____ _____    ______ ____
ROOT
ATOM      1  S   LIG    1        3.564   1.511  -1.125  0.00  0.00    +2.690 S 
ATOM      2  O   LIG    1        3.053   1.642  -2.444  0.00  0.00    -0.940 OA
ATOM      3  O   LIG    1        4.570   0.572  -0.771  0.00  0.00    -0.950 OA
ENDROOT
BRANCH   1   7
ATOM      4  C   LIG    1        5.157   5.588   0.038  0.00  0.00    +0.210 A 
ATOM      5  C   LIG    1        5.705   4.441   0.598  0.00  0.00    +0.010 A 
ATOM      6  C   LIG    1        5.217   3.200   0.241  0.00  0.00    +0.150 A 
ATOM      7  C   LIG    1        4.184   3.098  -0.672  0.00  0.00    -0.700 A 
ATOM      8  C   LIG    1        3.639   4.237  -1.234  0.00  0.00    +0.150 A 
ATOM      9  C   LIG    1        4.119   5.482  -0.878  0.00  0.00    -0.030 A 
BRANCH   4  12
ATOM     10  C   LIG    1        7.465   8.331   1.187  0.00  0.00    +0.110 C 
ATOM     11  C   LIG    1        6.955   7.002   0.693  0.00  0.00    +0.510 C 
ATOM     12  N   LIG    1        5.649   6.848   0.398  0.00  0.00    -0.680 N 
ATOM     13  H   LIG    1        5.051   7.610   0.434  0.00  0.00    +0.420 HD
ATOM     14  O   LIG    1        7.721   6.070   0.560  0.00  0.00    -0.520 OA
ENDBRANCH   4  12
ENDBRANCH   1   7
BRANCH   1  15
ATOM     15  N   LIG    1        2.264   1.196  -0.149  0.00  0.00    -1.060 N 
ATOM     16  H   LIG    1        2.304   0.469   0.492  0.00  0.00    +0.430 HD
BRANCH  15  17
ATOM     17  C   LIG    1        1.110   1.977  -0.248  0.00  0.00    +0.130 A 
ATOM     18  C   LIG    1        0.243   1.802  -1.320  0.00  0.00    +0.070 A 
ATOM     19  C   LIG    1       -0.895   2.577  -1.420  0.00  0.00    +0.040 A 
ATOM     20  C   LIG    1       -1.179   3.523  -0.445  0.00  0.00    +0.140 A 
ATOM     21  C   LIG    1       -0.313   3.698   0.626  0.00  0.00    +0.060 A 
ATOM     22  C   LIG    1        0.828   2.927   0.725  0.00  0.00    +0.060 A 
BRANCH  20  23
ATOM     23  N   LIG    1       -2.338   4.308  -0.544  0.00  0.00    -0.330 N 
ATOM     24  C   LIG    1       -3.274   4.268  -1.517  0.00  0.00    +0.470 A 
ATOM     25  N   LIG    1       -4.182   5.160  -1.220  0.00  0.00    -0.330 NA
ATOM     26  N   LIG    1       -3.880   5.768  -0.129  0.00  0.00    -0.030 NA
ATOM     27  N   LIG    1       -2.772   5.307   0.344  0.00  0.00    -0.070 NA
ENDBRANCH  20  23
ENDBRANCH  15  17
ENDBRANCH   1  15
TORSDOF 5
