REMARK  Name = ZINCpk00001AZivd.0
REMARK                            x       y       z     vdW  Elec       q    Type
REMARK                         _______ _______ _______ _____ _____    ______ ____
ROOT
ATOM      1  C   LIG    1        0.002  -0.004   0.002  0.00  0.00    +0.620 C 
ATOM      2  N   LIG    1        0.001  -0.672  -1.169  0.00  0.00    -0.610 N 
ATOM      3  C   LIG    1       -0.019  -0.057  -2.509  0.00  0.00    +0.250 C 
ATOM      4  C   LIG    1       -0.625  -1.141  -3.434  0.00  0.00    +0.190 C 
ATOM      5  C   LIG    1       -0.017  -2.437  -2.834  0.00  0.00    +0.190 C 
ATOM      6  C   LIG    1        0.025  -2.134  -1.322  0.00  0.00    +0.260 C 
ATOM      7  O   LIG    1        0.020  -0.618   1.052  0.00  0.00    -0.520 OA
ENDROOT
BRANCH   1  10
ATOM      8  C   LIG    1        2.502   1.847  -0.012  0.00  0.00    +0.160 C 
ATOM      9  C   LIG    1        1.063   2.296   0.004  0.00  0.00    +0.140 A 
ATOM     10  C   LIG    1       -0.018   1.465   0.010  0.00  0.00    -0.230 A 
ATOM     11  C   LIG    1       -1.211   2.331   0.020  0.00  0.00    -0.070 A 
ATOM     12  C   LIG    1       -2.582   2.090   0.037  0.00  0.00    +0.040 A 
ATOM     13  C   LIG    1       -3.462   3.150   0.052  0.00  0.00    +0.000 A 
ATOM     14  C   LIG    1       -2.986   4.453   0.055  0.00  0.00    +0.030 A 
ATOM     15  C   LIG    1       -1.632   4.707   0.043  0.00  0.00    +0.000 A 
ATOM     16  C   LIG    1       -0.728   3.650   0.029  0.00  0.00    +0.090 A 
ATOM     17  N   LIG    1        0.650   3.586   0.015  0.00  0.00    -0.580 N 
ATOM     18  H   LIG    1        1.240   4.356   0.013  0.00  0.00    +0.420 HD
ENDBRANCH   1  10
BRANCH   4  19
ATOM     19  O   LIG    1       -0.202  -0.955  -4.786  0.00  0.00    -0.550 OA
ATOM     20  H   LIG    1       -0.476  -0.112  -5.172  0.00  0.00    +0.390 HD
ENDBRANCH   4  19
BRANCH   5  21
ATOM     21  O   LIG    1       -0.856  -3.562  -3.105  0.00  0.00    -0.280 OA
BRANCH  21  22
ATOM     22  C   LIG    1       -0.245  -4.773  -3.230  0.00  0.00    -0.030 A 
ATOM     23  C   LIG    1       -0.861  -5.955  -3.480  0.00  0.00    +0.210 A 
ATOM     24  N   LIG    1        0.099  -6.915  -3.532  0.00  0.00    -0.370 N 
ATOM     25  N   LIG    1        1.336  -6.298  -3.299  0.00  0.00    -0.270 NA
ATOM     26  C   LIG    1       -0.120  -8.341  -3.782  0.00  0.00    +0.370 C 
ATOM     27  C   LIG    1        1.130  -5.019  -3.119  0.00  0.00    +0.180 A 
ENDBRANCH  21  22
ENDBRANCH   5  21
TORSDOF 4
