REMARK  Name = ZINCrg000000sMhf.0
REMARK                            x       y       z     vdW  Elec       q    Type
REMARK                         _______ _______ _______ _____ _____    ______ ____
ROOT
ATOM      1  C   LIG    1       -1.729   2.301   1.444  0.00  0.00    +0.450 C 
ATOM      2  O   LIG    1       -1.038   1.915   2.357  0.00  0.00    -0.490 OA
ENDROOT
BRANCH   1   3
ATOM      3  C   LIG    1       -1.297   2.065   0.019  0.00  0.00    +0.400 C 
BRANCH   3  11
ATOM      4  C   LIG    1        3.989  -1.985  -0.047  0.00  0.00    +0.380 C 
ATOM      5  N   LIG    1        3.587  -0.576  -0.036  0.00  0.00    -0.350 N 
ATOM      6  N   LIG    1        4.454   0.524  -0.038  0.00  0.00    -0.270 NA
ATOM      7  C   LIG    1        3.757   1.627  -0.025  0.00  0.00    +0.330 A 
ATOM      8  C   LIG    1        2.391   1.288  -0.014  0.00  0.00    -0.340 A 
ATOM      9  C   LIG    1        1.143   2.051   0.002  0.00  0.00    +0.580 A 
ATOM     10  O   LIG    1        1.147   3.269   0.009  0.00  0.00    -0.510 OA
ATOM     11  N   LIG    1       -0.016   1.353   0.009  0.00  0.00    -0.540 N 
ATOM     12  C   LIG    1        0.002  -0.004   0.002  0.00  0.00    +0.630 A 
ATOM     13  N   LIG    1        1.102  -0.699  -0.012  0.00  0.00    -0.530 NA
ATOM     14  C   LIG    1        2.310  -0.113  -0.021  0.00  0.00    +0.330 A 
ENDBRANCH   3  11
ENDBRANCH   1   3
BRANCH   1  15
ATOM     15  O   LIG    1       -2.881   2.941   1.698  0.00  0.00    -0.350 OA
BRANCH  15  16
ATOM     16  C   LIG    1       -3.234   3.134   3.093  0.00  0.00    +0.320 C 
BRANCH  16  17
ATOM     17  C   LIG    1       -4.549   3.865   3.182  0.00  0.00    -0.240 A 
ATOM     18  C   LIG    1       -5.775   3.295   3.226  0.00  0.00    +0.270 A 
ATOM     19  N   LIG    1       -6.689   4.289   3.303  0.00  0.00    -0.320 N 
ATOM     20  N   LIG    1       -5.999   5.508   3.306  0.00  0.00    -0.280 NA
ATOM     21  C   LIG    1       -4.717   5.253   3.240  0.00  0.00    +0.270 A 
BRANCH  19  22
ATOM     22  C   LIG    1       -8.080   4.128   3.369  0.00  0.00    +0.150 A 
ATOM     23  C   LIG    1       -8.634   2.856   3.352  0.00  0.00    -0.010 A 
ATOM     24  C   LIG    1      -10.005   2.700   3.424  0.00  0.00    +0.040 A 
ATOM     25  C   LIG    1      -10.825   3.811   3.499  0.00  0.00    +0.000 A 
ATOM     26  C   LIG    1      -10.276   5.080   3.510  0.00  0.00    +0.040 A 
ATOM     27  C   LIG    1       -8.906   5.242   3.445  0.00  0.00    +0.020 A 
ENDBRANCH  19  22
ENDBRANCH  16  17
ENDBRANCH  15  16
ENDBRANCH   1  15
TORSDOF 6
