REMARK  Name = ZINCpk000000pGTO.0
REMARK                            x       y       z     vdW  Elec       q    Type
REMARK                         _______ _______ _______ _____ _____    ______ ____
ROOT
ATOM      1  N   LIG    1        1.272  -0.427  -0.012  0.00  0.00    -0.560 N 
ATOM      2  C   LIG    1        0.002  -0.004   0.002  0.00  0.00    +0.530 C 
ATOM      3  C   LIG    1       -0.018   1.509   0.010  0.00  0.00    +0.110 C 
ATOM      4  C   LIG    1        1.476   1.891  -0.002  0.00  0.00    +0.060 C 
ATOM      5  O   LIG    1       -0.977  -0.720   0.007  0.00  0.00    -0.480 OA
ATOM      6  C   LIG    1        2.183   0.553  -0.016  0.00  0.00    +0.540 C 
ATOM      7  O   LIG    1        3.385   0.395  -0.029  0.00  0.00    -0.470 OA
ENDROOT
BRANCH   4   8
ATOM      8  C   LIG    1        1.835   2.668   1.238  0.00  0.00    -0.080 A 
ATOM      9  C   LIG    1        1.658   2.099   2.486  0.00  0.00    +0.010 A 
ATOM     10  C   LIG    1        1.991   2.810   3.623  0.00  0.00    +0.020 A 
ATOM     11  C   LIG    1        2.493   4.094   3.514  0.00  0.00    -0.080 A 
ATOM     12  C   LIG    1        2.664   4.665   2.267  0.00  0.00    +0.010 A 
ATOM     13  C   LIG    1        2.853   4.871   4.754  0.00  0.00    +0.090 C 
ATOM     14  C   LIG    1        2.335   3.952   1.129  0.00  0.00    +0.040 A 
ENDBRANCH   4   8
BRANCH   1  15
ATOM     15  C   LIG    1        1.635  -1.847  -0.024  0.00  0.00    +0.340 C 
BRANCH  15  21
ATOM     16  C   LIG    1        1.351  -5.380  -3.215  0.00  0.00    +0.150 C 
ATOM     17  C   LIG    1        2.184  -4.099  -3.087  0.00  0.00    +0.260 C 
ATOM     18  N   LIG    1        2.071  -3.608  -1.704  0.00  0.00    -0.610 N 
ATOM     19  C   LIG    1        2.329  -4.557  -0.610  0.00  0.00    +0.250 C 
ATOM     20  C   LIG    1        1.484  -5.817  -0.859  0.00  0.00    +0.220 C 
ATOM     21  C   LIG    1        1.745  -2.326  -1.448  0.00  0.00    +0.510 C 
ATOM     22  O   LIG    1        1.541  -1.557  -2.364  0.00  0.00    -0.530 OA
ATOM     23  O   LIG    1        1.732  -6.294  -2.183  0.00  0.00    -0.370 OA
BRANCH  16  25
ATOM     24  C   LIG    1        0.681  -7.226  -4.759  0.00  0.00    +0.020 C 
ATOM     25  C   LIG    1        1.604  -6.019  -4.582  0.00  0.00    +0.040 C 
ENDBRANCH  16  25
ENDBRANCH  15  21
ENDBRANCH   1  15
TORSDOF 4
