REMARK  Name = ZINCpk000004VBy6.0
REMARK                            x       y       z     vdW  Elec       q    Type
REMARK                         _______ _______ _______ _____ _____    ______ ____
ROOT
ATOM      1  C   LIG    1        0.002  -0.004   0.002  0.00  0.00    +0.600 C 
ATOM      2  N   LIG    1        0.075   1.262   0.459  0.00  0.00    -0.610 N 
ATOM      3  C   LIG    1       -1.094   1.913   1.068  0.00  0.00    +0.270 C 
ATOM      4  C   LIG    1       -0.668   2.498   2.424  0.00  0.00    +0.220 C 
ATOM      5  N   LIG    1        0.497   3.370   2.231  0.00  0.00    -0.460 N 
ATOM      6  C   LIG    1        1.654   2.612   1.734  0.00  0.00    +0.230 C 
ATOM      7  C   LIG    1        1.325   2.031   0.355  0.00  0.00    +0.310 C 
ATOM      8  O   LIG    1        0.976  -0.524  -0.508  0.00  0.00    -0.510 OA
ENDROOT
BRANCH   5   9
ATOM      9  C   LIG    1        0.811   4.045   3.398  0.00  0.00    +0.530 A 
ATOM     10  N   LIG    1       -0.118   4.783   3.987  0.00  0.00    -0.550 NA
ATOM     11  C   LIG    1        0.145   5.442   5.105  0.00  0.00    +0.230 A 
ATOM     12  C   LIG    1        1.408   5.356   5.659  0.00  0.00    -0.120 A 
ATOM     13  C   LIG    1        2.365   4.572   5.016  0.00  0.00    +0.390 A 
ATOM     14  C   LIG    1       -0.921   6.278   5.765  0.00  0.00    +0.160 C 
ATOM     15  N   LIG    1        2.031   3.933   3.901  0.00  0.00    -0.610 NA
BRANCH  13  16
ATOM     16  O   LIG    1        3.615   4.458   5.525  0.00  0.00    -0.300 OA
ATOM     17  C   LIG    1        4.537   3.636   4.806  0.00  0.00    +0.260 C 
ENDBRANCH  13  16
ENDBRANCH   5   9
BRANCH   1  22
ATOM     18  C   LIG    1       -2.771  -2.357   0.314  0.00  0.00    +0.040 A 
ATOM     19  N   LIG    1       -3.373  -1.197   0.263  0.00  0.00    -0.270 NA
ATOM     20  N   LIG    1       -2.521  -0.242   0.156  0.00  0.00    -0.380 N 
ATOM     21  H   LIG    1       -2.741   0.701   0.106  0.00  0.00    +0.450 HD
ATOM     22  C   LIG    1       -1.256  -0.758   0.121  0.00  0.00    -0.040 A 
ATOM     23  C   LIG    1       -1.396  -2.131   0.226  0.00  0.00    +0.010 A 
BRANCH  18  24
ATOM     24  C   LIG    1       -3.442  -3.700   0.445  0.00  0.00    +0.120 C 
BRANCH  24  26
ATOM     25  C   LIG    1       -5.029  -5.063   1.811  0.00  0.00    +0.030 C 
ATOM     26  C   LIG    1       -4.348  -3.700   1.678  0.00  0.00    +0.010 C 
ENDBRANCH  24  26
ENDBRANCH  18  24
ENDBRANCH   1  22
TORSDOF 5
