REMARK  Name = ZINCpk000004VBy6.1
REMARK                            x       y       z     vdW  Elec       q    Type
REMARK                         _______ _______ _______ _____ _____    ______ ____
ROOT
ATOM      1  C   LIG    1       -2.563   1.485   0.021  0.00  0.00    +0.610 C 
ATOM      2  N   LIG    1       -3.545   2.403  -0.072  0.00  0.00    -0.610 N 
ATOM      3  C   LIG    1       -3.231   3.837  -0.172  0.00  0.00    +0.310 C 
ATOM      4  C   LIG    1       -3.992   4.414  -1.375  0.00  0.00    +0.210 C 
ATOM      5  N   LIG    1       -5.421   4.100  -1.241  0.00  0.00    -0.460 N 
ATOM      6  C   LIG    1       -5.653   2.650  -1.272  0.00  0.00    +0.210 C 
ATOM      7  C   LIG    1       -4.959   1.999  -0.070  0.00  0.00    +0.310 C 
ATOM      8  O   LIG    1       -1.403   1.841   0.094  0.00  0.00    -0.530 OA
ENDROOT
BRANCH   5   9
ATOM      9  C   LIG    1       -6.164   4.742  -2.216  0.00  0.00    +0.530 A 
ATOM     10  N   LIG    1       -6.081   6.059  -2.329  0.00  0.00    -0.550 NA
ATOM     11  C   LIG    1       -6.774   6.707  -3.253  0.00  0.00    +0.230 A 
ATOM     12  C   LIG    1       -7.600   5.995  -4.102  0.00  0.00    -0.130 A 
ATOM     13  C   LIG    1       -7.670   4.610  -3.955  0.00  0.00    +0.390 A 
ATOM     14  C   LIG    1       -6.666   8.206  -3.375  0.00  0.00    +0.150 C 
ATOM     15  N   LIG    1       -6.944   4.024  -3.011  0.00  0.00    -0.610 NA
BRANCH  13  16
ATOM     16  O   LIG    1       -8.467   3.873  -4.766  0.00  0.00    -0.300 OA
ATOM     17  C   LIG    1       -8.483   2.460  -4.550  0.00  0.00    +0.260 C 
ENDBRANCH  13  16
ENDBRANCH   5   9
BRANCH   1  20
ATOM     18  C   LIG    1       -2.737  -2.153   0.032  0.00  0.00    +0.030 A 
ATOM     19  C   LIG    1       -1.979  -1.031  -0.002  0.00  0.00    -0.010 A 
ATOM     20  C   LIG    1       -2.896   0.046   0.033  0.00  0.00    -0.000 A 
ATOM     21  N   LIG    1       -4.105  -0.479   0.077  0.00  0.00    -0.260 NA
ATOM     22  N   LIG    1       -4.029  -1.761   0.080  0.00  0.00    -0.380 N 
ATOM     23  H   LIG    1       -4.789  -2.362   0.112  0.00  0.00    +0.440 HD
BRANCH  18  24
ATOM     24  C   LIG    1       -2.233  -3.573   0.021  0.00  0.00    +0.120 C 
BRANCH  24  26
ATOM     25  C   LIG    1       -1.378  -5.446   1.436  0.00  0.00    +0.030 C 
ATOM     26  C   LIG    1       -1.889  -4.004   1.448  0.00  0.00    +0.010 C 
ENDBRANCH  24  26
ENDBRANCH  18  24
ENDBRANCH   1  20
TORSDOF 5
