REMARK  Name = ZINCrg00001JduNC.0
REMARK                            x       y       z     vdW  Elec       q    Type
REMARK                         _______ _______ _______ _____ _____    ______ ____
ROOT
ATOM      1  N   LIG    1        2.145  -1.438   8.563  0.00  0.00    -0.530 NA
ATOM      2  C   LIG    1        1.584  -1.758   7.244  0.00  0.00    +0.190 C 
ATOM      3  C   LIG    1        2.194  -0.824   6.193  0.00  0.00    +0.300 C 
ATOM      4  N   LIG    1        1.997   0.566   6.633  0.00  0.00    -0.600 N 
ATOM      5  C   LIG    1        2.416   0.931   7.995  0.00  0.00    +0.300 C 
ATOM      6  C   LIG    1        1.452   1.482   5.808  0.00  0.00    +0.610 C 
ATOM      7  O   LIG    1        1.371   2.643   6.158  0.00  0.00    -0.530 OA
ATOM      8  C   LIG    1        1.792  -0.074   8.976  0.00  0.00    +0.170 C 
ENDROOT
BRANCH   6   9
ATOM      9  C   LIG    1        0.954   1.074   4.478  0.00  0.00    +0.000 A 
ATOM     10  N   LIG    1        1.073  -0.120   3.921  0.00  0.00    -0.270 NA
ATOM     11  N   LIG    1        0.522  -0.123   2.755  0.00  0.00    -0.260 N 
ATOM     12  C   LIG    1        0.010   1.085   2.486  0.00  0.00    -0.020 A 
ATOM     13  C   LIG    1       -0.721   1.577   1.263  0.00  0.00    +0.250 C 
ATOM     14  C   LIG    1        0.008   1.111   0.001  0.00  0.00    +0.070 C 
ATOM     15  O   LIG    1       -0.743   3.011   1.309  0.00  0.00    -0.360 OA
ATOM     16  C   LIG    1       -1.208   3.559   2.545  0.00  0.00    +0.150 C 
ATOM     17  C   LIG    1       -1.437   5.063   2.381  0.00  0.00    +0.080 C 
ATOM     18  C   LIG    1       -0.161   3.318   3.644  0.00  0.00    +0.110 C 
ATOM     19  C   LIG    1        0.466  -1.279   1.856  0.00  0.00    +0.370 C 
ATOM     20  C   LIG    1        0.263   1.877   3.561  0.00  0.00    -0.140 A 
ENDBRANCH   6   9
BRANCH   1  21
ATOM     21  C   LIG    1        1.718  -2.420   9.569  0.00  0.00    +0.360 C 
BRANCH  21  26
ATOM     22  C   LIG    1        1.724  -0.214  14.065  0.00  0.00    +0.210 C 
ATOM     23  C   LIG    1        2.118  -1.006  12.844  0.00  0.00    +0.170 A 
ATOM     24  N   LIG    1        3.240  -1.636  12.666  0.00  0.00    -0.380 NA
ATOM     25  O   LIG    1        3.251  -2.176  11.580  0.00  0.00    +0.090 OA
ATOM     26  C   LIG    1        2.102  -1.933  10.942  0.00  0.00    +0.180 A 
ATOM     27  N   LIG    1        1.376  -1.184  11.737  0.00  0.00    -0.480 NA
ENDBRANCH  21  26
ENDBRANCH   1  21
TORSDOF 3
