REMARK  Name = ZINCrD000006fiKa.0
REMARK                            x       y       z     vdW  Elec       q    Type
REMARK                         _______ _______ _______ _____ _____    ______ ____
ROOT
ATOM      1  C   LIG    1        2.491   1.079   0.020  0.00  0.00    +0.560 C 
ATOM      2  N   LIG    1        2.515  -0.269   0.022  0.00  0.00    -0.720 N 
ATOM      3  H   LIG    1        1.683  -0.768   0.030  0.00  0.00    +0.400 HD
ATOM      4  O   LIG    1        3.533   1.706   0.011  0.00  0.00    -0.530 OA
ENDROOT
BRANCH   1   7
ATOM      5  C   LIG    1       -0.039   3.857   0.033  0.00  0.00    +0.120 A 
ATOM      6  C   LIG    1        1.173   3.191   0.025  0.00  0.00    +0.100 A 
ATOM      7  C   LIG    1        1.200   1.794   0.028  0.00  0.00    -0.120 A 
ATOM      8  C   LIG    1        0.002   1.076   0.038  0.00  0.00    +0.040 A 
ATOM      9  C   LIG    1       -1.204   1.744   0.040  0.00  0.00    +0.010 A 
ATOM     10  C   LIG    1       -1.232   3.132   0.044  0.00  0.00    +0.100 A 
BRANCH   5  12
ATOM     11  C   LIG    1        0.971   5.953  -0.469  0.00  0.00    +0.540 C 
ATOM     12  N   LIG    1       -0.070   5.257   0.030  0.00  0.00    -0.660 N 
ATOM     13  H   LIG    1       -0.840   5.726   0.388  0.00  0.00    +0.420 HD
ATOM     14  O   LIG    1        1.891   5.368  -1.009  0.00  0.00    -0.520 OA
BRANCH  11  16
ATOM     15  C   LIG    1        2.020   8.107  -0.856  0.00  0.00    +0.160 C 
ATOM     16  C   LIG    1        0.993   7.420  -0.363  0.00  0.00    -0.090 C 
ENDBRANCH  11  16
ENDBRANCH   5  12
BRANCH  10  17
ATOM     17  O   LIG    1       -2.422   3.785   0.051  0.00  0.00    -0.490 OA
ATOM     18  H   LIG    1       -2.773   3.973  -0.830  0.00  0.00    +0.390 HD
ENDBRANCH  10  17
ENDBRANCH   1   7
BRANCH   2  19
ATOM     19  C   LIG    1        3.796  -0.978   0.014  0.00  0.00    +0.240 C 
ATOM     20  C   LIG    1        4.293  -1.119  -1.426  0.00  0.00    +0.020 C 
BRANCH  19  21
ATOM     21  C   LIG    1        3.613  -2.368   0.628  0.00  0.00    +0.080 C 
BRANCH  21  22
ATOM     22  C   LIG    1        3.243  -2.230   2.083  0.00  0.00    -0.080 A 
ATOM     23  C   LIG    1        4.232  -2.193   3.048  0.00  0.00    +0.010 A 
ATOM     24  C   LIG    1        3.890  -2.060   4.380  0.00  0.00    +0.020 A 
ATOM     25  C   LIG    1        2.560  -1.976   4.753  0.00  0.00    -0.100 A 
ATOM     26  C   LIG    1        1.933  -1.834   6.123  0.00  0.00    +0.070 C 
ATOM     27  C   LIG    1        0.454  -2.233   5.933  0.00  0.00    +0.030 C 
ATOM     28  C   LIG    1        0.211  -1.908   4.444  0.00  0.00    +0.070 C 
ATOM     29  C   LIG    1        1.571  -2.018   3.788  0.00  0.00    -0.090 A 
ATOM     30  C   LIG    1        1.915  -2.145   2.453  0.00  0.00    +0.010 A 
ENDBRANCH  21  22
ENDBRANCH  19  21
ENDBRANCH   2  19
TORSDOF 7
