REMARK  Name = ZINCrD00000F5LE1.0
REMARK                            x       y       z     vdW  Elec       q    Type
REMARK                         _______ _______ _______ _____ _____    ______ ____
ROOT
ATOM      1  N   LIG    1        5.974  -2.009  -0.270  0.00  0.00    -0.180 NA
ATOM      2  C   LIG    1        7.120  -2.648  -0.285  0.00  0.00    +0.110 C 
ATOM      3  C   LIG    1        7.337  -4.104  -0.186  0.00  0.00    +0.590 C 
ATOM      4  N   LIG    1        8.661  -4.330  -0.246  0.00  0.00    -0.540 N 
ATOM      5  C   LIG    1        9.373  -3.142  -0.368  0.00  0.00    +0.180 A 
ATOM      6  C   LIG    1       10.737  -2.887  -0.457  0.00  0.00    +0.010 A 
ATOM      7  C   LIG    1       11.194  -1.590  -0.572  0.00  0.00    +0.090 A 
ATOM      8  C   LIG    1       10.305  -0.529  -0.600  0.00  0.00    +0.010 A 
ATOM      9  C   LIG    1        8.947  -0.762  -0.513  0.00  0.00    +0.070 A 
ATOM     10  O   LIG    1        6.471  -4.952  -0.074  0.00  0.00    -0.460 OA
ATOM     11  C   LIG    1        8.477  -2.065  -0.397  0.00  0.00    -0.170 A 
ENDROOT
BRANCH   1  12
ATOM     12  N   LIG    1        5.954  -0.609  -0.223  0.00  0.00    -0.530 N 
ATOM     13  H   LIG    1        6.785  -0.110  -0.267  0.00  0.00    +0.420 HD
BRANCH  12  14
ATOM     14  C   LIG    1        4.781   0.045  -0.117  0.00  0.00    +0.570 C 
ATOM     15  S   LIG    1        4.756   1.756  -0.059  0.00  0.00    -0.570 S 
BRANCH  14  16
ATOM     16  N   LIG    1        3.626  -0.648  -0.056  0.00  0.00    -0.590 N 
ATOM     17  H   LIG    1        3.643  -1.618  -0.047  0.00  0.00    +0.420 HD
BRANCH  16  23
ATOM     18  C   LIG    1        1.373  -0.440   0.804  0.00  0.00    +0.130 A 
ATOM     19  C   LIG    1        0.165   0.236   0.848  0.00  0.00    -0.080 A 
ATOM     20  C   LIG    1       -0.017   1.378   0.088  0.00  0.00    +0.060 A 
ATOM     21  C   LIG    1        1.004   1.847  -0.717  0.00  0.00    -0.020 A 
ATOM     22  C   LIG    1        2.213   1.177  -0.766  0.00  0.00    +0.120 A 
ATOM     23  C   LIG    1        2.403   0.032  -0.007  0.00  0.00    +0.080 A 
BRANCH  18  25
ATOM     24  C   LIG    1        0.454  -1.988   2.357  0.00  0.00    +0.250 C 
ATOM     25  O   LIG    1        1.553  -1.562   1.550  0.00  0.00    -0.320 OA
ENDBRANCH  18  25
ENDBRANCH  16  23
ENDBRANCH  14  16
ENDBRANCH  12  14
ENDBRANCH   1  12
BRANCH   4  26
ATOM     26  C   LIG    1        9.276  -5.658  -0.184  0.00  0.00    +0.320 C 
BRANCH  26  27
ATOM     27  C   LIG    1        9.565  -6.019   1.274  0.00  0.00    -0.030 C 
ATOM     28  C   LIG    1       10.319  -7.349   1.331  0.00  0.00    +0.030 C 
ATOM     29  C   LIG    1        8.246  -6.147   2.039  0.00  0.00    +0.020 C 
ENDBRANCH  26  27
ENDBRANCH   4  26
TORSDOF 7
