REMARK  Name = ZINCrg00000SjSmC.0
REMARK                            x       y       z     vdW  Elec       q    Type
REMARK                         _______ _______ _______ _____ _____    ______ ____
ROOT
ATOM      1  C   LIG    1        1.844   8.826   5.549  0.00  0.00    +0.070 C 
ATOM      2  C   LIG    1        1.581   9.044   4.058  0.00  0.00    -0.050 C 
ATOM      3  C   LIG    1        2.118   7.847   3.260  0.00  0.00    +0.320 C 
ATOM      4  N   LIG    1        2.161   8.236   1.847  0.00  0.00    -0.430 N 
ATOM      5  C   LIG    1        2.064   9.517   1.393  0.00  0.00    +0.470 A 
ATOM      6  N   LIG    1        1.912  10.620   2.205  0.00  0.00    -0.440 N 
ATOM      7  N   LIG    1        2.141   9.513   0.079  0.00  0.00    -0.480 NA
ATOM      8  C   LIG    1        2.285   8.263  -0.367  0.00  0.00    +0.330 A 
ATOM      9  N   LIG    1        2.410   7.709  -1.631  0.00  0.00    -0.510 N 
ATOM     10  C   LIG    1        2.396   8.574  -2.813  0.00  0.00    +0.340 C 
ATOM     11  C   LIG    1        2.551   6.378  -1.774  0.00  0.00    +0.710 A 
ATOM     12  O   LIG    1        2.665   5.909  -2.890  0.00  0.00    -0.530 OA
ATOM     13  N   LIG    1        2.564   5.553  -0.712  0.00  0.00    -0.550 N 
ATOM     14  C   LIG    1        2.446   6.034   0.543  0.00  0.00    +0.600 A 
ATOM     15  O   LIG    1        2.464   5.276   1.496  0.00  0.00    -0.510 OA
ATOM     16  C   LIG    1        2.303   7.419   0.740  0.00  0.00    -0.150 A 
ATOM     17  C   LIG    1        2.303  10.311   3.588  0.00  0.00    +0.240 C 
ENDROOT
BRANCH   6  18
ATOM     18  C   LIG    1        0.535  11.129   2.149  0.00  0.00    +0.140 C 
ATOM     19  C   LIG    1        0.208  11.558   0.717  0.00  0.00    +0.040 C 
ATOM     20  C   LIG    1       -1.226  12.088   0.659  0.00  0.00    +0.010 C 
ATOM     21  C   LIG    1       -1.365  13.290   1.595  0.00  0.00    +0.010 C 
ATOM     22  C   LIG    1       -1.038  12.861   3.027  0.00  0.00    +0.010 C 
ATOM     23  C   LIG    1        0.396  12.331   3.086  0.00  0.00    +0.030 C 
ENDBRANCH   6  18
BRANCH  13  24
ATOM     24  C   LIG    1        2.714   4.111  -0.920  0.00  0.00    +0.330 C 
BRANCH  24  25
ATOM     25  C   LIG    1        1.332   3.472  -1.075  0.00  0.00    +0.020 C 
BRANCH  25  26
ATOM     26  C   LIG    1        1.488   1.966  -1.293  0.00  0.00    +0.180 C 
BRANCH  26  27
ATOM     27  O   LIG    1        0.198   1.369  -1.437  0.00  0.00    -0.570 OA
ATOM     28  H   LIG    1        0.221   0.412  -1.579  0.00  0.00    +0.380 HD
ENDBRANCH  26  27
ENDBRANCH  25  26
ENDBRANCH  24  25
ENDBRANCH  13  24
TORSDOF 5
