REMARK  Name = ZINCrg00000SjSJy.0
REMARK                            x       y       z     vdW  Elec       q    Type
REMARK                         _______ _______ _______ _____ _____    ______ ____
ROOT
ATOM      1  C   LIG    1        1.445   1.472   2.353  0.00  0.00    +0.050 C 
ATOM      2  C   LIG    1       -0.060   1.242   2.501  0.00  0.00    +0.250 C 
ATOM      3  C   LIG    1       -0.816   2.107   1.486  0.00  0.00    +0.150 C 
ATOM      4  O   LIG    1       -0.657   3.486   1.832  0.00  0.00    -0.350 OA
ATOM      5  C   LIG    1       -1.205   3.837   3.105  0.00  0.00    +0.240 C 
ATOM      6  C   LIG    1       -0.468   3.060   4.202  0.00  0.00    +0.250 C 
ATOM      7  N   LIG    1       -0.490   1.631   3.854  0.00  0.00    -0.630 N 
ATOM      8  C   LIG    1       -0.891   0.704   4.747  0.00  0.00    +0.710 C 
ATOM      9  N   LIG    1       -1.375   1.089   5.945  0.00  0.00    -0.740 N 
ATOM     10  H   LIG    1       -1.366   2.026   6.193  0.00  0.00    +0.400 HD
ATOM     11  O   LIG    1       -0.816  -0.478   4.472  0.00  0.00    -0.580 OA
ENDROOT
BRANCH   3  12
ATOM     12  C   LIG    1       -0.252   1.863   0.085  0.00  0.00    +0.470 C 
ATOM     13  F   LIG    1       -1.018   2.562  -0.854  0.00  0.00    -0.170 F 
ATOM     14  F   LIG    1        1.073   2.310   0.032  0.00  0.00    -0.170 F 
ATOM     15  F   LIG    1       -0.295   0.495  -0.203  0.00  0.00    -0.170 F 
ENDBRANCH   3  12
BRANCH   9  16
ATOM     16  C   LIG    1       -1.913   0.090   6.871  0.00  0.00    +0.300 C 
BRANCH  16  17
ATOM     17  C   LIG    1       -2.392   0.785   8.148  0.00  0.00    +0.000 C 
ATOM     18  C   LIG    1       -1.187   1.367   8.919  0.00  0.00    +0.040 C 
ATOM     19  C   LIG    1       -1.546   1.140  10.411  0.00  0.00    +0.040 C 
ATOM     20  C   LIG    1       -2.249  -0.242  10.391  0.00  0.00    +0.050 C 
ATOM     21  C   LIG    1       -3.052  -0.231   9.083  0.00  0.00    +0.130 C 
ATOM     22  N   LIG    1       -3.098  -1.564   8.479  0.00  0.00    -0.720 N 
ATOM     23  H   LIG    1       -2.342  -2.097   8.186  0.00  0.00    +0.440 HD
ATOM     24  C   LIG    1       -4.401  -1.903   8.412  0.00  0.00    +0.700 C 
ATOM     25  N   LIG    1       -5.202  -0.947   8.901  0.00  0.00    -0.580 N 
ATOM     26  C   LIG    1       -6.663  -1.045   8.954  0.00  0.00    +0.340 C 
ATOM     27  O   LIG    1       -4.804  -2.956   7.958  0.00  0.00    -0.530 OA
ATOM     28  C   LIG    1       -4.496   0.118   9.338  0.00  0.00    +0.530 C 
ATOM     29  O   LIG    1       -4.931   1.136   9.832  0.00  0.00    -0.450 OA
ENDBRANCH  16  17
ENDBRANCH   9  16
TORSDOF 3
