REMARK  Name = ZINCvU00000004Rl.0
REMARK                            x       y       z     vdW  Elec       q    Type
REMARK                         _______ _______ _______ _____ _____    ______ ____
ROOT
ATOM      1  C   LIG    1        3.447  -1.476   0.241  0.00  0.00    -0.690 A 
ATOM      2  C   LIG    1        4.705  -0.901   0.194  0.00  0.00    +0.190 A 
ATOM      3  C   LIG    1        4.843   0.471   0.098  0.00  0.00    +0.020 A 
ATOM      4  C   LIG    1        3.723   1.279   0.049  0.00  0.00    +0.070 A 
ATOM      5  C   LIG    1        2.450   0.705   0.095  0.00  0.00    -0.150 A 
ATOM      6 CL   LIG    1        3.897   3.002  -0.071  0.00  0.00    -0.010 Cl
ATOM      7  C   LIG    1        2.320  -0.682   0.198  0.00  0.00    +0.180 A 
ENDROOT
BRANCH   5   8
ATOM      8  C   LIG    1        1.247   1.561   0.043  0.00  0.00    +0.560 C 
ATOM      9  N   LIG    1        0.021   1.004   0.088  0.00  0.00    -0.670 N 
ATOM     10  H   LIG    1       -0.074   0.038   0.090  0.00  0.00    +0.410 HD
ATOM     11  O   LIG    1        1.364   2.768  -0.042  0.00  0.00    -0.490 OA
BRANCH   9  12
ATOM     12  C   LIG    1       -1.118   1.819   0.126  0.00  0.00    +0.100 A 
ATOM     13  C   LIG    1       -1.132   3.025  -0.559  0.00  0.00    +0.100 A 
ATOM     14  C   LIG    1       -2.258   3.825  -0.525  0.00  0.00    +0.010 A 
ATOM     15  C   LIG    1       -3.368   3.431   0.202  0.00  0.00    +0.120 A 
ATOM     16  C   LIG    1       -3.356   2.230   0.893  0.00  0.00    -0.010 A 
ATOM     17  F   LIG    1       -4.466   4.218   0.238  0.00  0.00    -0.130 F 
ATOM     18  C   LIG    1       -2.234   1.423   0.857  0.00  0.00    +0.110 A 
ATOM     19  F   LIG    1       -2.221   0.252   1.530  0.00  0.00    -0.130 F 
ENDBRANCH   9  12
ENDBRANCH   5   8
BRANCH   1  20
ATOM     20  S   LIG    1        3.284  -3.226   0.363  0.00  0.00    +2.680 S 
ATOM     21  O   LIG    1        4.488  -3.778  -0.151  0.00  0.00    -0.930 OA
ATOM     22  O   LIG    1        2.000  -3.547  -0.154  0.00  0.00    -0.940 OA
BRANCH  20  23
ATOM     23  N   LIG    1        3.248  -3.604   1.975  0.00  0.00    -0.940 N 
BRANCH  23  24
ATOM     24  C   LIG    1        4.441  -3.773   2.679  0.00  0.00    +0.130 A 
ATOM     25  C   LIG    1        4.732  -2.955   3.764  0.00  0.00    +0.010 A 
ATOM     26  C   LIG    1        5.911  -3.129   4.462  0.00  0.00    +0.020 A 
ATOM     27  C   LIG    1        6.807  -4.108   4.075  0.00  0.00    +0.020 A 
ATOM     28  C   LIG    1        6.524  -4.921   2.993  0.00  0.00    +0.020 A 
ATOM     29  C   LIG    1        5.344  -4.756   2.294  0.00  0.00    +0.030 A 
ENDBRANCH  23  24
BRANCH  23  30
ATOM     30  C   LIG    1        1.963  -3.760   2.662  0.00  0.00    +0.340 C 
BRANCH  30  32
ATOM     31  C   LIG    1        1.309  -5.809   3.817  0.00  0.00    +0.040 C 
ATOM     32  C   LIG    1        1.577  -5.217   2.680  0.00  0.00    -0.060 C 
ENDBRANCH  30  32
ENDBRANCH  23  30
ENDBRANCH  20  23
ENDBRANCH   1  20
TORSDOF 7
