REMARK  Name = ZINCrH000004n8Xz.0
REMARK                            x       y       z     vdW  Elec       q    Type
REMARK                         _______ _______ _______ _____ _____    ______ ____
ROOT
ATOM      1  C   LIG    1       -1.428   6.107  -0.324  0.00  0.00    +0.500 C 
ATOM      2  N   LIG    1       -1.236   7.287  -0.946  0.00  0.00    -0.730 N 
ATOM      3  H   LIG    1       -1.726   7.493  -1.757  0.00  0.00    +0.400 HD
ATOM      4  O   LIG    1       -0.815   5.850   0.690  0.00  0.00    -0.510 OA
ENDROOT
BRANCH   1   5
ATOM      5  C   LIG    1       -2.404   5.108  -0.888  0.00  0.00    +0.060 C 
BRANCH   5  14
ATOM      6  C   LIG    1       -4.910   0.918  -1.831  0.00  0.00    +0.130 A 
ATOM      7  C   LIG    1       -3.938   1.614  -2.535  0.00  0.00    -0.080 A 
ATOM      8  C   LIG    1       -3.192   2.582  -1.896  0.00  0.00    +0.040 A 
ATOM      9  C   LIG    1       -3.406   2.868  -0.554  0.00  0.00    -0.110 A 
ATOM     10  C   LIG    1       -4.378   2.187   0.144  0.00  0.00    -0.030 A 
ATOM     11  C   LIG    1       -4.668   2.453   1.599  0.00  0.00    +0.080 C 
ATOM     12  C   LIG    1       -3.511   3.207   2.250  0.00  0.00    +0.020 C 
ATOM     13  C   LIG    1       -3.178   4.425   1.381  0.00  0.00    +0.030 C 
ATOM     14  C   LIG    1       -2.548   3.932   0.080  0.00  0.00    +0.060 C 
ATOM     15  C   LIG    1       -5.123   1.205  -0.493  0.00  0.00    -0.020 A 
BRANCH   6  17
ATOM     16  C   LIG    1       -5.371  -0.280  -3.832  0.00  0.00    +0.250 C 
ATOM     17  O   LIG    1       -5.648  -0.039  -2.451  0.00  0.00    -0.320 OA
ENDBRANCH   6  17
ENDBRANCH   5  14
ENDBRANCH   1   5
BRANCH   2  18
ATOM     18  C   LIG    1       -0.286   8.259  -0.397  0.00  0.00    +0.310 C 
BRANCH  18  19
ATOM     19  C   LIG    1        0.209   9.156  -1.502  0.00  0.00    -0.090 A 
ATOM     20  C   LIG    1       -0.665   9.600  -2.477  0.00  0.00    +0.010 A 
ATOM     21  C   LIG    1       -0.212  10.426  -3.488  0.00  0.00    +0.010 A 
ATOM     22  C   LIG    1        1.118  10.802  -3.529  0.00  0.00    +0.000 A 
ATOM     23  C   LIG    1        1.993  10.355  -2.557  0.00  0.00    +0.020 A 
ATOM     24  C   LIG    1        1.539   9.532  -1.544  0.00  0.00    +0.010 A 
ENDBRANCH  18  19
BRANCH  18  25
ATOM     25  C   LIG    1       -0.982   9.103   0.672  0.00  0.00    -0.250 C 
BRANCH  25  26
ATOM     26  S   LIG    1       -1.447   8.044   2.070  0.00  0.00    +1.270 S 
ATOM     27  O   LIG    1       -0.275   7.514   2.674  0.00  0.00    -0.820 OA
ATOM     28  C   LIG    1       -2.244   9.205   3.214  0.00  0.00    -0.230 C 
ENDBRANCH  25  26
ENDBRANCH  18  25
ENDBRANCH   2  18
TORSDOF 7
