REMARK  Name = ZINCrg000000sA1S.0
REMARK                            x       y       z     vdW  Elec       q    Type
REMARK                         _______ _______ _______ _____ _____    ______ ____
ROOT
ATOM      1  C   LIG    1        4.783   3.864   0.203  0.00  0.00    +0.420 C 
ENDROOT
BRANCH   1  11
ATOM      2  C   LIG    1        7.032   1.611  -4.405  0.00  0.00    +0.360 C 
ATOM      3  N   LIG    1        7.160   1.550  -2.947  0.00  0.00    -0.550 N 
ATOM      4  C   LIG    1        6.361   2.317  -2.176  0.00  0.00    +0.600 A 
ATOM      5  C   LIG    1        6.489   2.253  -0.772  0.00  0.00    -0.150 A 
ATOM      6  C   LIG    1        7.436   1.401  -0.217  0.00  0.00    +0.330 A 
ATOM      7  N   LIG    1        8.227   0.639  -1.062  0.00  0.00    -0.510 N 
ATOM      8  C   LIG    1        9.233  -0.267  -0.502  0.00  0.00    +0.340 C 
ATOM      9  N   LIG    1        7.354   1.529   1.110  0.00  0.00    -0.490 NA
ATOM     10  C   LIG    1        6.428   2.402   1.415  0.00  0.00    +0.520 A 
ATOM     11  N   LIG    1        5.860   2.874   0.288  0.00  0.00    -0.410 N 
ATOM     12  O   LIG    1        5.538   3.056  -2.687  0.00  0.00    -0.510 OA
ATOM     13  C   LIG    1        8.072   0.730  -2.396  0.00  0.00    +0.710 A 
ATOM     14  O   LIG    1        8.775   0.053  -3.122  0.00  0.00    -0.530 OA
ENDBRANCH   1  11
BRANCH   1  15
ATOM     15  C   LIG    1        3.458   3.156   0.091  0.00  0.00    +0.450 C 
ATOM     16  O   LIG    1        3.417   1.948   0.083  0.00  0.00    -0.460 OA
BRANCH  15  17
ATOM     17  O   LIG    1        2.322   3.866   0.001  0.00  0.00    -0.280 OA
BRANCH  17  18
ATOM     18  C   LIG    1        1.155   3.171   0.024  0.00  0.00    +0.080 A 
ATOM     19  C   LIG    1        0.746   2.538   1.189  0.00  0.00    +0.050 A 
ATOM     20  C   LIG    1       -0.441   1.831   1.210  0.00  0.00    +0.050 A 
ATOM     21  C   LIG    1       -1.219   1.750   0.070  0.00  0.00    +0.090 A 
ATOM     22  C   LIG    1       -0.816   2.385  -1.091  0.00  0.00    -0.170 A 
ATOM     23  C   LIG    1        0.370   3.092  -1.117  0.00  0.00    +0.090 A 
BRANCH  22  24
ATOM     24  C   LIG    1       -1.670   2.299  -2.330  0.00  0.00    +0.510 C 
ATOM     25  F   LIG    1       -1.496   3.456  -3.097  0.00  0.00    -0.170 F 
ATOM     26  F   LIG    1       -3.014   2.180  -1.963  0.00  0.00    -0.170 F 
ATOM     27  F   LIG    1       -1.291   1.181  -3.081  0.00  0.00    -0.170 F 
ENDBRANCH  22  24
ENDBRANCH  17  18
ENDBRANCH  15  17
ENDBRANCH   1  15
TORSDOF 5
