REMARK  Name = ZINCpk00000KfLdY.0
REMARK                            x       y       z     vdW  Elec       q    Type
REMARK                         _______ _______ _______ _____ _____    ______ ____
ROOT
ATOM      1  C   LIG    1       -0.622   0.898  -0.233  0.00  0.00    +0.250 C 
ATOM      2  C   LIG    1       -0.747   2.402  -0.508  0.00  0.00    +0.320 C 
ATOM      3  N   LIG    1       -2.162   2.783  -0.398  0.00  0.00    -0.610 N 
ATOM      4  C   LIG    1       -2.885   2.471   0.844  0.00  0.00    +0.280 C 
ATOM      5  C   LIG    1       -2.760   0.968   1.119  0.00  0.00    +0.280 C 
ATOM      6  C   LIG    1       -2.786   3.408  -1.416  0.00  0.00    +0.590 C 
ATOM      7  O   LIG    1       -2.204   3.585  -2.469  0.00  0.00    -0.520 OA
ATOM      8  N   LIG    1       -1.342   0.583   1.010  0.00  0.00    -0.600 N 
ATOM      9  C   LIG    1       -0.715  -0.041   2.026  0.00  0.00    +0.590 C 
ATOM     10  O   LIG    1        0.477  -0.272   1.956  0.00  0.00    -0.500 OA
ENDROOT
BRANCH   6  11
ATOM     11  C   LIG    1       -4.174   3.876  -1.254  0.00  0.00    -0.230 A 
ATOM     12  C   LIG    1       -4.759   4.343  -0.114  0.00  0.00    +0.230 A 
ATOM     13  O   LIG    1       -6.026   4.666  -0.391  0.00  0.00    -0.170 OA
ATOM     14  C   LIG    1       -6.311   4.422  -1.680  0.00  0.00    +0.180 A 
ATOM     15  C   LIG    1       -5.220   3.931  -2.286  0.00  0.00    -0.010 A 
ENDBRANCH   6  11
BRANCH   9  16
ATOM     16  C   LIG    1       -1.474  -0.444   3.223  0.00  0.00    -0.230 A 
ATOM     17  C   LIG    1       -2.786  -0.814   3.282  0.00  0.00    +0.230 A 
ATOM     18  O   LIG    1       -3.086  -1.103   4.552  0.00  0.00    -0.170 OA
ATOM     19  C   LIG    1       -2.017  -0.939   5.346  0.00  0.00    +0.180 A 
ATOM     20  C   LIG    1       -0.974  -0.538   4.603  0.00  0.00    -0.010 A 
ENDBRANCH   9  16
BRANCH   1  21
ATOM     21  C   LIG    1        0.832   0.531  -0.081  0.00  0.00    +0.480 C 
ATOM     22  O   LIG    1        1.549   1.187   0.637  0.00  0.00    -0.490 OA
BRANCH  21  23
ATOM     23  O   LIG    1        1.330  -0.524  -0.745  0.00  0.00    -0.360 OA
BRANCH  23  25
ATOM     24  C   LIG    1        3.122  -2.045  -1.381  0.00  0.00    +0.070 C 
ATOM     25  C   LIG    1        2.739  -0.819  -0.551  0.00  0.00    +0.210 C 
ENDBRANCH  23  25
ENDBRANCH  21  23
ENDBRANCH   1  21
TORSDOF 5
