REMARK  Name = ZINCrg00001JduTg.0
REMARK                            x       y       z     vdW  Elec       q    Type
REMARK                         _______ _______ _______ _____ _____    ______ ____
ROOT
ATOM      1  C   LIG    1        0.756   4.236   4.216  0.00  0.00    +0.430 A 
ATOM      2  C   LIG    1        0.183   5.481   4.525  0.00  0.00    -0.060 A 
ATOM      3  N   LIG    1       -0.951   6.126   4.158  0.00  0.00    -0.450 NA
ATOM      4  C   LIG    1       -1.001   7.284   4.750  0.00  0.00    +0.480 A 
ATOM      5  N   LIG    1        0.094   7.449   5.545  0.00  0.00    -0.460 N 
ATOM      6  C   LIG    1        0.868   6.324   5.417  0.00  0.00    +0.290 A 
ATOM      7  N   LIG    1        2.029   5.921   5.924  0.00  0.00    -0.540 NA
ATOM      8  C   LIG    1        2.530   4.748   5.601  0.00  0.00    +0.540 A 
ATOM      9  N   LIG    1        1.921   3.920   4.772  0.00  0.00    -0.560 NA
ENDROOT
BRANCH   1  17
ATOM     10  C   LIG    1       -0.013   1.086   0.008  0.00  0.00    +0.020 C 
ATOM     11  C   LIG    1       -0.732   1.581   1.273  0.00  0.00    +0.150 C 
ATOM     12  C   LIG    1       -0.951   3.080   1.184  0.00  0.00    +0.020 C 
ATOM     13  C   LIG    1        0.057   3.912   1.971  0.00  0.00    +0.200 C 
ATOM     14  C   LIG    1        1.470   3.694   1.387  0.00  0.00    -0.010 C 
ATOM     15  C   LIG    1        2.036   2.499   2.180  0.00  0.00    +0.020 C 
ATOM     16  C   LIG    1        0.908   2.115   3.162  0.00  0.00    +0.190 C 
ATOM     17  N   LIG    1        0.125   3.362   3.348  0.00  0.00    -0.440 N 
ATOM     18  C   LIG    1       -0.003   1.082   2.506  0.00  0.00    +0.060 C 
BRANCH  11  19
ATOM     19  O   LIG    1       -2.040   0.957   1.266  0.00  0.00    -0.570 OA
ATOM     20  H   LIG    1       -2.577   1.177   0.492  0.00  0.00    +0.370 HD
ENDBRANCH  11  19
ENDBRANCH   1  17
BRANCH   5  21
ATOM     21  C   LIG    1        0.397   8.621   6.370  0.00  0.00    +0.240 C 
ATOM     22  C   LIG    1       -0.840   9.237   7.044  0.00  0.00    +0.050 C 
ATOM     23  C   LIG    1       -0.233  10.613   6.724  0.00  0.00    -0.080 C 
ATOM     24  C   LIG    1        0.512   9.928   5.566  0.00  0.00    +0.060 C 
BRANCH  23  25
ATOM     25  C   LIG    1       -1.262  11.648   6.264  0.00  0.00    +0.180 C 
BRANCH  25  26
ATOM     26  O   LIG    1       -1.898  12.227   7.405  0.00  0.00    -0.540 OA
ATOM     27  H   LIG    1       -2.564  12.893   7.188  0.00  0.00    +0.370 HD
ENDBRANCH  25  26
ENDBRANCH  23  25
BRANCH  23  28
ATOM     28  C   LIG    1        0.694  11.144   7.820  0.00  0.00    +0.190 C 
BRANCH  28  29
ATOM     29  O   LIG    1       -0.086  11.760   8.846  0.00  0.00    -0.540 OA
ATOM     30  H   LIG    1        0.438  12.120   9.575  0.00  0.00    +0.370 HD
ENDBRANCH  28  29
ENDBRANCH  23  28
ENDBRANCH   5  21
TORSDOF 7
