REMARK  Name = ZINCrD00000hQ6ci.0
REMARK                            x       y       z     vdW  Elec       q    Type
REMARK                         _______ _______ _______ _____ _____    ______ ____
ROOT
ATOM      1  C   LIG    1        5.101   3.609   1.350  0.00  0.00    +0.110 A 
ATOM      2  C   LIG    1        5.764   3.255   2.515  0.00  0.00    -0.040 A 
ATOM      3  C   LIG    1        5.771   4.116   3.595  0.00  0.00    +0.020 A 
ATOM      4  C   LIG    1        5.106   5.333   3.517  0.00  0.00    +0.120 A 
ATOM      5  C   LIG    1        4.438   5.684   2.351  0.00  0.00    +0.040 A 
ATOM      6  C   LIG    1        4.436   4.824   1.271  0.00  0.00    +0.020 A 
ENDROOT
BRANCH   4   7
ATOM      7  N   LIG    1        5.108   6.204   4.612  0.00  0.00    -0.940 N 
ATOM      8  C   LIG    1        4.909   7.640   4.406  0.00  0.00    +0.330 C 
BRANCH   7   9
ATOM      9  S   LIG    1        5.335   5.610   6.141  0.00  0.00    +2.690 S 
ATOM     10  O   LIG    1        5.330   6.733   7.012  0.00  0.00    -0.930 OA
ATOM     11  O   LIG    1        6.418   4.694   6.060  0.00  0.00    -0.940 OA
BRANCH   9  12
ATOM     12  C   LIG    1        3.909   4.659   6.548  0.00  0.00    -0.720 A 
ATOM     13  C   LIG    1        4.015   3.291   6.717  0.00  0.00    +0.160 A 
ATOM     14  C   LIG    1        2.897   2.545   7.042  0.00  0.00    -0.010 A 
ATOM     15  C   LIG    1        1.670   3.164   7.187  0.00  0.00    +0.110 A 
ATOM     16  C   LIG    1        1.560   4.531   7.013  0.00  0.00    -0.020 A 
ATOM     17  C   LIG    1        2.679   5.280   6.694  0.00  0.00    +0.200 A 
ATOM     18  F   LIG    1        2.573   6.616   6.523  0.00  0.00    -0.120 F 
ENDBRANCH   9  12
ENDBRANCH   7   9
ENDBRANCH   4   7
BRANCH   1  19
ATOM     19  O   LIG    1        5.098   2.763   0.285  0.00  0.00    -0.310 OA
BRANCH  19  20
ATOM     20  C   LIG    1        5.803   1.529   0.436  0.00  0.00    +0.220 C 
BRANCH  20  23
ATOM     21  N   LIG    1        4.355   0.242  -1.246  0.00  0.00    -0.440 NA
ATOM     22  C   LIG    1        4.933   1.345  -2.026  0.00  0.00    +0.180 C 
ATOM     23  C   LIG    1        5.689   0.715  -0.855  0.00  0.00    +0.090 C 
BRANCH  21  24
ATOM     24  C   LIG    1        3.328   0.735  -0.319  0.00  0.00    +0.160 C 
BRANCH  24  26
ATOM     25  C   LIG    1        1.490   0.296  -1.952  0.00  0.00    +0.020 C 
ATOM     26  C   LIG    1        2.021  -0.025  -0.554  0.00  0.00    -0.020 C 
ATOM     27  C   LIG    1        0.989   0.400   0.493  0.00  0.00    +0.010 C 
ENDBRANCH  24  26
ENDBRANCH  21  24
ENDBRANCH  20  23
ENDBRANCH  19  20
ENDBRANCH   1  19
TORSDOF 8
