REMARK  Name = ZINCrD000000ApCr.0
REMARK                            x       y       z     vdW  Elec       q    Type
REMARK                         _______ _______ _______ _____ _____    ______ ____
ROOT
ATOM      1  O   LIG    1        0.576  -0.273  -0.061  0.00  0.00    -0.500 OA
ATOM      2  C   LIG    1        0.650   0.938  -0.072  0.00  0.00    +0.510 C 
ATOM      3  N   LIG    1        1.857   1.539  -0.085  0.00  0.00    -0.660 N 
ATOM      4  H   LIG    1        1.917   2.504  -0.156  0.00  0.00    +0.420 HD
ENDROOT
BRANCH   3   5
ATOM      5  C   LIG    1        3.024   0.768   0.004  0.00  0.00    +0.160 A 
ATOM      6  C   LIG    1        3.074  -0.487  -0.583  0.00  0.00    +0.060 A 
ATOM      7  C   LIG    1        4.231  -1.247  -0.500  0.00  0.00    +0.080 A 
ATOM      8  C   LIG    1        5.337  -0.753   0.181  0.00  0.00    +0.050 A 
ATOM      9  O   LIG    1        6.483  -1.483   0.270  0.00  0.00    -0.300 OA
ATOM     10  C   LIG    1        6.378  -2.883  -0.015  0.00  0.00    +0.230 C 
ATOM     11  C   LIG    1        5.558  -3.051  -1.300  0.00  0.00    +0.230 C 
ATOM     12  C   LIG    1        5.282   0.500   0.773  0.00  0.00    +0.060 A 
ATOM     13  O   LIG    1        4.264  -2.477  -1.084  0.00  0.00    -0.300 OA
ATOM     14  C   LIG    1        4.130   1.259   0.686  0.00  0.00    -0.060 A 
ATOM     15 CL   LIG    1        4.066   2.827   1.430  0.00  0.00    -0.050 Cl
ENDBRANCH   3   5
BRANCH   2  16
ATOM     16  C   LIG    1       -0.606   1.770  -0.077  0.00  0.00    +0.310 C 
BRANCH  16  17
ATOM     17  N   LIG    1       -1.776   0.889  -0.067  0.00  0.00    -0.730 N 
ATOM     18  H   LIG    1       -1.658  -0.074  -0.059  0.00  0.00    +0.420 HD
BRANCH  17  19
ATOM     19  C   LIG    1       -3.063   1.435  -0.070  0.00  0.00    +0.230 A 
ATOM     20  C   LIG    1       -3.236   2.807  -0.180  0.00  0.00    -0.060 A 
ATOM     21  C   LIG    1       -4.510   3.344  -0.187  0.00  0.00    +0.070 A 
ATOM     22  C   LIG    1       -5.613   2.519  -0.073  0.00  0.00    -0.030 A 
ATOM     23  C   LIG    1       -5.450   1.151   0.042  0.00  0.00    +0.060 A 
ATOM     24  C   LIG    1       -4.176   0.603   0.045  0.00  0.00    +0.060 A 
BRANCH  24  25
ATOM     25  N   LIG    1       -4.008  -0.785   0.162  0.00  0.00    -0.320 N 
ATOM     26  C   LIG    1       -4.588  -1.582   1.087  0.00  0.00    +0.230 A 
ATOM     27  C   LIG    1       -4.172  -2.849   0.860  0.00  0.00    -0.120 A 
ATOM     28  C   LIG    1       -3.309  -2.828  -0.241  0.00  0.00    +0.240 A 
ATOM     29  N   LIG    1       -3.214  -1.592  -0.663  0.00  0.00    -0.300 NA
ENDBRANCH  24  25
ENDBRANCH  17  19
ENDBRANCH  16  17
ENDBRANCH   2  16
TORSDOF 5
