REMARK  Name = ZINCvU0000000CmP.0
REMARK                            x       y       z     vdW  Elec       q    Type
REMARK                         _______ _______ _______ _____ _____    ______ ____
ROOT
ATOM      1  C   LIG    1        3.682  -0.670  -0.014  0.00  0.00    -0.060 A 
ATOM      2  C   LIG    1        4.434   0.075   0.883  0.00  0.00    +0.020 A 
ATOM      3  C   LIG    1        4.326   1.474   0.877  0.00  0.00    +0.210 A 
ATOM      4  N   LIG    1        3.532   2.115   0.046  0.00  0.00    -0.450 NA
ATOM      5  C   LIG    1        2.773   1.479  -0.849  0.00  0.00    +0.140 A 
ATOM      6  C   LIG    1        1.933   2.191  -1.725  0.00  0.00    +0.050 A 
ATOM      7  C   LIG    1        1.172   1.514  -2.628  0.00  0.00    +0.040 A 
ATOM      8  C   LIG    1        1.209   0.124  -2.701  0.00  0.00    +0.020 A 
ATOM      9  C   LIG    1        2.010  -0.599  -1.868  0.00  0.00    +0.050 A 
ATOM     10  C   LIG    1        2.806   0.064  -0.928  0.00  0.00    -0.070 A 
ENDROOT
BRANCH   1  12
ATOM     11  O   LIG    1        2.749  -2.812   0.035  0.00  0.00    -0.520 OA
ATOM     12  C   LIG    1        3.762  -2.147  -0.045  0.00  0.00    +0.560 C 
ATOM     13  N   LIG    1        4.960  -2.754  -0.161  0.00  0.00    -0.600 N 
ATOM     14  C   LIG    1        6.200  -1.966  -0.177  0.00  0.00    +0.260 C 
ATOM     15  C   LIG    1        7.008  -2.335  -1.420  0.00  0.00    +0.020 C 
ATOM     16  C   LIG    1        7.224  -3.849  -1.455  0.00  0.00    +0.000 C 
ATOM     17  C   LIG    1        5.870  -4.558  -1.529  0.00  0.00    +0.020 C 
ATOM     18  C   LIG    1        5.050  -4.215  -0.281  0.00  0.00    +0.280 C 
BRANCH  16  19
ATOM     19  C   LIG    1        8.060  -4.217  -2.682  0.00  0.00    +0.070 C 
BRANCH  19  20
ATOM     20  C   LIG    1        9.437  -3.619  -2.550  0.00  0.00    -0.080 A 
ATOM     21  C   LIG    1        9.692  -2.356  -3.049  0.00  0.00    +0.000 A 
ATOM     22  C   LIG    1       10.954  -1.805  -2.924  0.00  0.00    +0.000 A 
ATOM     23  C   LIG    1       11.963  -2.522  -2.309  0.00  0.00    +0.000 A 
ATOM     24  C   LIG    1       11.709  -3.788  -1.815  0.00  0.00    +0.000 A 
ATOM     25  C   LIG    1       10.446  -4.337  -1.936  0.00  0.00    +0.000 A 
ENDBRANCH  19  20
ENDBRANCH  16  19
ENDBRANCH   1  12
BRANCH   3  26
ATOM     26  C   LIG    1        5.136   2.258   1.841  0.00  0.00    -0.110 A 
ATOM     27  C   LIG    1        5.056   3.654   1.866  0.00  0.00    +0.120 A 
ATOM     28  C   LIG    1        5.832   4.339   2.784  0.00  0.00    -0.040 A 
ATOM     29  C   LIG    1        6.654   3.629   3.640  0.00  0.00    +0.270 A 
ATOM     30  N   LIG    1        6.708   2.312   3.593  0.00  0.00    -0.480 NA
ATOM     31  C   LIG    1        5.985   1.616   2.740  0.00  0.00    +0.280 A 
ENDBRANCH   3  26
TORSDOF 4
