REMARK  Name = ZINCpk00001AZiIR.0
REMARK                            x       y       z     vdW  Elec       q    Type
REMARK                         _______ _______ _______ _____ _____    ______ ____
ROOT
ATOM      1  C   LIG    1        1.817  -1.851  -0.026  0.00  0.00    +0.330 C 
ENDROOT
BRANCH   1   2
ATOM      2  C   LIG    1        1.337  -0.423  -0.013  0.00  0.00    -0.240 A 
ATOM      3  C   LIG    1        2.119   0.681  -0.015  0.00  0.00    +0.240 A 
ATOM      4  N   LIG    1        1.309   1.760  -0.001  0.00  0.00    -0.470 N 
ATOM      5  H   LIG    1        1.593   2.687   0.001  0.00  0.00    +0.440 HD
ATOM      6  N   LIG    1       -0.016   1.304   0.009  0.00  0.00    -0.290 NA
ATOM      7  C   LIG    1        0.002  -0.004   0.002  0.00  0.00    +0.290 A 
ENDBRANCH   1   2
BRANCH   1   8
ATOM      8  C   LIG    1        1.730  -2.398  -1.427  0.00  0.00    +0.180 A 
ATOM      9  N   LIG    1        0.642  -2.769  -2.056  0.00  0.00    -0.270 NA
ATOM     10  N   LIG    1        0.980  -3.176  -3.231  0.00  0.00    -0.070 NA
ATOM     11  N   LIG    1        2.257  -3.081  -3.365  0.00  0.00    -0.090 NA
ATOM     12  N   LIG    1        2.756  -2.606  -2.274  0.00  0.00    -0.300 N 
BRANCH  12  13
ATOM     13  C   LIG    1        4.172  -2.342  -2.007  0.00  0.00    +0.370 C 
BRANCH  13  14
ATOM     14  C   LIG    1        4.817  -3.590  -1.401  0.00  0.00    -0.070 C 
ATOM     15  C   LIG    1        5.358  -3.482   0.027  0.00  0.00    +0.020 C 
ATOM     16  C   LIG    1        6.327  -3.555  -1.155  0.00  0.00    +0.050 C 
ENDBRANCH  13  14
ENDBRANCH  12  13
ENDBRANCH   1   8
BRANCH   1  17
ATOM     17  N   LIG    1        0.977  -2.659   0.868  0.00  0.00    -0.660 NA
ATOM     18  H   LIG    1        0.935  -3.617   0.557  0.00  0.00    +0.350 HD
BRANCH  17  19
ATOM     19  C   LIG    1        1.454  -2.577   2.256  0.00  0.00    +0.170 C 
BRANCH  19  20
ATOM     20  C   LIG    1        0.556  -3.429   3.155  0.00  0.00    +0.110 C 
BRANCH  20  21
ATOM     21  C   LIG    1        1.052  -3.343   4.599  0.00  0.00    +0.040 C 
ATOM     22  N   LIG    1        1.851  -2.182   4.999  0.00  0.00    -0.120 NA
ATOM     23  N   LIG    1        2.493  -3.231   4.840  0.00  0.00    -0.130 NA
BRANCH  21  24
ATOM     24  C   LIG    1        0.185  -4.035   5.654  0.00  0.00    +0.120 C 
BRANCH  24  25
ATOM     25  C   LIG    1        0.821  -3.854   7.034  0.00  0.00    +0.160 C 
BRANCH  25  27
ATOM     26  C   LIG    1       -0.678  -5.050   8.858  0.00  0.00    +0.030 C 
ATOM     27  C   LIG    1       -0.013  -4.519   8.049  0.00  0.00    -0.190 C 
ENDBRANCH  25  27
ENDBRANCH  24  25
ENDBRANCH  21  24
ENDBRANCH  20  21
ENDBRANCH  19  20
ENDBRANCH  17  19
ENDBRANCH   1  17
TORSDOF 11
