REMARK  Name = ZINCpk00000y6tL0.0
REMARK                            x       y       z     vdW  Elec       q    Type
REMARK                         _______ _______ _______ _____ _____    ______ ____
ROOT
ATOM      1  C   LIG    1       -2.682   1.701   2.538  0.00  0.00    +0.300 C 
ENDROOT
BRANCH   1   3
ATOM      2  C   LIG    1       -2.812   1.636   0.042  0.00  0.00    +0.220 C 
ATOM      3  C   LIG    1       -2.049   1.128   1.269  0.00  0.00    +0.160 C 
ATOM      4  O   LIG    1       -0.684   1.548   1.183  0.00  0.00    -0.370 OA
ATOM      5  C   LIG    1       -0.013   1.086   0.008  0.00  0.00    +0.230 C 
ATOM      6  C   LIG    1       -0.755   1.594  -1.231  0.00  0.00    +0.150 C 
ATOM      7  N   LIG    1       -2.154   1.144  -1.177  0.00  0.00    -0.540 NA
ATOM      8  C   LIG    1       -2.888   1.563  -2.377  0.00  0.00    +0.210 C 
BRANCH   2  14
ATOM      9  C   LIG    1       -3.952  -0.933  -1.349  0.00  0.00    +0.330 C 
ATOM     10  N   LIG    1       -4.716   0.006  -0.525  0.00  0.00    -0.440 N 
ATOM     11  C   LIG    1       -6.031  -0.074  -0.227  0.00  0.00    +0.390 A 
ATOM     12  N   LIG    1       -6.352   0.940   0.528  0.00  0.00    -0.490 NA
ATOM     13  C   LIG    1       -5.264   1.694   0.742  0.00  0.00    +0.160 A 
ATOM     14  C   LIG    1       -4.231   1.131   0.087  0.00  0.00    -0.030 A 
ENDBRANCH   2  14
ENDBRANCH   1   3
BRANCH   1  15
ATOM     15  N   LIG    1       -1.952   1.214   3.711  0.00  0.00    -0.730 N 
ATOM     16  H   LIG    1       -1.193   0.620   3.598  0.00  0.00    +0.400 HD
ATOM     17  C   LIG    1       -2.334   1.591   4.947  0.00  0.00    +0.590 C 
ATOM     18  O   LIG    1       -3.286   2.336   5.089  0.00  0.00    -0.520 OA
BRANCH  17  19
ATOM     19  C   LIG    1       -1.602   1.103   6.121  0.00  0.00    -0.060 A 
ATOM     20  C   LIG    1       -1.880   1.405   7.438  0.00  0.00    -0.040 A 
ATOM     21  C   LIG    1       -0.939   0.730   8.221  0.00  0.00    -0.070 A 
ATOM     22  C   LIG    1       -0.121   0.043   7.388  0.00  0.00    +0.200 A 
ATOM     23  N   LIG    1       -0.517   0.256   6.110  0.00  0.00    -0.540 N 
ATOM     24  H   LIG    1       -0.103  -0.122   5.319  0.00  0.00    +0.420 HD
BRANCH  20  25
ATOM     25  C   LIG    1       -2.989   2.295   7.938  0.00  0.00    +0.030 C 
ATOM     26  C   LIG    1       -2.989   2.655   9.425  0.00  0.00    +0.010 C 
ATOM     27  C   LIG    1       -4.027   1.673   8.874  0.00  0.00    +0.020 C 
ENDBRANCH  20  25
ENDBRANCH  17  19
ENDBRANCH   1  15
TORSDOF 5
