REMARK  Name = ZINCqH00000519bb.0
REMARK                            x       y       z     vdW  Elec       q    Type
REMARK                         _______ _______ _______ _____ _____    ______ ____
ROOT
ATOM      1  O   LIG    1        3.427  -7.361  -0.465  0.00  0.00    -0.500 OA
ATOM      2  C   LIG    1        3.393  -6.752  -1.508  0.00  0.00    +0.470 C 
ENDROOT
BRANCH   2   3
ATOM      3  O   LIG    1        3.409  -7.417  -2.674  0.00  0.00    -0.350 OA
BRANCH   3   4
ATOM      4  C   LIG    1        3.468  -8.866  -2.606  0.00  0.00    +0.350 C 
BRANCH   4   5
ATOM      5  C   LIG    1        3.478  -9.435  -4.001  0.00  0.00    +0.020 A 
ATOM      6  N   LIG    1        3.526 -10.696  -4.327  0.00  0.00    -0.340 NA
ATOM      7  O   LIG    1        3.521 -10.854  -5.526  0.00  0.00    +0.130 OA
ATOM      8  C   LIG    1        3.467  -9.677  -6.177  0.00  0.00    +0.050 A 
ATOM      9  C   LIG    1        3.432  -8.708  -5.206  0.00  0.00    +0.000 A 
BRANCH   8  10
ATOM     10  C   LIG    1        3.444  -9.472  -7.632  0.00  0.00    +0.030 A 
ATOM     11  C   LIG    1        3.475 -10.452  -8.580  0.00  0.00    +0.010 A 
ATOM     12  C   LIG    1        3.436  -9.808  -9.830  0.00  0.00    -0.050 A 
ATOM     13  C   LIG    1        3.385  -8.481  -9.591  0.00  0.00    +0.200 A 
ATOM     14  O   LIG    1        3.385  -8.282  -8.263  0.00  0.00    -0.160 OA
ENDBRANCH   8  10
ENDBRANCH   4   5
ENDBRANCH   3   4
ENDBRANCH   2   3
BRANCH   2  15
ATOM     15  C   LIG    1        3.332  -5.246  -1.500  0.00  0.00    +0.130 C 
BRANCH  15  16
ATOM     16  C   LIG    1        3.325  -4.744  -0.055  0.00  0.00    +0.220 C 
BRANCH  16  17
ATOM     17  C   LIG    1        3.264  -3.238  -0.047  0.00  0.00    +0.190 A 
ATOM     18  N   LIG    1        2.180  -2.504  -0.028  0.00  0.00    -0.470 NA
ATOM     19  C   LIG    1        2.609  -1.220  -0.030  0.00  0.00    +0.240 A 
ATOM     20  N   LIG    1        3.919  -1.252  -0.043  0.00  0.00    -0.360 NA
ATOM     21  O   LIG    1        4.307  -2.401  -0.053  0.00  0.00    +0.090 OA
BRANCH  19  22
ATOM     22  C   LIG    1        1.761  -0.011  -0.015  0.00  0.00    -0.140 A 
ATOM     23  C   LIG    1        2.215   1.259  -0.012  0.00  0.00    +0.070 A 
ATOM     24  C   LIG    1        1.230   2.223   0.002  0.00  0.00    +0.010 A 
ATOM     25  C   LIG    1       -0.022   1.754   0.012  0.00  0.00    -0.030 A 
ATOM     26  S   LIG    1        0.002  -0.004   0.002  0.00  0.00    +0.190 S 
ENDBRANCH  19  22
ENDBRANCH  16  17
ENDBRANCH  15  16
ENDBRANCH   2  15
TORSDOF 8
