REMARK  Name = ZINCtV000002z3e6.0
REMARK                            x       y       z     vdW  Elec       q    Type
REMARK                         _______ _______ _______ _____ _____    ______ ____
ROOT
ATOM      1  N   LIG    1        0.942   6.931   2.387  0.00  0.00    -0.460 N 
ATOM      2  C   LIG    1        1.192   5.936   1.484  0.00  0.00    +0.150 A 
ATOM      3  N   LIG    1        1.321   6.504   0.306  0.00  0.00    -0.290 NA
ATOM      4  N   LIG    1        1.174   7.776   0.410  0.00  0.00    -0.270 NA
ATOM      5  C   LIG    1        0.943   8.100   1.661  0.00  0.00    +0.230 A 
ENDROOT
BRANCH   5   6
ATOM      6  C   LIG    1        0.720   9.462   2.189  0.00  0.00    -0.030 A 
ATOM      7  C   LIG    1        0.356  10.498   1.327  0.00  0.00    +0.070 A 
ATOM      8  C   LIG    1        0.143  11.765   1.827  0.00  0.00    +0.020 A 
ATOM      9  C   LIG    1        0.302  12.014   3.179  0.00  0.00    -0.050 A 
ATOM     10  C   LIG    1        0.668  10.994   4.039  0.00  0.00    +0.020 A 
ATOM     11  C   LIG    1        0.878   9.720   3.552  0.00  0.00    +0.010 A 
BRANCH   9  12
ATOM     12  C   LIG    1        0.075  13.403   3.718  0.00  0.00    -0.030 C 
ATOM     13  C   LIG    1       -1.049  13.370   4.756  0.00  0.00    +0.040 C 
ATOM     14  C   LIG    1       -0.317  14.337   2.571  0.00  0.00    +0.030 C 
ATOM     15  C   LIG    1        1.360  13.913   4.374  0.00  0.00    +0.040 C 
ENDBRANCH   9  12
ENDBRANCH   5   6
BRANCH   1  17
ATOM     16  C   LIG    1        2.068   6.786   4.553  0.00  0.00    +0.050 C 
ATOM     17  C   LIG    1        0.721   6.784   3.827  0.00  0.00    +0.300 C 
ENDBRANCH   1  17
BRANCH   2  18
ATOM     18  S   LIG    1        1.313   4.214   1.834  0.00  0.00    +0.010 S 
BRANCH  18  19
ATOM     19  C   LIG    1        1.642   3.578   0.172  0.00  0.00    +0.160 C 
BRANCH  19  20
ATOM     20  C   LIG    1        1.787   2.079   0.227  0.00  0.00    -0.080 A 
ATOM     21  C   LIG    1        3.030   1.512   0.438  0.00  0.00    +0.070 A 
ATOM     22  C   LIG    1        3.162   0.137   0.489  0.00  0.00    +0.020 A 
ATOM     23  C   LIG    1        2.053  -0.671   0.328  0.00  0.00    +0.080 A 
ATOM     24  C   LIG    1        0.810  -0.104   0.117  0.00  0.00    -0.180 A 
ATOM     25  C   LIG    1        0.677   1.271   0.066  0.00  0.00    +0.090 A 
BRANCH  24  26
ATOM     26  C   LIG    1       -0.401  -0.985  -0.059  0.00  0.00    +0.510 C 
ATOM     27  F   LIG    1       -1.536  -0.317   0.412  0.00  0.00    -0.180 F 
ATOM     28  F   LIG    1       -0.223  -2.170   0.663  0.00  0.00    -0.180 F 
ATOM     29  F   LIG    1       -0.566  -1.285  -1.416  0.00  0.00    -0.170 F 
ENDBRANCH  24  26
ENDBRANCH  19  20
ENDBRANCH  18  19
ENDBRANCH   2  18
TORSDOF 7
