REMARK  Name = ZINCpe000000XTRB.0
REMARK                            x       y       z     vdW  Elec       q    Type
REMARK                         _______ _______ _______ _____ _____    ______ ____
ROOT
ATOM      1  C   LIG    1        1.144   1.589   0.045  0.00  0.00    +0.290 A 
ATOM      2  N   LIG    1       -0.038   1.094   0.256  0.00  0.00    -0.310 NA
ATOM      3  O   LIG    1       -0.032  -0.114   0.190  0.00  0.00    +0.000 OA
ATOM      4  C   LIG    1        1.200  -0.573  -0.083  0.00  0.00    +0.570 A 
ATOM      5  O   LIG    1        1.534  -1.735  -0.213  0.00  0.00    -0.470 OA
ATOM      6  N   LIG    1        1.997   0.518  -0.184  0.00  0.00    -0.540 N 
ENDROOT
BRANCH   1  13
ATOM      7  C   LIG    1        3.163   2.545   1.883  0.00  0.00    +0.110 C 
ATOM      8  C   LIG    1        2.485   3.495   0.930  0.00  0.00    -0.060 A 
ATOM      9  C   LIG    1        2.827   4.831   0.925  0.00  0.00    +0.010 A 
ATOM     10  C   LIG    1        2.201   5.706   0.054  0.00  0.00    +0.040 A 
ATOM     11  C   LIG    1        1.232   5.245  -0.819  0.00  0.00    +0.010 A 
ATOM     12  C   LIG    1        0.885   3.909  -0.827  0.00  0.00    +0.070 A 
ATOM     13  C   LIG    1        1.513   3.024   0.048  0.00  0.00    -0.040 A 
ENDBRANCH   1  13
BRANCH   6  14
ATOM     14  C   LIG    1        3.433   0.558  -0.471  0.00  0.00    +0.460 C 
BRANCH  14  15
ATOM     15  C   LIG    1        3.649   0.505  -1.961  0.00  0.00    +0.410 A 
ATOM     16  N   LIG    1        2.607   0.436  -2.737  0.00  0.00    -0.510 NA
ATOM     17  C   LIG    1        2.721   0.385  -4.074  0.00  0.00    +0.330 A 
ATOM     18  C   LIG    1        3.999   0.407  -4.653  0.00  0.00    -0.340 A 
ATOM     19  C   LIG    1        5.158   0.486  -3.764  0.00  0.00    +0.580 A 
ATOM     20  O   LIG    1        6.293   0.509  -4.205  0.00  0.00    -0.510 OA
ATOM     21  C   LIG    1        3.827   0.343  -6.048  0.00  0.00    +0.330 A 
ATOM     22  N   LIG    1        2.548   0.286  -6.301  0.00  0.00    -0.260 NA
ATOM     23  N   LIG    1        1.832   0.310  -5.098  0.00  0.00    -0.350 N 
ATOM     24  C   LIG    1        0.374   0.262  -4.966  0.00  0.00    +0.370 C 
ATOM     25  N   LIG    1        4.921   0.537  -2.432  0.00  0.00    -0.640 N 
ATOM     26  H   LIG    1        5.665   0.594  -1.811  0.00  0.00    +0.420 HD
ENDBRANCH  14  15
ENDBRANCH   6  14
TORSDOF 3
