REMARK  Name = ZINC9p0000002hYV.0
REMARK                            x       y       z     vdW  Elec       q    Type
REMARK                         _______ _______ _______ _____ _____    ______ ____
ROOT
ATOM      1  C   LIG    1       -0.759   2.033  -1.229  0.00  0.00    +0.040 C 
ATOM      2  C   LIG    1       -0.019   1.526   0.010  0.00  0.00    -0.080 C 
ATOM      3  C   LIG    1        0.002  -0.004   0.002  0.00  0.00    +0.060 C 
ATOM      4  C   LIG    1        0.718  -0.497  -1.257  0.00  0.00    +0.020 C 
ATOM      5  C   LIG    1        2.154   0.032  -1.268  0.00  0.00    +0.040 C 
ATOM      6  C   LIG    1        2.133   1.562  -1.259  0.00  0.00    +0.040 C 
ATOM      7  C   LIG    1       -0.735   2.019   1.269  0.00  0.00    +0.040 C 
ATOM      8  C   LIG    1        1.417   2.055  -0.000  0.00  0.00    +0.170 C 
ENDROOT
BRANCH   8   9
ATOM      9  N   LIG    1        1.397   3.524   0.008  0.00  0.00    -0.640 N 
ATOM     10  H   LIG    1        0.909   3.858  -0.810  0.00  0.00    +0.430 HD
ATOM     11  H   LIG    1        2.343   3.873   0.001  0.00  0.00    +0.440 HD
ATOM     12  H   LIG    1        0.924   3.850   0.838  0.00  0.00    +0.430 HD
ENDBRANCH   8   9
TORSDOF 1
