REMARK  Name = ZINCtV00000L6jKz.0
REMARK                            x       y       z     vdW  Elec       q    Type
REMARK                         _______ _______ _______ _____ _____    ______ ____
ROOT
ATOM      1  P   LIG    1        0.152   3.856   2.850  0.00  0.00    +2.560 P 
ATOM      2  O   LIG    1       -0.172   3.395   4.219  0.00  0.00    -1.030 OA
ENDROOT
BRANCH   1   3
ATOM      3  C   LIG    1        1.878   3.449   2.467  0.00  0.00    -0.740 A 
ATOM      4  C   LIG    1        2.183   2.262   1.829  0.00  0.00    +0.050 A 
ATOM      5  C   LIG    1        3.498   1.954   1.533  0.00  0.00    +0.000 A 
ATOM      6  C   LIG    1        4.508   2.829   1.885  0.00  0.00    +0.050 A 
ATOM      7  C   LIG    1        4.204   4.015   2.528  0.00  0.00    +0.000 A 
ATOM      8  C   LIG    1        2.889   4.325   2.819  0.00  0.00    +0.070 A 
ENDBRANCH   1   3
BRANCH   1   9
ATOM      9  N   LIG    1       -0.061   5.479   2.756  0.00  0.00    -1.100 N 
ATOM     10  H   LIG    1       -0.376   5.973   3.529  0.00  0.00    +0.430 HD
BRANCH   9  11
ATOM     11  C   LIG    1        0.211   6.153   1.559  0.00  0.00    +0.120 A 
ATOM     12  C   LIG    1        0.819   5.480   0.506  0.00  0.00    -0.030 A 
ATOM     13  C   LIG    1        1.083   6.143  -0.676  0.00  0.00    -0.020 A 
ATOM     14  C   LIG    1        0.750   7.485  -0.809  0.00  0.00    +0.190 A 
ATOM     15  C   LIG    1        0.148   8.159   0.245  0.00  0.00    -0.030 A 
ATOM     16  C   LIG    1       -0.121   7.494   1.426  0.00  0.00    +0.020 A 
BRANCH  14  17
ATOM     17  N   LIG    1        1.023   8.158  -2.005  0.00  0.00    -0.640 N 
ATOM     18  C   LIG    1        1.550   7.422  -3.157  0.00  0.00    +0.280 C 
ATOM     19  C   LIG    1        0.781   9.600  -2.106  0.00  0.00    +0.280 C 
ENDBRANCH  14  17
ENDBRANCH   9  11
ENDBRANCH   1   9
BRANCH   1  20
ATOM     20  O   LIG    1       -0.818   3.125   1.794  0.00  0.00    -0.730 OA
BRANCH  20  27
ATOM     21  C   LIG    1       -2.282   1.207   1.934  0.00  0.00    +0.000 C 
ATOM     22  C   LIG    1       -3.270   1.863   0.967  0.00  0.00    +0.040 C 
ATOM     23  C   LIG    1       -2.894   1.498  -0.470  0.00  0.00    +0.000 C 
ATOM     24  C   LIG    1       -1.479   1.997  -0.770  0.00  0.00    -0.020 C 
ATOM     25  C   LIG    1       -0.492   1.341   0.197  0.00  0.00    +0.010 C 
ATOM     26  C   LIG    1       -1.427   3.516  -0.600  0.00  0.00    +0.020 C 
ATOM     27  C   LIG    1       -0.867   1.706   1.634  0.00  0.00    +0.220 C 
BRANCH  21  29
ATOM     28  C   LIG    1       -4.072   1.073   3.672  0.00  0.00    +0.010 C 
ATOM     29  C   LIG    1       -2.657   1.572   3.372  0.00  0.00    -0.010 C 
ATOM     30  C   LIG    1       -1.670   0.916   4.339  0.00  0.00    +0.020 C 
ENDBRANCH  21  29
ENDBRANCH  20  27
ENDBRANCH   1  20
TORSDOF 7
