REMARK  Name = ZINCrH000004uMya.0
REMARK                            x       y       z     vdW  Elec       q    Type
REMARK                         _______ _______ _______ _____ _____    ______ ____
ROOT
ATOM      1  C   LIG    1       -0.536   0.348  -3.246  0.00  0.00    +0.280 C 
ENDROOT
BRANCH   1   2
ATOM      2  C   LIG    1        0.118   0.365  -4.604  0.00  0.00    -0.100 A 
ATOM      3  C   LIG    1        1.463   0.073  -4.726  0.00  0.00    +0.050 A 
ATOM      4  C   LIG    1        2.063   0.088  -5.971  0.00  0.00    +0.030 A 
ATOM      5  C   LIG    1        1.318   0.395  -7.094  0.00  0.00    +0.070 A 
ATOM      6  C   LIG    1       -0.028   0.687  -6.972  0.00  0.00    -0.170 A 
ATOM      7  C   LIG    1       -0.629   0.667  -5.727  0.00  0.00    +0.090 A 
BRANCH   6   8
ATOM      8  C   LIG    1       -0.841   1.021  -8.196  0.00  0.00    +0.510 C 
ATOM      9  F   LIG    1       -1.377   2.306  -8.063  0.00  0.00    -0.170 F 
ATOM     10  F   LIG    1       -1.881   0.094  -8.332  0.00  0.00    -0.170 F 
ATOM     11  F   LIG    1       -0.021   0.972  -9.328  0.00  0.00    -0.180 F 
ENDBRANCH   6   8
ENDBRANCH   1   2
BRANCH   1  14
ATOM     12  O   LIG    1       -1.860  -0.852  -1.226  0.00  0.00    -0.500 OA
ATOM     13  C   LIG    1       -0.762  -1.312  -1.477  0.00  0.00    +0.590 C 
ATOM     14  N   LIG    1       -0.020  -0.782  -2.469  0.00  0.00    -0.730 N 
ATOM     15  H   LIG    1        0.855  -1.149  -2.669  0.00  0.00    +0.390 HD
BRANCH  13  16
ATOM     16  C   LIG    1       -0.245  -2.444  -0.699  0.00  0.00    -0.050 A 
ATOM     17  C   LIG    1       -0.892  -3.082   0.338  0.00  0.00    +0.070 A 
ATOM     18  C   LIG    1       -0.042  -4.098   0.789  0.00  0.00    -0.130 A 
ATOM     19  C   LIG    1        1.084  -4.062   0.035  0.00  0.00    +0.230 A 
ATOM     20 CL   LIG    1       -0.371  -5.206   2.084  0.00  0.00    -0.040 Cl
ATOM     21  N   LIG    1        0.970  -3.065  -0.876  0.00  0.00    -0.530 N 
ATOM     22  H   LIG    1        1.635  -2.827  -1.541  0.00  0.00    +0.420 HD
ENDBRANCH  13  16
ENDBRANCH   1  14
BRANCH   1  23
ATOM     23  C   LIG    1       -0.225   1.655  -2.514  0.00  0.00    +0.300 C 
BRANCH  23  24
ATOM     24  N   LIG    1       -0.759   1.590  -1.151  0.00  0.00    -0.610 N 
ATOM     25  C   LIG    1       -0.013   1.086   0.008  0.00  0.00    +0.240 C 
ATOM     26  C   LIG    1       -0.775   1.603   1.248  0.00  0.00    +0.040 C 
ATOM     27  C   LIG    1       -2.205   1.785   0.683  0.00  0.00    +0.060 C 
ATOM     28  C   LIG    1       -1.996   1.984  -0.801  0.00  0.00    +0.530 C 
ATOM     29  O   LIG    1       -2.823   2.434  -1.565  0.00  0.00    -0.530 OA
ENDBRANCH  23  24
ENDBRANCH   1  23
TORSDOF 6
