REMARK  Name = ZINCrD00000l6zOL.0
REMARK                            x       y       z     vdW  Elec       q    Type
REMARK                         _______ _______ _______ _____ _____    ______ ____
ROOT
ATOM      1  C   LIG    1       -0.005   0.030   0.004  0.00  0.00    +0.130 C 
ATOM      2  N   LIG    1       -0.019   1.503   0.002  0.00  0.00    -0.720 N 
ATOM      3  H   LIG    1       -0.802   2.076   0.004  0.00  0.00    +0.440 HD
ATOM      4  C   LIG    1        1.267   1.900  -0.010  0.00  0.00    +0.710 C 
ATOM      5  N   LIG    1        2.120   0.870  -0.015  0.00  0.00    -0.560 N 
ATOM      6  O   LIG    1        1.614   3.065  -0.014  0.00  0.00    -0.540 OA
ATOM      7  C   LIG    1       -0.673  -0.512   1.269  0.00  0.00    +0.090 C 
ATOM      8  C   LIG    1        1.472  -0.312  -0.007  0.00  0.00    +0.540 C 
ATOM      9  O   LIG    1        1.967  -1.419  -0.009  0.00  0.00    -0.460 OA
ENDROOT
BRANCH   1  10
ATOM     10  C   LIG    1       -0.697  -0.517  -1.245  0.00  0.00    +0.060 C 
BRANCH  10  11
ATOM     11  C   LIG    1       -2.122   0.036  -1.322  0.00  0.00    +0.010 C 
BRANCH  11  12
ATOM     12  C   LIG    1       -2.815  -0.510  -2.572  0.00  0.00    +0.000 C 
BRANCH  12  13
ATOM     13  C   LIG    1       -4.239   0.043  -2.649  0.00  0.00    +0.000 C 
BRANCH  13  14
ATOM     14  C   LIG    1       -4.932  -0.504  -3.899  0.00  0.00    +0.000 C 
BRANCH  14  16
ATOM     15  C   LIG    1       -7.049  -0.498  -5.225  0.00  0.00    +0.000 C 
ATOM     16  C   LIG    1       -6.356   0.049  -3.976  0.00  0.00    -0.010 C 
ENDBRANCH  14  16
ENDBRANCH  13  14
ENDBRANCH  12  13
ENDBRANCH  11  12
ENDBRANCH  10  11
ENDBRANCH   1  10
BRANCH   5  17
ATOM     17  C   LIG    1        3.578   1.009  -0.028  0.00  0.00    +0.360 C 
BRANCH  17  18
ATOM     18  C   LIG    1        4.066   1.054  -1.453  0.00  0.00    +0.500 C 
ATOM     19  N   LIG    1        5.383   1.179  -1.711  0.00  0.00    -0.660 N 
ATOM     20  H   LIG    1        6.010   1.305  -0.982  0.00  0.00    +0.420 HD
ATOM     21  O   LIG    1        3.273   0.978  -2.368  0.00  0.00    -0.510 OA
BRANCH  19  22
ATOM     22  C   LIG    1        5.846   1.128  -3.033  0.00  0.00    +0.110 A 
ATOM     23  C   LIG    1        5.075   1.651  -4.060  0.00  0.00    +0.070 A 
ATOM     24  C   LIG    1        5.535   1.599  -5.363  0.00  0.00    -0.010 A 
ATOM     25  C   LIG    1        6.761   1.027  -5.645  0.00  0.00    +0.040 A 
ATOM     26  C   LIG    1        7.535   0.503  -4.626  0.00  0.00    -0.060 A 
ATOM     27  C   LIG    1        7.084   0.555  -3.317  0.00  0.00    +0.110 A 
BRANCH  27  28
ATOM     28  O   LIG    1        7.846   0.046  -2.313  0.00  0.00    -0.320 OA
ATOM     29  C   LIG    1        9.104  -0.525  -2.679  0.00  0.00    +0.250 C 
ENDBRANCH  27  28
ENDBRANCH  19  22
ENDBRANCH  17  18
ENDBRANCH   5  17
TORSDOF 10
