REMARK  Name = ZINCpk000000oGpC.0
REMARK                            x       y       z     vdW  Elec       q    Type
REMARK                         _______ _______ _______ _____ _____    ______ ____
ROOT
ATOM      1  C   LIG    1       -4.151   0.636   1.488  0.00  0.00    +0.040 C 
ENDROOT
BRANCH   1   3
ATOM      2  N   LIG    1       -6.321   0.601   2.675  0.00  0.00    -0.600 N 
ATOM      3  C   LIG    1       -5.658   0.616   1.502  0.00  0.00    +0.530 C 
ATOM      4  O   LIG    1       -6.274   0.613   0.457  0.00  0.00    -0.540 OA
BRANCH   2   6
ATOM      5  C   LIG    1       -5.336   2.047   4.384  0.00  0.00    +0.020 C 
ATOM      6  C   LIG    1       -5.576   0.604   3.937  0.00  0.00    +0.260 C 
ENDBRANCH   2   6
BRANCH   2   7
ATOM      7  C   LIG    1       -7.785   0.581   2.689  0.00  0.00    +0.370 C 
BRANCH   7   8
ATOM      8  C   LIG    1       -8.268  -0.847   2.686  0.00  0.00    -0.270 A 
ATOM      9  C   LIG    1       -8.539  -1.593   1.591  0.00  0.00    +0.260 A 
ATOM     10  N   LIG    1       -8.941  -2.811   2.011  0.00  0.00    -0.380 N 
ATOM     11  N   LIG    1       -8.925  -2.810   3.412  0.00  0.00    -0.300 NA
ATOM     12  C   LIG    1       -9.331  -3.934   1.155  0.00  0.00    +0.360 C 
ATOM     13  C   LIG    1       -8.522  -1.632   3.815  0.00  0.00    +0.240 A 
ENDBRANCH   7   8
ENDBRANCH   2   7
ENDBRANCH   1   3
BRANCH   1  14
ATOM     14  C   LIG    1       -3.655   0.651   0.040  0.00  0.00    +0.350 C 
BRANCH  14  15
ATOM     15  N   LIG    1       -2.190   0.671   0.027  0.00  0.00    -0.580 N 
ATOM     16  C   LIG    1       -1.444   1.790   0.031  0.00  0.00    +0.570 C 
ATOM     17  C   LIG    1       -0.017   1.406   0.010  0.00  0.00    -0.140 A 
ATOM     18  C   LIG    1        1.175   2.111   0.002  0.00  0.00    +0.100 A 
ATOM     19  C   LIG    1        2.380   1.424  -0.013  0.00  0.00    +0.050 A 
ATOM     20  C   LIG    1        2.399   0.043  -0.021  0.00  0.00    +0.050 A 
ATOM     21  C   LIG    1        1.213  -0.676  -0.013  0.00  0.00    +0.100 A 
ATOM     22  C   LIG    1        0.002  -0.004   0.002  0.00  0.00    -0.140 A 
ATOM     23  O   LIG    1       -1.871   2.927   0.044  0.00  0.00    -0.460 OA
ATOM     24  C   LIG    1       -1.414  -0.428   0.013  0.00  0.00    +0.570 C 
ATOM     25  O   LIG    1       -1.810  -1.576   0.011  0.00  0.00    -0.460 OA
ENDBRANCH  14  15
ENDBRANCH   1  14
TORSDOF 6
