REMARK  Name = ZINCrH000004vB87.0
REMARK                            x       y       z     vdW  Elec       q    Type
REMARK                         _______ _______ _______ _____ _____    ______ ____
ROOT
ATOM      1  O   LIG    1        0.170  -1.110  -2.483  0.00  0.00    -0.500 OA
ATOM      2  C   LIG    1       -0.953  -1.006  -2.028  0.00  0.00    +0.570 C 
ATOM      3  N   LIG    1       -1.134  -0.519  -0.785  0.00  0.00    -0.600 N 
ATOM      4  C   LIG    1       -2.473  -0.472  -0.178  0.00  0.00    +0.280 C 
ATOM      5  C   LIG    1       -2.507  -1.393   1.046  0.00  0.00    +0.290 C 
ATOM      6  N   LIG    1       -1.312  -1.157   1.862  0.00  0.00    -0.450 N 
ATOM      7  C   LIG    1       -1.133  -1.496   3.168  0.00  0.00    +0.160 A 
ATOM      8  C   LIG    1        0.106  -1.113   3.539  0.00  0.00    -0.060 A 
ATOM      9  C   LIG    1        0.716  -0.510   2.420  0.00  0.00    -0.030 A 
ATOM     10  C   LIG    1       -0.172  -0.547   1.414  0.00  0.00    +0.000 A 
ATOM     11  C   LIG    1        0.004  -0.019   0.009  0.00  0.00    +0.390 C 
ENDROOT
BRANCH   2  12
ATOM     12  C   LIG    1       -2.118  -1.413  -2.839  0.00  0.00    -0.110 A 
ATOM     13  C   LIG    1       -3.031  -2.343  -2.338  0.00  0.00    +0.090 A 
ATOM     14  C   LIG    1       -4.117  -2.719  -3.100  0.00  0.00    +0.100 A 
ATOM     15  C   LIG    1       -4.305  -2.178  -4.361  0.00  0.00    +0.000 A 
ATOM     16  C   LIG    1       -3.406  -1.256  -4.866  0.00  0.00    +0.090 A 
ATOM     17  C   LIG    1       -2.316  -0.865  -4.111  0.00  0.00    +0.160 A 
ATOM     18  F   LIG    1       -1.441   0.039  -4.602  0.00  0.00    -0.100 F 
BRANCH  15  19
ATOM     19  N   LIG    1       -5.473  -2.587  -5.171  0.00  0.00    +0.020 N 
ATOM     20  O   LIG    1       -5.641  -2.113  -6.281  0.00  0.00    -0.140 OA
ATOM     21  O   LIG    1       -6.267  -3.398  -4.729  0.00  0.00    -0.140 OA
ENDBRANCH  15  19
ENDBRANCH   2  12
BRANCH  11  22
ATOM     22  C   LIG    1        0.001   1.488   0.020  0.00  0.00    -0.100 A 
ATOM     23  C   LIG    1       -1.056   2.171   0.593  0.00  0.00    +0.020 A 
ATOM     24  C   LIG    1       -1.057   3.554   0.608  0.00  0.00    +0.000 A 
ATOM     25  C   LIG    1       -0.007   4.252   0.041  0.00  0.00    +0.010 A 
ATOM     26  C   LIG    1        1.047   3.568  -0.535  0.00  0.00    +0.010 A 
ATOM     27  C   LIG    1        1.050   2.186  -0.546  0.00  0.00    +0.030 A 
ENDBRANCH  11  22
TORSDOF 3
