REMARK  Name = ZINCpk00000KfKYe.1
REMARK                            x       y       z     vdW  Elec       q    Type
REMARK                         _______ _______ _______ _____ _____    ______ ____
ROOT
ATOM      1  N   LIG    1       -1.159   2.020   0.018  0.00  0.00    -0.560 NA
ATOM      2  C   LIG    1       -0.024   1.366   0.124  0.00  0.00    +0.360 A 
ATOM      3  C   LIG    1        1.214   2.064   0.097  0.00  0.00    +0.070 A 
ATOM      4  C   LIG    1        2.356   1.336   0.204  0.00  0.00    +0.100 A 
ATOM      5  C   LIG    1        2.253  -0.073   0.337  0.00  0.00    +0.020 A 
ATOM      6  N   LIG    1        1.080  -0.660   0.355  0.00  0.00    -0.180 NA
ATOM      7  N   LIG    1       -0.019  -0.002   0.256  0.00  0.00    -0.470 N 
ATOM      8  H   LIG    1       -0.863  -0.481   0.275  0.00  0.00    +0.440 HD
ENDROOT
BRANCH   5   9
ATOM      9  C   LIG    1        3.480  -0.888   0.455  0.00  0.00    +0.590 C 
ATOM     10  N   LIG    1        3.390  -2.227   0.581  0.00  0.00    -0.710 N 
ATOM     11  H   LIG    1        2.520  -2.656   0.594  0.00  0.00    +0.410 HD
ATOM     12  O   LIG    1        4.570  -0.351   0.439  0.00  0.00    -0.520 OA
BRANCH  10  13
ATOM     13  C   LIG    1        4.606  -3.035   0.699  0.00  0.00    +0.230 C 
ATOM     14  C   LIG    1        5.142  -3.361  -0.699  0.00  0.00    -0.010 C 
ATOM     15  C   LIG    1        6.367  -4.270  -0.568  0.00  0.00    +0.220 C 
ATOM     16  O   LIG    1        6.005  -5.454   0.145  0.00  0.00    -0.380 OA
ATOM     17  C   LIG    1        5.541  -5.215   1.476  0.00  0.00    +0.220 C 
ATOM     18  C   LIG    1        4.284  -4.344   1.427  0.00  0.00    +0.000 C 
ENDBRANCH  10  13
ENDBRANCH   5   9
BRANCH   1  19
ATOM     19  C   LIG    1       -2.421   1.284  -0.090  0.00  0.00    +0.230 C 
BRANCH  19  22
ATOM     20  C   LIG    1       -3.360   1.042  -3.746  0.00  0.00    +0.320 A 
ATOM     21  C   LIG    1       -2.762   0.758  -2.525  0.00  0.00    -0.060 A 
ATOM     22  C   LIG    1       -3.049   1.559  -1.432  0.00  0.00    -0.000 A 
ATOM     23  C   LIG    1       -3.932   2.616  -1.600  0.00  0.00    -0.050 A 
ATOM     24  C   LIG    1       -4.485   2.844  -2.845  0.00  0.00    +0.300 A 
ATOM     25  N   LIG    1       -4.192   2.063  -3.868  0.00  0.00    -0.540 NA
BRANCH  20  27
ATOM     26  C   LIG    1       -3.733   0.609  -6.051  0.00  0.00    +0.260 C 
ATOM     27  O   LIG    1       -3.087   0.265  -4.824  0.00  0.00    -0.310 OA
ENDBRANCH  20  27
ENDBRANCH  19  22
ENDBRANCH   1  19
TORSDOF 5
