REMARK  Name = ZINCAx0000000eHm.0
REMARK                            x       y       z     vdW  Elec       q    Type
REMARK                         _______ _______ _______ _____ _____    ______ ____
ROOT
ATOM      1  C   LIG    1        0.421   1.532   0.286  0.00  0.00    +0.240 C 
ATOM      2  C   LIG    1        1.353   2.521   0.279  0.00  0.00    -0.270 A 
ATOM      3  S   LIG    1        2.970   2.485  -0.447  0.00  0.00    +0.190 S 
ATOM      4  C   LIG    1        3.388   4.136   0.041  0.00  0.00    +0.180 A 
ATOM      5  N   LIG    1        2.308   4.630   0.717  0.00  0.00    -0.490 N 
ATOM      6  C   LIG    1        4.583   4.800  -0.214  0.00  0.00    -0.050 C 
ATOM      7  C   LIG    1        1.243   3.860   0.866  0.00  0.00    +0.560 A 
ATOM      8  O   LIG    1        0.244   4.235   1.452  0.00  0.00    -0.460 OA
ENDROOT
BRANCH   6   9
ATOM      9  C   LIG    1        5.714   4.076  -0.818  0.00  0.00    +0.240 A 
ATOM     10  N   LIG    1        5.740   2.802  -1.162  0.00  0.00    -0.280 NA
ATOM     11  N   LIG    1        6.887   2.510  -1.667  0.00  0.00    -0.280 NA
ATOM     12  C   LIG    1        7.654   3.563  -1.672  0.00  0.00    +0.190 A 
ATOM     13  C   LIG    1        9.065   3.659  -2.191  0.00  0.00    +0.160 C 
ATOM     14  C   LIG    1        9.927   4.393  -1.160  0.00  0.00    +0.030 C 
ATOM     15  C   LIG    1        9.863   5.896  -1.413  0.00  0.00    +0.020 C 
ATOM     16  C   LIG    1        8.487   6.295  -1.944  0.00  0.00    +0.030 C 
ATOM     17  C   LIG    1        7.414   5.957  -0.905  0.00  0.00    +0.280 C 
ATOM     18  N   LIG    1        6.942   4.590  -1.125  0.00  0.00    -0.470 N 
ENDBRANCH   6   9
BRANCH   1  23
ATOM     19  C   LIG    1        0.086  -1.936  -1.128  0.00  0.00    +0.110 A 
ATOM     20  C   LIG    1        1.415  -2.321  -1.193  0.00  0.00    -0.030 A 
ATOM     21  C   LIG    1        2.416  -1.458  -0.779  0.00  0.00    +0.070 A 
ATOM     22  C   LIG    1        2.102  -0.206  -0.299  0.00  0.00    +0.020 A 
ATOM     23  C   LIG    1        0.762   0.200  -0.226  0.00  0.00    -0.080 A 
ATOM     24  C   LIG    1       -0.251  -0.678  -0.640  0.00  0.00    +0.100 A 
BRANCH  19  26
ATOM     25  C   LIG    1       -0.473  -4.068  -2.021  0.00  0.00    +0.240 C 
ATOM     26  O   LIG    1       -0.891  -2.790  -1.536  0.00  0.00    -0.300 OA
ENDBRANCH  19  26
BRANCH  24  27
ATOM     27  O   LIG    1       -1.553  -0.299  -0.570  0.00  0.00    -0.320 OA
ATOM     28  C   LIG    1       -2.102   0.354  -1.717  0.00  0.00    +0.230 C 
ENDBRANCH  24  27
ENDBRANCH   1  23
BRANCH   5  29
ATOM     29  C   LIG    1        2.326   5.930   1.238  0.00  0.00    +0.090 A 
ATOM     30  C   LIG    1        2.913   6.177   2.473  0.00  0.00    +0.030 A 
ATOM     31  C   LIG    1        2.933   7.460   2.982  0.00  0.00    +0.030 A 
ATOM     32  C   LIG    1        2.361   8.498   2.268  0.00  0.00    +0.040 A 
ATOM     33  C   LIG    1        1.772   8.255   1.042  0.00  0.00    +0.030 A 
ATOM     34  C   LIG    1        1.752   6.974   0.525  0.00  0.00    +0.040 A 
ENDBRANCH   5  29
BRANCH   6  35
ATOM     35  C   LIG    1        4.713   6.189   0.111  0.00  0.00    +0.250 C 
ATOM     36  N   LIG    1        4.817   7.290   0.368  0.00  0.00    -0.390 NA
ENDBRANCH   6  35
TORSDOF 6
