REMARK  Name = ZINCqH0000009BdH.0
REMARK                            x       y       z     vdW  Elec       q    Type
REMARK                         _______ _______ _______ _____ _____    ______ ____
ROOT
ATOM      1  C   LIG    1       -5.132   0.689  -2.570  0.00  0.00    +0.560 C 
ATOM      2  N   LIG    1       -4.457   0.809  -1.410  0.00  0.00    -0.730 N 
ATOM      3  H   LIG    1       -4.887   0.577  -0.572  0.00  0.00    +0.400 HD
ATOM      4  O   LIG    1       -4.593   0.980  -3.620  0.00  0.00    -0.520 OA
ENDROOT
BRANCH   1  12
ATOM      5  C   LIG    1       -7.158  -1.707  -6.313  0.00  0.00    +0.040 C 
ATOM      6  C   LIG    1       -7.708  -0.321  -5.971  0.00  0.00    +0.190 C 
ATOM      7  C   LIG    1       -9.030  -0.437  -5.176  0.00  0.00    +0.080 C 
ATOM      8  C   LIG    1       -8.538  -0.390  -3.742  0.00  0.00    -0.180 A 
ATOM      9  C   LIG    1       -9.141  -0.715  -2.547  0.00  0.00    +0.090 A 
ATOM     10  C   LIG    1       -8.446  -0.586  -1.355  0.00  0.00    -0.020 A 
ATOM     11  C   LIG    1       -7.145  -0.132  -1.362  0.00  0.00    +0.080 A 
ATOM     12  C   LIG    1       -6.525   0.203  -2.566  0.00  0.00    -0.160 A 
ATOM     13  C   LIG    1       -7.232   0.082  -3.776  0.00  0.00    +0.170 A 
ATOM     14  O   LIG    1       -6.840   0.358  -5.047  0.00  0.00    -0.270 OA
ENDBRANCH   1  12
BRANCH   2  15
ATOM     15  C   LIG    1       -3.074   1.292  -1.414  0.00  0.00    +0.270 C 
BRANCH  15  16
ATOM     16  C   LIG    1       -2.544   1.335   0.021  0.00  0.00    +0.100 C 
BRANCH  16  17
ATOM     17  C   LIG    1       -1.121   1.831   0.017  0.00  0.00    -0.150 A 
ATOM     18  C   LIG    1       -0.013   1.076   0.008  0.00  0.00    +0.250 A 
ATOM     19  N   LIG    1        1.098   1.877   0.002  0.00  0.00    -0.590 N 
ATOM     20  H   LIG    1        2.014   1.560  -0.009  0.00  0.00    +0.420 HD
ATOM     21  C   LIG    1        0.719   3.201   0.012  0.00  0.00    +0.150 A 
ATOM     22  C   LIG    1        1.429   4.398   0.011  0.00  0.00    -0.040 A 
ATOM     23  C   LIG    1        0.752   5.600   0.022  0.00  0.00    +0.150 A 
ATOM     24  C   LIG    1       -0.638   5.630   0.035  0.00  0.00    -0.070 A 
ATOM     25  C   LIG    1       -1.359   4.456   0.036  0.00  0.00    +0.180 A 
ATOM     26  F   LIG    1       -2.710   4.489   0.048  0.00  0.00    -0.120 F 
ATOM     27  F   LIG    1        1.446   6.759   0.021  0.00  0.00    -0.130 F 
ATOM     28  C   LIG    1       -0.686   3.231   0.025  0.00  0.00    -0.150 A 
ENDBRANCH  16  17
ENDBRANCH  15  16
ENDBRANCH   2  15
TORSDOF 4
