REMARK  Name = ZINCbw0000000HlM.0
REMARK                            x       y       z     vdW  Elec       q    Type
REMARK                         _______ _______ _______ _____ _____    ______ ____
ROOT
ATOM      1  C   LIG    1       -1.986  -3.109   0.006  0.00  0.00    +0.180 C 
ATOM      2  C   LIG    1       -0.804  -2.174  -0.001  0.00  0.00    +0.340 A 
ATOM      3  N   LIG    1        0.413  -2.688  -0.015  0.00  0.00    -0.500 NA
ATOM      4  C   LIG    1        1.480  -1.906  -0.022  0.00  0.00    +0.280 A 
ATOM      5  C   LIG    1        1.304  -0.521  -0.013  0.00  0.00    -0.270 A 
ATOM      6  S   LIG    1        2.459   0.804  -0.017  0.00  0.00    +0.180 S 
ATOM      7  C   LIG    1        1.167   1.992   0.002  0.00  0.00    +0.040 A 
ATOM      8  C   LIG    1       -0.017   1.399   0.010  0.00  0.00    +0.030 A 
ATOM      9  C   LIG    1        0.002  -0.004   0.002  0.00  0.00    +0.190 A 
ATOM     10 CL   LIG    1        3.074  -2.592  -0.041  0.00  0.00    +0.000 Cl
ATOM     11  N   LIG    1       -1.023  -0.882   0.007  0.00  0.00    -0.490 NA
ENDROOT
TORSDOF 0
