REMARK  Name = ZINCpk000000nz6M.0
REMARK                            x       y       z     vdW  Elec       q    Type
REMARK                         _______ _______ _______ _____ _____    ______ ____
ROOT
ATOM      1  C   LIG    1        1.698  -0.965   1.001  0.00  0.00    +0.240 C 
ATOM      2  C   LIG    1        0.368  -0.824   0.227  0.00  0.00    +0.170 C 
ATOM      3  S   LIG    1        0.161   1.006   0.193  0.00  0.00    -0.250 S 
ATOM      4  C   LIG    1        1.971   1.336   0.134  0.00  0.00    +0.380 C 
ATOM      5  N   LIG    1        2.528   0.229   0.936  0.00  0.00    -0.600 N 
ATOM      6  C   LIG    1        3.717   0.317   1.563  0.00  0.00    +0.590 C 
ATOM      7  O   LIG    1        4.087  -0.580   2.296  0.00  0.00    -0.510 OA
ENDROOT
BRANCH   6   8
ATOM      8  C   LIG    1        4.574   1.506   1.360  0.00  0.00    -0.110 A 
ATOM      9  C   LIG    1        4.492   2.232   0.171  0.00  0.00    +0.030 A 
ATOM     10  C   LIG    1        5.288   3.345  -0.013  0.00  0.00    +0.040 A 
ATOM     11  C   LIG    1        6.176   3.736   0.971  0.00  0.00    +0.040 A 
ATOM     12  C   LIG    1        6.269   3.016   2.156  0.00  0.00    +0.140 A 
ATOM     13  C   LIG    1        5.469   1.901   2.354  0.00  0.00    +0.070 A 
BRANCH  12  14
ATOM     14  N   LIG    1        7.168   3.416   3.148  0.00  0.00    -1.060 N 
ATOM     15  H   LIG    1        6.884   3.448   4.075  0.00  0.00    +0.430 HD
BRANCH  14  16
ATOM     16  S   LIG    1        8.718   3.833   2.741  0.00  0.00    +2.610 S 
ATOM     17  O   LIG    1        9.334   4.146   3.982  0.00  0.00    -0.950 OA
ATOM     18  O   LIG    1        8.561   4.821   1.731  0.00  0.00    -0.950 OA
ATOM     19  C   LIG    1        9.427   2.317   2.043  0.00  0.00    -0.280 C 
ENDBRANCH  14  16
ENDBRANCH  12  14
ENDBRANCH   6   8
BRANCH   1  21
ATOM     20  N   LIG    1        1.953  -3.368   0.471  0.00  0.00    -0.610 N 
ATOM     21  C   LIG    1        2.472  -2.124   0.428  0.00  0.00    +0.510 C 
ATOM     22  O   LIG    1        3.561  -1.939  -0.072  0.00  0.00    -0.520 OA
ATOM     23  C   LIG    1        0.637  -3.592   1.075  0.00  0.00    +0.280 C 
BRANCH  20  25
ATOM     24  C   LIG    1        2.974  -5.522   1.015  0.00  0.00    +0.030 C 
ATOM     25  C   LIG    1        2.705  -4.495  -0.086  0.00  0.00    +0.230 C 
ATOM     26  C   LIG    1        1.891  -5.147  -1.205  0.00  0.00    +0.030 C 
ENDBRANCH  20  25
ENDBRANCH   1  21
TORSDOF 5
