REMARK  Name = ZINCc70000002LFy.0
REMARK                            x       y       z     vdW  Elec       q    Type
REMARK                         _______ _______ _______ _____ _____    ______ ____
ROOT
ATOM      1  O   LIG    1       -0.593   2.269  -1.207  0.00  0.00    -0.930 OA
ATOM      2  S   LIG    1       -0.023   1.814   0.012  0.00  0.00    +2.410 S 
ATOM      3  C   LIG    1        0.002  -0.004   0.002  0.00  0.00    -0.380 C 
ATOM      4  C   LIG    1        0.885  -0.476  -1.157  0.00  0.00    +0.270 C 
ATOM      5  N   LIG    1        2.261  -0.019  -0.955  0.00  0.00    -0.680 NA
ATOM      6  H   LIG    1        2.602  -0.290  -0.044  0.00  0.00    +0.350 HD
ATOM      7  C   LIG    1        2.408   1.424  -1.162  0.00  0.00    +0.210 C 
ATOM      8  O   LIG    1       -0.570   2.255   1.247  0.00  0.00    -0.940 OA
ATOM      9  C   LIG    1        1.757   2.186  -0.003  0.00  0.00    -0.370 C 
ENDROOT
BRANCH   7  10
ATOM     10  C   LIG    1        3.894   1.779  -1.230  0.00  0.00    -0.010 C 
ATOM     11  C   LIG    1        4.179   3.099  -1.966  0.00  0.00    +0.010 C 
ATOM     12  C   LIG    1        5.395   2.396  -2.592  0.00  0.00    +0.000 C 
ATOM     13  C   LIG    1        4.645   1.072  -2.371  0.00  0.00    +0.030 C 
ENDBRANCH   7  10
TORSDOF 1
