REMARK  Name = ZINCpk00000KfKY2.2
REMARK                            x       y       z     vdW  Elec       q    Type
REMARK                         _______ _______ _______ _____ _____    ______ ____
ROOT
ATOM      1  C   LIG    1       -1.013   1.874   1.153  0.00  0.00    +0.270 C 
ATOM      2  C   LIG    1       -0.629   2.143  -0.305  0.00  0.00    +0.200 C 
ATOM      3  N   LIG    1       -0.414   0.862  -0.994  0.00  0.00    -0.500 NA
ATOM      4  C   LIG    1        0.642   0.084  -0.329  0.00  0.00    +0.160 C 
ATOM      5  C   LIG    1        0.247  -0.164   1.129  0.00  0.00    +0.240 C 
ATOM      6  O   LIG    1        0.011   1.091   1.773  0.00  0.00    -0.360 OA
ENDROOT
BRANCH   1  11
ATOM      7  C   LIG    1       -0.718   5.141   2.688  0.00  0.00    +0.230 A 
ATOM      8  N   LIG    1       -1.933   4.861   3.080  0.00  0.00    -0.300 NA
ATOM      9  N   LIG    1       -2.242   3.590   2.568  0.00  0.00    -0.470 N 
ATOM     10  H   LIG    1       -3.072   3.102   2.685  0.00  0.00    +0.440 HD
ATOM     11  C   LIG    1       -1.158   3.184   1.884  0.00  0.00    +0.290 A 
ATOM     12  N   LIG    1       -0.250   4.122   1.968  0.00  0.00    -0.510 NA
BRANCH   7  13
ATOM     13  C   LIG    1        0.033   6.409   3.003  0.00  0.00    +0.150 C 
BRANCH  13  15
ATOM     14  C   LIG    1        1.577   7.516   4.625  0.00  0.00    +0.030 C 
ATOM     15  C   LIG    1        0.815   6.229   4.306  0.00  0.00    +0.010 C 
ENDBRANCH  13  15
ENDBRANCH   7  13
ENDBRANCH   1  11
BRANCH   3  16
ATOM     16  C   LIG    1       -0.099   1.073  -2.413  0.00  0.00    +0.190 C 
ATOM     17  C   LIG    1       -1.110   2.048  -3.020  0.00  0.00    +0.080 C 
BRANCH  16  18
ATOM     18  C   LIG    1        1.289   1.647  -2.539  0.00  0.00    +0.490 C 
ATOM     19  N   LIG    1        2.019   1.406  -3.646  0.00  0.00    -0.630 N 
ATOM     20  H   LIG    1        1.652   0.864  -4.361  0.00  0.00    +0.420 HD
ATOM     21  O   LIG    1        1.749   2.325  -1.644  0.00  0.00    -0.500 OA
BRANCH  19  22
ATOM     22  C   LIG    1        3.304   1.937  -3.762  0.00  0.00    +0.240 A 
ATOM     23  N   LIG    1        4.125   1.790  -4.769  0.00  0.00    -0.390 NA
ATOM     24  O   LIG    1        5.169   2.371  -4.577  0.00  0.00    +0.100 OA
ATOM     25  C   LIG    1        5.180   2.994  -3.390  0.00  0.00    -0.020 A 
ATOM     26  C   LIG    1        6.305   3.813  -2.813  0.00  0.00    +0.180 C 
ATOM     27  C   LIG    1        3.981   2.749  -2.814  0.00  0.00    -0.040 A 
ENDBRANCH  19  22
ENDBRANCH  16  18
ENDBRANCH   3  16
TORSDOF 6
