REMARK  Name = ZINCpk00000KfKY2.1
REMARK                            x       y       z     vdW  Elec       q    Type
REMARK                         _______ _______ _______ _____ _____    ______ ____
ROOT
ATOM      1  C   LIG    1       -0.297   0.940   0.284  0.00  0.00    +0.290 C 
ATOM      2  C   LIG    1       -1.615   1.429  -0.321  0.00  0.00    +0.190 C 
ATOM      3  N   LIG    1       -1.615   1.160  -1.767  0.00  0.00    -0.500 NA
ATOM      4  C   LIG    1       -0.481   1.830  -2.421  0.00  0.00    +0.160 C 
ATOM      5  C   LIG    1        0.826   1.337  -1.795  0.00  0.00    +0.230 C 
ATOM      6  O   LIG    1        0.795   1.578  -0.385  0.00  0.00    -0.370 OA
ENDROOT
BRANCH   1   9
ATOM      7  C   LIG    1       -0.335   1.048   3.897  0.00  0.00    +0.290 A 
ATOM      8  N   LIG    1       -0.435   0.422   2.752  0.00  0.00    -0.530 NA
ATOM      9  C   LIG    1       -0.258   1.283   1.750  0.00  0.00    +0.230 A 
ATOM     10  N   LIG    1       -0.051   2.475   2.246  0.00  0.00    -0.280 NA
ATOM     11  N   LIG    1       -0.097   2.346   3.644  0.00  0.00    -0.480 N 
ATOM     12  H   LIG    1        0.021   3.054   4.297  0.00  0.00    +0.440 HD
BRANCH   7  13
ATOM     13  C   LIG    1       -0.469   0.422   5.262  0.00  0.00    +0.160 C 
BRANCH  13  15
ATOM     14  C   LIG    1       -2.046  -0.058   7.140  0.00  0.00    +0.030 C 
ATOM     15  C   LIG    1       -1.910   0.577   5.754  0.00  0.00    +0.010 C 
ENDBRANCH  13  15
ENDBRANCH   7  13
ENDBRANCH   1   9
BRANCH   3  16
ATOM     16  C   LIG    1       -2.888   1.563  -2.377  0.00  0.00    +0.190 C 
ATOM     17  C   LIG    1       -4.049   1.008  -1.551  0.00  0.00    +0.080 C 
BRANCH  16  18
ATOM     18  C   LIG    1       -2.973   3.068  -2.415  0.00  0.00    +0.490 C 
ATOM     19  N   LIG    1       -3.692   3.678  -3.377  0.00  0.00    -0.630 N 
ATOM     20  H   LIG    1       -4.155   3.150  -4.046  0.00  0.00    +0.420 HD
ATOM     21  O   LIG    1       -2.395   3.729  -1.579  0.00  0.00    -0.500 OA
BRANCH  19  22
ATOM     22  C   LIG    1       -3.771   5.071  -3.412  0.00  0.00    +0.240 A 
ATOM     23  N   LIG    1       -4.425   5.798  -4.279  0.00  0.00    -0.390 NA
ATOM     24  O   LIG    1       -4.303   6.979  -4.047  0.00  0.00    +0.100 OA
ATOM     25  C   LIG    1       -3.534   7.197  -2.971  0.00  0.00    -0.020 A 
ATOM     26  C   LIG    1       -3.163   8.535  -2.386  0.00  0.00    +0.190 C 
ATOM     27  C   LIG    1       -3.161   5.982  -2.510  0.00  0.00    -0.040 A 
ENDBRANCH  19  22
ENDBRANCH  16  18
ENDBRANCH   3  16
TORSDOF 6
