REMARK  Name = ZINCpk00000KfKY2.0
REMARK                            x       y       z     vdW  Elec       q    Type
REMARK                         _______ _______ _______ _____ _____    ______ ____
ROOT
ATOM      1  C   LIG    1       -1.126   3.286  -4.401  0.00  0.00    +0.280 C 
ATOM      2  C   LIG    1       -1.640   2.406  -5.544  0.00  0.00    +0.190 C 
ATOM      3  N   LIG    1       -1.621   3.178  -6.796  0.00  0.00    -0.510 NA
ATOM      4  C   LIG    1       -2.449   4.386  -6.677  0.00  0.00    +0.160 C 
ATOM      5  C   LIG    1       -1.927   5.245  -5.523  0.00  0.00    +0.250 C 
ATOM      6  O   LIG    1       -1.924   4.470  -4.321  0.00  0.00    -0.370 OA
ENDROOT
BRANCH   1  10
ATOM      7  C   LIG    1       -0.742   1.585  -1.213  0.00  0.00    +0.190 A 
ATOM      8  N   LIG    1       -2.005   1.403  -1.488  0.00  0.00    -0.290 NA
ATOM      9  N   LIG    1       -2.289   1.968  -2.608  0.00  0.00    -0.260 NA
ATOM     10  C   LIG    1       -1.219   2.528  -3.102  0.00  0.00    +0.170 A 
ATOM     11  N   LIG    1       -0.206   2.300  -2.231  0.00  0.00    -0.570 N 
ATOM     12  H   LIG    1        0.715   2.591  -2.319  0.00  0.00    +0.430 HD
BRANCH   7  13
ATOM     13  C   LIG    1       -0.013   1.086   0.008  0.00  0.00    +0.150 C 
BRANCH  13  15
ATOM     14  C   LIG    1        0.011   1.072   2.506  0.00  0.00    +0.020 C 
ATOM     15  C   LIG    1       -0.729   1.579   1.267  0.00  0.00    +0.020 C 
ENDBRANCH  13  15
ENDBRANCH   7  13
ENDBRANCH   1  10
BRANCH   3  16
ATOM     16  C   LIG    1       -2.055   2.351  -7.930  0.00  0.00    +0.190 C 
ATOM     17  C   LIG    1       -3.550   2.055  -7.802  0.00  0.00    +0.030 C 
BRANCH  16  18
ATOM     18  C   LIG    1       -1.797   3.090  -9.218  0.00  0.00    +0.530 C 
ATOM     19  N   LIG    1       -2.118   2.522 -10.397  0.00  0.00    -0.630 N 
ATOM     20  H   LIG    1       -2.515   1.637 -10.417  0.00  0.00    +0.420 HD
ATOM     21  O   LIG    1       -1.301   4.197  -9.193  0.00  0.00    -0.490 OA
BRANCH  19  22
ATOM     22  C   LIG    1       -1.880   3.206 -11.589  0.00  0.00    +0.250 A 
ATOM     23  N   LIG    1       -2.137   2.786 -12.800  0.00  0.00    -0.390 NA
ATOM     24  O   LIG    1       -1.818   3.606 -13.630  0.00  0.00    +0.100 OA
ATOM     25  C   LIG    1       -1.295   4.705 -13.067  0.00  0.00    -0.020 A 
ATOM     26  C   LIG    1       -0.788   5.929 -13.784  0.00  0.00    +0.180 C 
ATOM     27  C   LIG    1       -1.315   4.502 -11.730  0.00  0.00    -0.040 A 
ENDBRANCH  19  22
ENDBRANCH  16  18
ENDBRANCH   3  16
TORSDOF 6
