REMARK  Name = ZINCtV00000tRPvV.0
REMARK                            x       y       z     vdW  Elec       q    Type
REMARK                         _______ _______ _______ _____ _____    ______ ____
ROOT
ATOM      1  C   LIG    1       -2.020   1.884   3.013  0.00  0.00    +0.050 A 
ATOM      2  C   LIG    1       -1.151   2.936   2.975  0.00  0.00    -0.110 A 
ATOM      3  C   LIG    1       -0.324   2.742   1.868  0.00  0.00    -0.120 A 
ATOM      4  C   LIG    1       -0.713   1.573   1.251  0.00  0.00    -0.010 A 
ATOM      5  C   LIG    1       -0.013   1.086   0.008  0.00  0.00    +0.350 C 
ATOM      6  O   LIG    1        1.328   1.581  -0.002  0.00  0.00    -0.300 OA
ATOM      7  C   LIG    1        1.592   2.866   0.342  0.00  0.00    +0.120 A 
ATOM      8  C   LIG    1        2.642   3.554  -0.241  0.00  0.00    -0.010 A 
ATOM      9  C   LIG    1        2.909   4.858   0.132  0.00  0.00    +0.030 A 
ATOM     10  C   LIG    1        2.137   5.492   1.089  0.00  0.00    -0.010 A 
ATOM     11  C   LIG    1        1.079   4.822   1.679  0.00  0.00    +0.040 A 
ATOM     12  C   LIG    1        0.802   3.520   1.305  0.00  0.00    -0.060 A 
ATOM     13  C   LIG    1       -1.095   4.088   3.944  0.00  0.00    +0.120 C 
ATOM     14  N   LIG    1       -1.741   1.053   1.952  0.00  0.00    -0.400 N 
ATOM     15  C   LIG    1       -2.445  -0.192   1.635  0.00  0.00    +0.320 C 
ENDROOT
BRANCH   1  19
ATOM     16  C   LIG    1       -5.068   1.280   5.912  0.00  0.00    +0.130 A 
ATOM     17  C   LIG    1       -3.796   1.663   6.315  0.00  0.00    -0.010 A 
ATOM     18  C   LIG    1       -2.804   1.860   5.377  0.00  0.00    +0.080 A 
ATOM     19  C   LIG    1       -3.081   1.673   4.022  0.00  0.00    -0.050 A 
ATOM     20  C   LIG    1       -4.362   1.292   3.621  0.00  0.00    +0.040 A 
ATOM     21  C   LIG    1       -5.347   1.093   4.565  0.00  0.00    -0.070 A 
BRANCH  16  23
ATOM     22  C   LIG    1       -7.329   0.693   6.356  0.00  0.00    +0.250 C 
ATOM     23  O   LIG    1       -6.043   1.087   6.839  0.00  0.00    -0.320 OA
ENDBRANCH  16  23
ENDBRANCH   1  19
BRANCH   5  24
ATOM     24  C   LIG    1       -0.744   1.586  -1.211  0.00  0.00    -0.110 A 
ATOM     25  C   LIG    1       -0.477   2.848  -1.708  0.00  0.00    +0.030 A 
ATOM     26  C   LIG    1       -1.144   3.305  -2.829  0.00  0.00    +0.010 A 
ATOM     27  C   LIG    1       -2.085   2.504  -3.448  0.00  0.00    +0.010 A 
ATOM     28  C   LIG    1       -2.355   1.244  -2.949  0.00  0.00    +0.010 A 
ATOM     29  C   LIG    1       -1.685   0.785  -1.830  0.00  0.00    +0.010 A 
ENDBRANCH   5  24
TORSDOF 3
