REMARK  Name = ZINCrD00000lClIW.0
REMARK                            x       y       z     vdW  Elec       q    Type
REMARK                         _______ _______ _______ _____ _____    ______ ____
ROOT
ATOM      1  C   LIG    1       -3.525   3.120  -3.285  0.00  0.00    +0.600 C 
ATOM      2  N   LIG    1       -2.633   3.581  -2.386  0.00  0.00    -0.720 N 
ATOM      3  H   LIG    1       -2.329   4.501  -2.433  0.00  0.00    +0.400 HD
ATOM      4  O   LIG    1       -3.906   1.966  -3.226  0.00  0.00    -0.540 OA
ENDROOT
BRANCH   2   5
ATOM      5  C   LIG    1       -2.122   2.693  -1.339  0.00  0.00    +0.240 C 
ATOM      6  C   LIG    1       -0.750   3.189  -0.875  0.00  0.00    +0.030 C 
ATOM      7  C   LIG    1       -0.204   2.239   0.195  0.00  0.00    +0.280 C 
ATOM      8  N   LIG    1       -1.195   2.115   1.273  0.00  0.00    -0.620 N 
ATOM      9  C   LIG    1       -2.572   1.732   0.922  0.00  0.00    +0.280 C 
ATOM     10  C   LIG    1       -0.849   2.351   2.554  0.00  0.00    +0.520 C 
ATOM     11  O   LIG    1       -1.696   2.343   3.422  0.00  0.00    -0.540 OA
ATOM     12  C   LIG    1       -3.092   2.688  -0.156  0.00  0.00    +0.010 C 
BRANCH  10  13
ATOM     13  C   LIG    1        0.590   2.624   2.908  0.00  0.00    -0.030 C 
ATOM     14  C   LIG    1        1.396   1.327   2.804  0.00  0.00    +0.040 C 
ATOM     15  C   LIG    1        0.671   3.160   4.338  0.00  0.00    +0.050 C 
ENDBRANCH  10  13
ENDBRANCH   2   5
BRANCH   1  18
ATOM     16  C   LIG    1       -5.597   2.335  -5.522  0.00  0.00    +0.170 C 
ATOM     17  C   LIG    1       -4.947   3.680  -5.324  0.00  0.00    +0.170 A 
ATOM     18  C   LIG    1       -4.040   4.013  -4.338  0.00  0.00    -0.290 A 
ATOM     19  C   LIG    1       -3.691   5.369  -4.532  0.00  0.00    +0.290 A 
ATOM     20  N   LIG    1       -4.354   5.814  -5.564  0.00  0.00    -0.280 NA
ATOM     21  N   LIG    1       -5.147   4.779  -6.074  0.00  0.00    -0.320 N 
BRANCH  21  22
ATOM     22  C   LIG    1       -6.002   4.871  -7.181  0.00  0.00    +0.160 A 
ATOM     23  C   LIG    1       -5.589   5.544  -8.324  0.00  0.00    +0.040 A 
ATOM     24  C   LIG    1       -6.431   5.629  -9.415  0.00  0.00    +0.080 A 
ATOM     25  C   LIG    1       -7.689   5.054  -9.367  0.00  0.00    -0.090 A 
ATOM     26  C   LIG    1       -8.104   4.388  -8.228  0.00  0.00    +0.080 A 
ATOM     27 BR   LIG    1       -8.842   5.180 -10.861  0.00  0.00    -0.030 Br
ATOM     28  C   LIG    1       -7.264   4.295  -7.136  0.00  0.00    +0.020 A 
ENDBRANCH  21  22
ENDBRANCH   1  18
TORSDOF 4
