REMARK  Name = ZINCqH0000051lSl.0
REMARK                            x       y       z     vdW  Elec       q    Type
REMARK                         _______ _______ _______ _____ _____    ______ ____
ROOT
ATOM      1  O   LIG    1        1.528   2.949  -1.301  0.00  0.00    -0.510 OA
ATOM      2  C   LIG    1        0.572   3.692  -1.235  0.00  0.00    +0.520 C 
ATOM      3  N   LIG    1        0.756   5.027  -1.206  0.00  0.00    -0.720 N 
ATOM      4  H   LIG    1       -0.009   5.621  -1.154  0.00  0.00    +0.410 HD
ENDROOT
BRANCH   2   5
ATOM      5  C   LIG    1       -0.823   3.123  -1.186  0.00  0.00    -0.130 C 
ATOM      6  C   LIG    1       -0.754   1.593  -1.232  0.00  0.00    +0.050 C 
ATOM      7  C   LIG    1       -0.013   1.086   0.008  0.00  0.00    +0.240 C 
ATOM      8  O   LIG    1       -0.682   1.547   1.183  0.00  0.00    -0.380 OA
ATOM      9  C   LIG    1       -0.736   2.970   1.304  0.00  0.00    +0.220 C 
ATOM     10  C   LIG    1       -1.506   3.553   0.116  0.00  0.00    +0.040 C 
BRANCH   5  11
ATOM     11  C   LIG    1       -1.629   3.635  -2.380  0.00  0.00    +0.470 C 
ATOM     12  F   LIG    1       -1.010   3.233  -3.568  0.00  0.00    -0.170 F 
ATOM     13  F   LIG    1       -1.692   5.032  -2.337  0.00  0.00    -0.180 F 
ATOM     14  F   LIG    1       -2.925   3.109  -2.329  0.00  0.00    -0.170 F 
ENDBRANCH   5  11
ENDBRANCH   2   5
BRANCH   3  15
ATOM     15  C   LIG    1        2.112   5.580  -1.255  0.00  0.00    +0.320 C 
BRANCH  15  16
ATOM     16  C   LIG    1        2.042   7.085  -1.209  0.00  0.00    -0.110 A 
ATOM     17  C   LIG    1        1.959   7.807  -2.386  0.00  0.00    +0.030 A 
ATOM     18  C   LIG    1        1.889   9.185  -2.350  0.00  0.00    +0.030 A 
ATOM     19  C   LIG    1        1.914   9.849  -1.125  0.00  0.00    -0.040 A 
ATOM     20  C   LIG    1        2.003   9.117   0.057  0.00  0.00    +0.030 A 
ATOM     21  C   LIG    1        2.067   7.739   0.009  0.00  0.00    +0.030 A 
BRANCH  19  22
ATOM     22  C   LIG    1        1.845  11.331  -1.081  0.00  0.00    -0.000 A 
ATOM     23  C   LIG    1        1.862  12.013   0.139  0.00  0.00    -0.030 A 
ATOM     24  C   LIG    1        1.801  13.392   0.135  0.00  0.00    +0.260 A 
ATOM     25  N   LIG    1        1.717  14.063  -0.998  0.00  0.00    -0.490 NA
ATOM     26  C   LIG    1        1.693  13.457  -2.169  0.00  0.00    +0.260 A 
ATOM     27  C   LIG    1        1.755  12.081  -2.256  0.00  0.00    -0.030 A 
ENDBRANCH  19  22
ENDBRANCH  15  16
ENDBRANCH   3  15
TORSDOF 5
