REMARK  Name = ZINCnE000001IlBV.1
REMARK                            x       y       z     vdW  Elec       q    Type
REMARK                         _______ _______ _______ _____ _____    ______ ____
ROOT
ATOM      1  S   LIG    1        3.742  -3.646  -0.053  0.00  0.00    +0.040 S 
ENDROOT
BRANCH   1  10
ATOM      2  N   LIG    1        3.446  -0.880  -0.036  0.00  0.00    -0.480 N 
ATOM      3  C   LIG    1        2.421   0.053  -0.021  0.00  0.00    +0.050 A 
ATOM      4  C   LIG    1        2.384   1.439  -0.012  0.00  0.00    +0.010 A 
ATOM      5  C   LIG    1        1.169   2.093   0.002  0.00  0.00    +0.020 A 
ATOM      6  C   LIG    1       -0.017   1.373   0.010  0.00  0.00    +0.000 A 
ATOM      7  C   LIG    1        0.002  -0.004   0.002  0.00  0.00    +0.060 A 
ATOM      8  C   LIG    1        1.224  -0.681  -0.013  0.00  0.00    +0.060 A 
ATOM      9  N   LIG    1        1.561  -1.997  -0.024  0.00  0.00    -0.500 NA
ATOM     10  C   LIG    1        2.866  -2.117  -0.037  0.00  0.00    +0.260 A 
BRANCH   2  12
ATOM     11  C   LIG    1        5.396  -0.500   1.390  0.00  0.00    +0.040 C 
ATOM     12  C   LIG    1        4.882  -0.593  -0.048  0.00  0.00    +0.300 C 
ENDBRANCH   2  12
ENDBRANCH   1  10
BRANCH   1  13
ATOM     13  C   LIG    1        2.353  -4.805  -0.046  0.00  0.00    +0.090 C 
BRANCH  13  14
ATOM     14  C   LIG    1        2.877  -6.218  -0.058  0.00  0.00    +0.420 C 
ATOM     15  O   LIG    1        4.073  -6.421  -0.070  0.00  0.00    -0.480 OA
BRANCH  14  16
ATOM     16  C   LIG    1        1.942  -7.346  -0.056  0.00  0.00    -0.340 A 
ATOM     17  C   LIG    1        0.560  -7.115  -0.036  0.00  0.00    +0.100 A 
ATOM     18  C   LIG    1       -0.309  -8.168  -0.040  0.00  0.00    -0.160 A 
ATOM     19  C   LIG    1        0.169  -9.476  -0.050  0.00  0.00    +0.310 A 
ATOM     20  C   LIG    1        1.534  -9.723  -0.064  0.00  0.00    -0.200 A 
ATOM     21  O   LIG    1       -0.705 -10.513  -0.048  0.00  0.00    -0.700 OA
ATOM     22  C   LIG    1        2.428  -8.666  -0.067  0.00  0.00    +0.220 A 
BRANCH  22  23
ATOM     23  O   LIG    1        3.763  -8.902  -0.080  0.00  0.00    -0.490 OA
ATOM     24  H   LIG    1        4.158  -8.975   0.800  0.00  0.00    +0.380 HD
ENDBRANCH  22  23
ENDBRANCH  14  16
ENDBRANCH  13  14
ENDBRANCH   1  13
TORSDOF 6
