REMARK  Name = ZINCrH000004keXZ.0
REMARK                            x       y       z     vdW  Elec       q    Type
REMARK                         _______ _______ _______ _____ _____    ______ ____
ROOT
ATOM      1  N   LIG    1        2.398   1.104  -0.015  0.00  0.00    -0.670 N 
ATOM      2  H   LIG    1        2.411   0.136   0.046  0.00  0.00    +0.410 HD
ATOM      3  C   LIG    1        3.555   1.787  -0.124  0.00  0.00    +0.570 C 
ATOM      4  O   LIG    1        3.545   3.003  -0.118  0.00  0.00    -0.510 OA
ENDROOT
BRANCH   1   8
ATOM      5  C   LIG    1       -1.232   3.146   0.056  0.00  0.00    -0.150 A 
ATOM      6  C   LIG    1       -1.140   1.901  -0.573  0.00  0.00    +0.090 A 
ATOM      7  C   LIG    1        0.060   1.227  -0.589  0.00  0.00    -0.010 A 
ATOM      8  C   LIG    1        1.184   1.788   0.009  0.00  0.00    +0.190 A 
ATOM      9  C   LIG    1        1.100   3.029   0.630  0.00  0.00    +0.030 A 
ATOM     10  C   LIG    1       -0.099   3.708   0.656  0.00  0.00    +0.040 A 
ATOM     11 CL   LIG    1       -0.205   5.257   1.433  0.00  0.00    -0.020 Cl
BRANCH   5  15
ATOM     12  C   LIG    1       -4.883   4.045  -0.473  0.00  0.00    +0.290 C 
ATOM     13  N   LIG    1       -3.607   3.327  -0.498  0.00  0.00    -0.730 N 
ATOM     14  H   LIG    1       -3.546   2.461  -0.931  0.00  0.00    +0.400 HD
ATOM     15  C   LIG    1       -2.517   3.869   0.081  0.00  0.00    +0.550 C 
ATOM     16  O   LIG    1       -2.594   4.955   0.623  0.00  0.00    -0.510 OA
ENDBRANCH   5  15
ENDBRANCH   1   8
BRANCH   3  17
ATOM     17  C   LIG    1        4.832   1.060  -0.252  0.00  0.00    -0.230 A 
ATOM     18  C   LIG    1        6.042   1.762  -0.366  0.00  0.00    +0.160 A 
ATOM     19  C   LIG    1        7.203   1.047  -0.483  0.00  0.00    -0.050 A 
ATOM     20  C   LIG    1        7.151  -0.346  -0.485  0.00  0.00    +0.350 A 
ATOM     21  N   LIG    1        5.994  -0.985  -0.375  0.00  0.00    -0.520 NA
ATOM     22  C   LIG    1        4.855  -0.336  -0.255  0.00  0.00    +0.330 A 
BRANCH  20  23
ATOM     23  N   LIG    1        8.323  -1.073  -0.603  0.00  0.00    -0.490 N 
ATOM     24  C   LIG    1        9.120  -0.610  -1.761  0.00  0.00    +0.200 C 
ATOM     25  C   LIG    1       10.258  -1.535  -2.094  0.00  0.00    +0.040 C 
ATOM     26  C   LIG    1        9.782  -2.530  -3.173  0.00  0.00    +0.010 C 
ATOM     27  C   LIG    1        8.968  -3.603  -2.612  0.00  0.00    +0.000 C 
ATOM     28  C   LIG    1        7.686  -3.071  -1.938  0.00  0.00    +0.010 C 
ATOM     29  C   LIG    1        8.050  -2.527  -0.583  0.00  0.00    +0.230 C 
ENDBRANCH  20  23
ENDBRANCH   3  17
TORSDOF 4
