REMARK  Name = ZINCrg00000JKmtj.0
REMARK                            x       y       z     vdW  Elec       q    Type
REMARK                         _______ _______ _______ _____ _____    ______ ____
ROOT
ATOM      1  C   LIG    1       -5.156  -1.787   2.670  0.00  0.00    -0.010 C 
ATOM      2  C   LIG    1       -5.338  -2.243   1.198  0.00  0.00    +0.040 C 
ATOM      3  C   LIG    1       -3.976  -1.903   0.558  0.00  0.00    +0.240 C 
ATOM      4  N   LIG    1       -3.345  -0.872   1.395  0.00  0.00    -0.620 N 
ATOM      5  C   LIG    1       -2.132  -0.323   1.185  0.00  0.00    +0.540 C 
ATOM      6  O   LIG    1       -1.712   0.527   1.940  0.00  0.00    -0.520 OA
ATOM      7  C   LIG    1       -4.262  -0.534   2.499  0.00  0.00    +0.260 C 
ENDROOT
BRANCH   1   8
ATOM      8  C   LIG    1       -6.500  -1.419   3.301  0.00  0.00    +0.040 C 
BRANCH   8   9
ATOM      9  C   LIG    1       -7.304  -2.694   3.568  0.00  0.00    +0.280 C 
BRANCH   9  12
ATOM     10  O   LIG    1       -9.196  -4.476   4.287  0.00  0.00    -0.520 OA
ATOM     11  C   LIG    1       -9.471  -3.310   4.496  0.00  0.00    +0.570 C 
ATOM     12  N   LIG    1       -8.591  -2.342   4.172  0.00  0.00    -0.720 N 
ATOM     13  H   LIG    1       -8.811  -1.412   4.339  0.00  0.00    +0.400 HD
BRANCH  11  14
ATOM     14  C   LIG    1      -10.770  -2.955   5.106  0.00  0.00    -0.140 C 
ATOM     15  C   LIG    1      -11.096  -1.617   5.356  0.00  0.00    +0.110 C 
ATOM     16  C   LIG    1      -12.327  -1.337   5.925  0.00  0.00    +0.050 C 
ATOM     17  C   LIG    1      -13.183  -2.378   6.233  0.00  0.00    +0.290 C 
ATOM     18  N   LIG    1      -12.847  -3.631   5.990  0.00  0.00    -0.120 NA
ATOM     19  O   LIG    1      -13.757  -4.665   6.323  0.00  0.00    -0.540 OA
ATOM     20  C   LIG    1      -11.690  -3.948   5.446  0.00  0.00    +0.330 C 
ENDBRANCH  11  14
ENDBRANCH   9  12
ENDBRANCH   8   9
ENDBRANCH   1   8
BRANCH   5  21
ATOM     21  C   LIG    1       -1.298  -0.766   0.010  0.00  0.00    +0.140 C 
BRANCH  21  22
ATOM     22  C   LIG    1        0.002  -0.004   0.002  0.00  0.00    +0.130 A 
ATOM     23  C   LIG    1        1.198  -0.696  -0.014  0.00  0.00    +0.010 A 
ATOM     24  C   LIG    1        2.389   0.013  -0.021  0.00  0.00    +0.040 A 
ATOM     25  C   LIG    1        2.332   1.400  -0.013  0.00  0.00    +0.050 A 
ATOM     26  C   LIG    1        1.096   2.023   0.003  0.00  0.00    +0.250 A 
ATOM     27  F   LIG    1        3.468   2.132  -0.019  0.00  0.00    -0.130 F 
ATOM     28  N   LIG    1       -0.016   1.315   0.009  0.00  0.00    -0.430 NA
ENDBRANCH  21  22
ENDBRANCH   5  21
TORSDOF 6
