REMARK  Name = ZINCvU0000000ELd.0
REMARK                            x       y       z     vdW  Elec       q    Type
REMARK                         _______ _______ _______ _____ _____    ______ ____
ROOT
ATOM      1  S   LIG    1       -0.859   1.671   1.497  0.00  0.00    +0.060 S 
ENDROOT
BRANCH   1   2
ATOM      2  C   LIG    1        0.182   0.971   2.735  0.00  0.00    +0.200 A 
ATOM      3  C   LIG    1       -0.099   1.166   4.098  0.00  0.00    -0.260 A 
ATOM      4  S   LIG    1       -1.389   2.041   4.908  0.00  0.00    +0.190 S 
ATOM      5  C   LIG    1       -0.751   1.615   6.487  0.00  0.00    -0.080 A 
ATOM      6  C   LIG    1        0.351   0.868   6.363  0.00  0.00    +0.040 A 
ATOM      7  C   LIG    1        0.751   0.594   5.049  0.00  0.00    +0.190 A 
ATOM      8  N   LIG    1        1.808  -0.123   4.601  0.00  0.00    -0.500 NA
ATOM      9  C   LIG    1        2.028  -0.277   3.320  0.00  0.00    +0.530 A 
ATOM     10  N   LIG    1        1.243   0.247   2.395  0.00  0.00    -0.530 NA
BRANCH   5  11
ATOM     11  C   LIG    1       -1.350   2.025   7.776  0.00  0.00    -0.050 A 
ATOM     12  C   LIG    1       -0.765   1.626   8.978  0.00  0.00    +0.080 A 
ATOM     13  C   LIG    1       -1.324   2.015  10.177  0.00  0.00    -0.010 A 
ATOM     14  C   LIG    1       -2.472   2.792  10.189  0.00  0.00    +0.110 A 
ATOM     15  C   LIG    1       -3.060   3.186   8.998  0.00  0.00    -0.010 A 
ATOM     16  F   LIG    1       -3.019   3.166  11.366  0.00  0.00    -0.130 F 
ATOM     17  C   LIG    1       -2.506   2.807   7.793  0.00  0.00    +0.070 A 
ENDBRANCH   5  11
ENDBRANCH   1   2
BRANCH   1  18
ATOM     18  C   LIG    1       -0.009   1.091   0.008  0.00  0.00    +0.110 C 
BRANCH  18  21
ATOM     19  N   LIG    1       -0.288   1.272  -2.443  0.00  0.00    -0.660 N 
ATOM     20  H   LIG    1        0.547   0.789  -2.544  0.00  0.00    +0.410 HD
ATOM     21  C   LIG    1       -0.743   1.583  -1.213  0.00  0.00    +0.530 C 
ATOM     22  O   LIG    1       -1.742   2.259  -1.088  0.00  0.00    -0.500 OA
BRANCH  19  26
ATOM     23  C   LIG    1       -2.476   2.393  -5.815  0.00  0.00    +0.090 A 
ATOM     24  C   LIG    1       -2.447   3.216  -4.702  0.00  0.00    -0.010 A 
ATOM     25  C   LIG    1       -1.722   2.845  -3.584  0.00  0.00    +0.030 A 
ATOM     26  C   LIG    1       -1.022   1.647  -3.576  0.00  0.00    +0.140 A 
ATOM     27  C   LIG    1       -1.045   0.822  -4.693  0.00  0.00    -0.050 A 
ATOM     28  C   LIG    1       -1.775   1.190  -5.810  0.00  0.00    +0.120 A 
BRANCH  23  30
ATOM     29  C   LIG    1       -3.885   4.007  -6.850  0.00  0.00    +0.240 C 
ATOM     30  O   LIG    1       -3.190   2.760  -6.914  0.00  0.00    -0.310 OA
ENDBRANCH  23  30
BRANCH  28  31
ATOM     31  O   LIG    1       -1.803   0.381  -6.902  0.00  0.00    -0.300 OA
ATOM     32  C   LIG    1       -1.061  -0.837  -6.826  0.00  0.00    +0.240 C 
ENDBRANCH  28  31
ENDBRANCH  19  26
ENDBRANCH  18  21
ENDBRANCH   1  18
TORSDOF 7
