REMARK  Name = ZINCvU0000000BkE.0
REMARK                            x       y       z     vdW  Elec       q    Type
REMARK                         _______ _______ _______ _____ _____    ______ ____
ROOT
ATOM      1  O   LIG    1        3.125   3.250   0.380  0.00  0.00    -0.500 OA
ATOM      2  C   LIG    1        3.503   2.139   0.072  0.00  0.00    +0.530 C 
ATOM      3  N   LIG    1        2.643   1.268  -0.491  0.00  0.00    -0.540 N 
ENDROOT
BRANCH   3   4
ATOM      4  C   LIG    1        1.340   1.673  -0.805  0.00  0.00    +0.140 A 
ATOM      5  C   LIG    1        0.499   0.825  -1.513  0.00  0.00    +0.000 A 
ATOM      6  C   LIG    1       -0.784   1.229  -1.826  0.00  0.00    +0.010 A 
ATOM      7  C   LIG    1       -1.236   2.475  -1.426  0.00  0.00    +0.070 A 
ATOM      8  C   LIG    1       -0.399   3.323  -0.720  0.00  0.00    +0.010 A 
ATOM      9  F   LIG    1       -2.493   2.866  -1.729  0.00  0.00    -0.140 F 
ATOM     10  C   LIG    1        0.887   2.925  -0.409  0.00  0.00    +0.050 A 
ENDBRANCH   3   4
BRANCH   2  11
ATOM     11  C   LIG    1        4.933   1.734   0.320  0.00  0.00    -0.010 C 
ATOM     12  C   LIG    1        5.021   0.945   1.629  0.00  0.00    +0.060 C 
ATOM     13  C   LIG    1        6.484   0.588   1.906  0.00  0.00    +0.190 C 
ATOM     14  N   LIG    1        7.279   1.819   2.000  0.00  0.00    -0.500 N 
ATOM     15  C   LIG    1        7.248   2.570   0.739  0.00  0.00    +0.190 C 
ATOM     16  C   LIG    1        5.808   2.985   0.427  0.00  0.00    +0.080 C 
BRANCH  14  17
ATOM     17  C   LIG    1        8.593   1.537   2.382  0.00  0.00    +0.160 A 
ATOM     18  C   LIG    1        9.386   0.712   1.595  0.00  0.00    -0.010 A 
ATOM     19  C   LIG    1       10.686   0.440   1.973  0.00  0.00    +0.080 A 
ATOM     20  C   LIG    1       11.196   0.980   3.139  0.00  0.00    +0.030 A 
ATOM     21  C   LIG    1       10.408   1.797   3.929  0.00  0.00    +0.110 A 
ATOM     22  C   LIG    1        9.108   2.078   3.554  0.00  0.00    -0.030 A 
BRANCH  22  23
ATOM     23  N   LIG    1        8.266   2.953   4.399  0.00  0.00    +0.020 N 
ATOM     24  O   LIG    1        7.092   3.122   4.121  0.00  0.00    -0.090 OA
ATOM     25  O   LIG    1        8.746   3.505   5.373  0.00  0.00    -0.200 OA
ENDBRANCH  22  23
ENDBRANCH  14  17
ENDBRANCH   2  11
BRANCH   3  26
ATOM     26  C   LIG    1        3.071  -0.104  -0.775  0.00  0.00    +0.380 C 
BRANCH  26  27
ATOM     27  C   LIG    1        3.526  -0.202  -2.209  0.00  0.00    -0.220 A 
ATOM     28  C   LIG    1        4.773   0.003  -2.636  0.00  0.00    +0.020 A 
ATOM     29  C   LIG    1        4.953  -0.143  -4.001  0.00  0.00    +0.000 A 
ATOM     30  C   LIG    1        3.853  -0.467  -4.682  0.00  0.00    -0.030 A 
ATOM     31  S   LIG    1        2.494  -0.610  -3.574  0.00  0.00    +0.120 S 
ENDBRANCH  26  27
ENDBRANCH   3  26
TORSDOF 6
