REMARK  Name = ZINCvU0000000GQ7.0
REMARK                            x       y       z     vdW  Elec       q    Type
REMARK                         _______ _______ _______ _____ _____    ______ ____
ROOT
ATOM      1  C   LIG    1       -5.161   3.857   0.767  0.00  0.00    -0.150 C 
ATOM      2  C   LIG    1       -5.973   3.171  -0.109  0.00  0.00    +0.250 C 
ENDROOT
BRANCH   2   3
ATOM      3  C   LIG    1       -5.964   1.707  -0.122  0.00  0.00    -0.150 A 
ATOM      4  C   LIG    1       -4.750   1.010  -0.039  0.00  0.00    +0.130 A 
ATOM      5  C   LIG    1       -4.749  -0.356  -0.045  0.00  0.00    -0.090 A 
ATOM      6  C   LIG    1       -5.948  -1.056  -0.146  0.00  0.00    +0.160 A 
ATOM      7  C   LIG    1       -7.155  -0.369  -0.234  0.00  0.00    -0.020 A 
ATOM      8  C   LIG    1       -7.169   0.996  -0.223  0.00  0.00    +0.110 A 
BRANCH   6   9
ATOM      9  O   LIG    1       -5.939  -2.412  -0.157  0.00  0.00    -0.300 OA
BRANCH   9  10
ATOM     10  C   LIG    1       -4.666  -3.054  -0.063  0.00  0.00    +0.260 C 
BRANCH  10  11
ATOM     11  C   LIG    1       -4.854  -4.549  -0.092  0.00  0.00    -0.050 A 
ATOM     12  C   LIG    1       -5.030  -5.265   1.083  0.00  0.00    -0.010 A 
ATOM     13  C   LIG    1       -5.203  -6.634   1.017  0.00  0.00    +0.260 A 
ATOM     14  N   LIG    1       -5.193  -7.261  -0.143  0.00  0.00    -0.480 NA
ATOM     15  C   LIG    1       -5.024  -6.613  -1.279  0.00  0.00    +0.260 A 
ATOM     16  C   LIG    1       -4.849  -5.243  -1.292  0.00  0.00    -0.010 A 
ENDBRANCH  10  11
ENDBRANCH   9  10
ENDBRANCH   6   9
ENDBRANCH   2   3
BRANCH   1  17
ATOM     17  C   LIG    1       -4.497   3.143   1.868  0.00  0.00    +0.570 C 
ATOM     18  N   LIG    1       -3.586   3.778   2.631  0.00  0.00    -0.670 N 
ATOM     19  H   LIG    1       -3.419   4.725   2.500  0.00  0.00    +0.410 HD
ATOM     20  O   LIG    1       -4.771   1.978   2.090  0.00  0.00    -0.490 OA
BRANCH  18  21
ATOM     21  C   LIG    1       -2.881   3.073   3.611  0.00  0.00    +0.140 A 
ATOM     22  C   LIG    1       -1.556   3.392   3.881  0.00  0.00    +0.030 A 
ATOM     23  C   LIG    1       -0.862   2.690   4.847  0.00  0.00    +0.040 A 
ATOM     24  C   LIG    1       -1.486   1.677   5.551  0.00  0.00    +0.050 A 
ATOM     25  C   LIG    1       -2.806   1.360   5.288  0.00  0.00    -0.160 A 
ATOM     26  C   LIG    1       -3.505   2.054   4.320  0.00  0.00    +0.080 A 
BRANCH  25  27
ATOM     27  C   LIG    1       -3.482   0.255   6.057  0.00  0.00    +0.510 C 
ATOM     28  F   LIG    1       -3.909  -0.739   5.169  0.00  0.00    -0.170 F 
ATOM     29  F   LIG    1       -4.586   0.772   6.744  0.00  0.00    -0.180 F 
ATOM     30  F   LIG    1       -2.580  -0.296   6.974  0.00  0.00    -0.180 F 
ENDBRANCH  25  27
ENDBRANCH  18  21
ENDBRANCH   1  17
BRANCH   1  32
ATOM     31  N   LIG    1       -4.806   6.384   0.478  0.00  0.00    -0.400 NA
ATOM     32  C   LIG    1       -4.963   5.267   0.606  0.00  0.00    +0.240 C 
ENDBRANCH   1  32
TORSDOF 8
