REMARK  Name = ZINCqH0000033mbA.1
REMARK                            x       y       z     vdW  Elec       q    Type
REMARK                         _______ _______ _______ _____ _____    ______ ____
ROOT
ATOM      1  C   LIG    1       -0.763   1.963  -1.065  0.00  0.00    +0.050 A 
ATOM      2  C   LIG    1       -0.391   1.664  -2.367  0.00  0.00    +0.030 A 
ATOM      3  C   LIG    1       -1.129   2.157  -3.428  0.00  0.00    +0.020 A 
ATOM      4  C   LIG    1       -2.239   2.947  -3.195  0.00  0.00    -0.130 A 
ATOM      5  C   LIG    1       -2.618   3.250  -1.900  0.00  0.00    -0.010 A 
ATOM      6  C   LIG    1       -1.887   2.756  -0.831  0.00  0.00    +0.240 A 
ENDROOT
BRANCH   1  10
ATOM      7  N   LIG    1        2.123   0.034   1.224  0.00  0.00    -0.540 NA
ATOM      8  C   LIG    1        0.757  -0.508   1.234  0.00  0.00    +0.180 C 
ATOM      9  C   LIG    1        0.002  -0.004   0.002  0.00  0.00    +0.190 C 
ATOM     10  N   LIG    1       -0.018   1.465   0.010  0.00  0.00    -0.500 N 
ATOM     11  C   LIG    1        1.348   2.008   0.000  0.00  0.00    +0.190 C 
ATOM     12  C   LIG    1        2.103   1.504   1.232  0.00  0.00    +0.180 C 
BRANCH   7  14
ATOM     13  C   LIG    1        4.225   0.279   2.456  0.00  0.00    +0.020 C 
ATOM     14  C   LIG    1        2.905  -0.488   2.352  0.00  0.00    +0.160 C 
ENDBRANCH   7  14
ENDBRANCH   1  10
BRANCH   4  15
ATOM     15  C   LIG    1       -3.038   3.481  -4.356  0.00  0.00    +0.510 C 
ATOM     16  F   LIG    1       -3.035   4.879  -4.320  0.00  0.00    -0.180 F 
ATOM     17  F   LIG    1       -4.354   3.014  -4.271  0.00  0.00    -0.180 F 
ATOM     18  F   LIG    1       -2.465   3.044  -5.556  0.00  0.00    -0.180 F 
ENDBRANCH   4  15
BRANCH   6  19
ATOM     19  N   LIG    1       -2.272   3.057   0.481  0.00  0.00    -0.730 N 
ATOM     20  H   LIG    1       -1.758   2.713   1.229  0.00  0.00    +0.420 HD
BRANCH  19  21
ATOM     21  C   LIG    1       -3.452   3.889   0.726  0.00  0.00    +0.420 C 
BRANCH  21  22
ATOM     22  C   LIG    1       -3.648   4.061   2.210  0.00  0.00    +0.170 A 
ATOM     23  N   LIG    1       -3.138   5.014   2.937  0.00  0.00    -0.460 NA
ATOM     24  C   LIG    1       -3.530   4.840   4.212  0.00  0.00    -0.020 A 
ATOM     25  C   LIG    1       -4.304   3.743   4.255  0.00  0.00    +0.160 A 
ATOM     26  C   LIG    1       -3.167   5.718   5.382  0.00  0.00    +0.170 C 
ATOM     27  O   LIG    1       -4.378   3.261   2.998  0.00  0.00    -0.190 OA
ENDBRANCH  21  22
ENDBRANCH  19  21
ENDBRANCH   6  19
TORSDOF 6
