REMARK  Name = ZINCvU0000000HZX.0
REMARK                            x       y       z     vdW  Elec       q    Type
REMARK                         _______ _______ _______ _____ _____    ______ ____
ROOT
ATOM      1  N   LIG    1        0.995   2.447  -0.045  0.00  0.00    -0.560 N 
ATOM      2  C   LIG    1        0.940   1.112   0.019  0.00  0.00    +0.710 C 
ATOM      3  N   LIG    1       -0.323   0.650   0.063  0.00  0.00    -0.710 N 
ATOM      4  H   LIG    1       -0.599  -0.278   0.112  0.00  0.00    +0.440 HD
ATOM      5  C   LIG    1       -1.204   1.830   0.017  0.00  0.00    +0.170 C 
ATOM      6  C   LIG    1       -2.090   1.791  -1.230  0.00  0.00    +0.100 C 
ATOM      7  O   LIG    1        1.922   0.395   0.036  0.00  0.00    -0.530 OA
ATOM      8  C   LIG    1       -0.237   2.995  -0.050  0.00  0.00    +0.540 C 
ATOM      9  O   LIG    1       -0.513   4.174  -0.101  0.00  0.00    -0.450 OA
ENDROOT
BRANCH   5  10
ATOM     10  C   LIG    1       -2.045   1.913   1.265  0.00  0.00    -0.090 A 
ATOM     11  C   LIG    1       -1.965   0.936   2.209  0.00  0.00    +0.040 A 
ATOM     12  C   LIG    1       -2.732   0.998   3.372  0.00  0.00    +0.010 A 
ATOM     13  C   LIG    1       -3.590   2.031   3.591  0.00  0.00    +0.040 A 
ATOM     14  C   LIG    1       -3.704   3.056   2.636  0.00  0.00    -0.050 A 
ATOM     15  C   LIG    1       -4.579   4.138   2.827  0.00  0.00    +0.020 A 
ATOM     16  C   LIG    1       -4.663   5.112   1.880  0.00  0.00    +0.010 A 
ATOM     17  C   LIG    1       -3.893   5.053   0.720  0.00  0.00    +0.010 A 
ATOM     18  C   LIG    1       -3.035   4.019   0.500  0.00  0.00    +0.040 A 
ATOM     19  C   LIG    1       -2.921   2.995   1.456  0.00  0.00    -0.040 A 
ENDBRANCH   5  10
BRANCH   1  20
ATOM     20  C   LIG    1        2.239   3.218  -0.102  0.00  0.00    +0.330 C 
BRANCH  20  21
ATOM     21  C   LIG    1        2.641   3.416  -1.541  0.00  0.00    +0.410 C 
ATOM     22  O   LIG    1        1.956   2.957  -2.432  0.00  0.00    -0.430 OA
BRANCH  21  25
ATOM     23  C   LIG    1        3.537   3.871  -4.319  0.00  0.00    +0.130 C 
ATOM     24  C   LIG    1        4.267   4.368  -3.099  0.00  0.00    +0.030 A 
ATOM     25  C   LIG    1        3.821   4.137  -1.855  0.00  0.00    -0.280 A 
ATOM     26  S   LIG    1        4.896   4.857  -0.669  0.00  0.00    +0.130 S 
ATOM     27  C   LIG    1        5.962   5.465  -1.930  0.00  0.00    -0.120 A 
ATOM     28  C   LIG    1        7.146   6.204  -1.842  0.00  0.00    +0.040 A 
ATOM     29  C   LIG    1        7.815   6.578  -2.983  0.00  0.00    +0.060 A 
ATOM     30  C   LIG    1        7.318   6.224  -4.232  0.00  0.00    +0.010 A 
ATOM     31  C   LIG    1        6.169   5.505  -4.344  0.00  0.00    +0.070 A 
ATOM     32  C   LIG    1        5.457   5.105  -3.187  0.00  0.00    -0.100 A 
ENDBRANCH  21  25
ENDBRANCH  20  21
ENDBRANCH   1  20
TORSDOF 4
