REMARK  Name = ZINCrg000000qttb.0
REMARK                            x       y       z     vdW  Elec       q    Type
REMARK                         _______ _______ _______ _____ _____    ______ ____
ROOT
ATOM      1  C   LIG    1       -7.043   4.889  -1.536  0.00  0.00    +0.560 C 
ATOM      2  N   LIG    1       -5.722   5.021  -1.302  0.00  0.00    -0.720 N 
ATOM      3  H   LIG    1       -5.102   5.088  -2.045  0.00  0.00    +0.400 HD
ATOM      4  O   LIG    1       -7.820   4.805  -0.606  0.00  0.00    -0.520 OA
ENDROOT
BRANCH   1   8
ATOM      5  C   LIG    1       -8.489   4.765  -5.529  0.00  0.00    -0.650 A 
ATOM      6  C   LIG    1       -9.376   4.669  -4.471  0.00  0.00    +0.130 A 
ATOM      7  C   LIG    1       -8.913   4.708  -3.172  0.00  0.00    +0.070 A 
ATOM      8  C   LIG    1       -7.546   4.845  -2.926  0.00  0.00    -0.080 A 
ATOM      9  C   LIG    1       -6.657   4.947  -3.997  0.00  0.00    +0.030 A 
ATOM     10  C   LIG    1       -7.132   4.901  -5.291  0.00  0.00    +0.130 A 
BRANCH   5  11
ATOM     11  S   LIG    1       -9.088   4.712  -7.184  0.00  0.00    +2.720 S 
ATOM     12  O   LIG    1      -10.338   4.038  -7.138  0.00  0.00    -0.930 OA
ATOM     13  O   LIG    1       -8.002   4.279  -7.991  0.00  0.00    -0.930 OA
BRANCH  11  14
ATOM     14  N   LIG    1       -9.415   6.271  -7.637  0.00  0.00    -0.990 NA
ATOM     15  H   LIG    1      -10.327   6.540  -7.829  0.00  0.00    +0.420 HD
BRANCH  14  17
ATOM     16  C   LIG    1       -8.788   8.517  -8.143  0.00  0.00    +0.230 C 
ATOM     17  O   LIG    1       -8.362   7.213  -7.744  0.00  0.00    -0.130 OA
ENDBRANCH  14  17
ENDBRANCH  11  14
ENDBRANCH   5  11
ENDBRANCH   1   8
BRANCH   2  18
ATOM     18  C   LIG    1       -5.223   5.064   0.075  0.00  0.00    +0.340 C 
BRANCH  18  19
ATOM     19  C   LIG    1       -3.724   5.216   0.062  0.00  0.00    -0.040 A 
ATOM     20  C   LIG    1       -3.138   6.474   0.062  0.00  0.00    -0.020 A 
ATOM     21  C   LIG    1       -1.761   6.577   0.050  0.00  0.00    +0.310 A 
ATOM     22  N   LIG    1       -1.001   5.499   0.038  0.00  0.00    -0.500 NA
ATOM     23  C   LIG    1       -1.523   4.283   0.038  0.00  0.00    +0.380 A 
ATOM     24  C   LIG    1       -2.900   4.104   0.044  0.00  0.00    +0.000 A 
BRANCH  23  25
ATOM     25  N   LIG    1       -0.679   3.168   0.025  0.00  0.00    -0.330 N 
ATOM     26  C   LIG    1        0.679   3.192   0.012  0.00  0.00    +0.260 A 
ATOM     27  C   LIG    1        1.111   1.910   0.002  0.00  0.00    -0.100 A 
ATOM     28  C   LIG    1       -0.013   1.076   0.008  0.00  0.00    +0.270 A 
ATOM     29  N   LIG    1       -1.084   1.827   0.017  0.00  0.00    -0.290 NA
ENDBRANCH  23  25
ENDBRANCH  18  19
ENDBRANCH   2  18
TORSDOF 7
