REMARK  Name = ZINCkj000005kxsh.0
REMARK                            x       y       z     vdW  Elec       q    Type
REMARK                         _______ _______ _______ _____ _____    ______ ____
ROOT
ATOM      1  N   LIG    1       -1.376  -0.512   0.012  0.00  0.00    -0.490 N 
ATOM      2  H   LIG    1       -1.364  -1.518  -0.076  0.00  0.00    +0.440 HD
ATOM      3  H   LIG    1       -1.888  -0.113  -0.760  0.00  0.00    +0.440 HD
ENDROOT
BRANCH   1   9
ATOM      4  C   LIG    1       -2.814  -0.575   7.231  0.00  0.00    +0.150 C 
ATOM      5  C   LIG    1       -2.778  -0.528   5.725  0.00  0.00    +0.020 A 
ATOM      6  C   LIG    1       -1.716  -0.825   4.949  0.00  0.00    +0.130 A 
ATOM      7  N   LIG    1       -2.115  -0.653   3.657  0.00  0.00    -0.470 N 
ATOM      8  C   LIG    1       -1.323  -0.847   2.440  0.00  0.00    +0.300 C 
ATOM      9  C   LIG    1       -2.026  -0.140   1.276  0.00  0.00    +0.170 C 
ATOM     10  C   LIG    1       -3.498  -0.560   1.236  0.00  0.00    +0.060 C 
ATOM     11  C   LIG    1       -4.227   0.037   2.447  0.00  0.00    +0.200 C 
ATOM     12  C   LIG    1       -3.410  -0.258   3.682  0.00  0.00    +0.200 A 
ATOM     13  N   LIG    1       -3.798  -0.185   4.922  0.00  0.00    -0.460 NA
ENDBRANCH   1   9
BRANCH   1  14
ATOM     14  C   LIG    1        0.002  -0.004   0.002  0.00  0.00    +0.160 C 
ATOM     15  C   LIG    1       -0.019   1.526   0.010  0.00  0.00    +0.120 C 
BRANCH  14  16
ATOM     16  C   LIG    1        0.707  -0.490  -1.238  0.00  0.00    +0.510 C 
ATOM     17  N   LIG    1        1.991  -0.146  -1.462  0.00  0.00    -0.690 N 
ATOM     18  H   LIG    1        2.461   0.415  -0.825  0.00  0.00    +0.410 HD
ATOM     19  O   LIG    1        0.120  -1.191  -2.034  0.00  0.00    -0.520 OA
BRANCH  17  20
ATOM     20  C   LIG    1        2.677  -0.618  -2.667  0.00  0.00    +0.170 C 
ATOM     21  C   LIG    1        2.698  -2.148  -2.675  0.00  0.00    +0.050 C 
ATOM     22  C   LIG    1        4.112  -0.089  -2.678  0.00  0.00    +0.070 C 
ATOM     23  C   LIG    1        1.937  -0.111  -3.906  0.00  0.00    +0.050 C 
ENDBRANCH  17  20
ENDBRANCH  14  16
ENDBRANCH   1  14
TORSDOF 4
