REMARK  Name = ZINCrD000000Crsx.0
REMARK                            x       y       z     vdW  Elec       q    Type
REMARK                         _______ _______ _______ _____ _____    ______ ____
ROOT
ATOM      1  O   LIG    1       -3.475   4.775  -1.924  0.00  0.00    -0.480 OA
ATOM      2  C   LIG    1       -2.607   4.858  -1.088  0.00  0.00    +0.480 C 
ENDROOT
BRANCH   2   3
ATOM      3  C   LIG    1       -2.555   3.867   0.046  0.00  0.00    -0.000 C 
ATOM      4  C   LIG    1       -2.737   4.595   1.394  0.00  0.00    +0.050 C 
ATOM      5  C   LIG    1       -4.249   4.455   1.700  0.00  0.00    +0.020 C 
ATOM      6  C   LIG    1       -4.567   3.022   1.205  0.00  0.00    +0.020 C 
ATOM      7  C   LIG    1       -3.719   2.867  -0.074  0.00  0.00    +0.060 C 
BRANCH   3   8
ATOM      8  C   LIG    1       -1.240   3.132   0.030  0.00  0.00    -0.120 A 
ATOM      9  C   LIG    1       -0.326   3.327   1.048  0.00  0.00    +0.060 A 
ATOM     10  C   LIG    1        0.883   2.657   1.031  0.00  0.00    +0.000 A 
ATOM     11  C   LIG    1        1.176   1.784  -0.000  0.00  0.00    +0.060 A 
ATOM     12  C   LIG    1        0.262   1.583  -1.018  0.00  0.00    -0.010 A 
ATOM     13  C   LIG    1       -0.947   2.257  -1.004  0.00  0.00    +0.100 A 
ATOM     14  F   LIG    1       -1.841   2.063  -1.998  0.00  0.00    -0.130 F 
ENDBRANCH   3   8
ENDBRANCH   2   3
BRANCH   2  15
ATOM     15  O   LIG    1       -1.688   5.832  -1.170  0.00  0.00    -0.350 OA
BRANCH  15  16
ATOM     16  C   LIG    1       -1.799   6.751  -2.288  0.00  0.00    +0.370 C 
BRANCH  16  17
ATOM     17  C   LIG    1       -0.690   7.769  -2.215  0.00  0.00    +0.240 A 
ATOM     18  N   LIG    1       -0.738   8.924  -1.604  0.00  0.00    -0.300 NA
ATOM     19  N   LIG    1        0.378   9.549  -1.730  0.00  0.00    -0.030 NA
ATOM     20  N   LIG    1        1.204   8.849  -2.430  0.00  0.00    -0.060 NA
ATOM     21  N   LIG    1        0.535   7.660  -2.772  0.00  0.00    -0.310 N 
BRANCH  21  22
ATOM     22  C   LIG    1        1.034   6.591  -3.530  0.00  0.00    +0.110 A 
ATOM     23  C   LIG    1        0.665   5.288  -3.222  0.00  0.00    +0.020 A 
ATOM     24  C   LIG    1        1.154   4.237  -3.973  0.00  0.00    +0.040 A 
ATOM     25  C   LIG    1        2.019   4.481  -5.024  0.00  0.00    +0.040 A 
ATOM     26  C   LIG    1        2.393   5.776  -5.330  0.00  0.00    +0.040 A 
ATOM     27  C   LIG    1        1.903   6.832  -4.586  0.00  0.00    +0.050 A 
ENDBRANCH  21  22
ENDBRANCH  16  17
ENDBRANCH  15  16
ENDBRANCH   2  15
TORSDOF 6
