REMARK  Name = ZINCpk00001AZiIK.0
REMARK                            x       y       z     vdW  Elec       q    Type
REMARK                         _______ _______ _______ _____ _____    ______ ____
ROOT
ATOM      1  C   LIG    1        1.454   2.064  -0.003  0.00  0.00    +0.280 C 
ENDROOT
BRANCH   1   3
ATOM      2  C   LIG    1        2.970   0.428  -1.213  0.00  0.00    +0.290 C 
ATOM      3  N   LIG    1        2.148   1.641  -1.222  0.00  0.00    -0.600 N 
ATOM      4  C   LIG    1        2.031   2.368  -2.351  0.00  0.00    +0.570 C 
ATOM      5  O   LIG    1        1.288   3.330  -2.380  0.00  0.00    -0.520 OA
BRANCH   4   6
ATOM      6  C   LIG    1        2.805   1.995  -3.554  0.00  0.00    -0.170 A 
ATOM      7  C   LIG    1        2.964   0.651  -3.909  0.00  0.00    +0.120 A 
ATOM      8  C   LIG    1        3.697   0.355  -5.045  0.00  0.00    +0.000 A 
ATOM      9  C   LIG    1        4.245   1.387  -5.785  0.00  0.00    +0.070 A 
ATOM     10  N   LIG    1        4.078   2.646  -5.426  0.00  0.00    -0.450 NA
ATOM     11  C   LIG    1        3.385   2.978  -4.357  0.00  0.00    +0.330 A 
BRANCH   9  12
ATOM     12  C   LIG    1        5.044   1.070  -7.023  0.00  0.00    +0.460 C 
ATOM     13  F   LIG    1        5.664  -0.175  -6.870  0.00  0.00    -0.190 F 
ATOM     14  F   LIG    1        6.018   2.055  -7.215  0.00  0.00    -0.180 F 
ENDBRANCH   9  12
ENDBRANCH   4   6
ENDBRANCH   1   3
BRANCH   1  15
ATOM     15  C   LIG    1        0.062   1.429   0.038  0.00  0.00    +0.190 C 
BRANCH  15  16
ATOM     16  O   LIG    1        0.189   0.010   0.148  0.00  0.00    -0.550 OA
ATOM     17  H   LIG    1        0.660  -0.283   0.940  0.00  0.00    +0.380 HD
ENDBRANCH  15  16
BRANCH  15  18
ATOM     18  C   LIG    1       -0.709   1.967   1.245  0.00  0.00    +0.250 C 
BRANCH  18  19
ATOM     19  N   LIG    1       -2.041   1.359   1.283  0.00  0.00    -0.700 N 
ATOM     20  H   LIG    1       -2.303   0.721   0.601  0.00  0.00    +0.420 HD
BRANCH  19  21
ATOM     21  C   LIG    1       -2.931   1.697   2.299  0.00  0.00    +0.350 A 
ATOM     22  C   LIG    1       -2.554   2.607   3.281  0.00  0.00    +0.200 A 
ATOM     23  N   LIG    1       -3.402   2.930   4.241  0.00  0.00    -0.430 NA
ATOM     24  C   LIG    1       -4.605   2.379   4.275  0.00  0.00    +0.190 A 
ATOM     25  C   LIG    1       -4.981   1.469   3.301  0.00  0.00    +0.280 A 
ATOM     26  F   LIG    1       -5.469   2.707   5.261  0.00  0.00    -0.110 F 
ATOM     27  N   LIG    1       -4.138   1.147   2.335  0.00  0.00    -0.480 NA
ENDBRANCH  19  21
ENDBRANCH  18  19
ENDBRANCH  15  18
ENDBRANCH   1  15
TORSDOF 8
