REMARK  Name = ZINCvU0000000A3m.0
REMARK                            x       y       z     vdW  Elec       q    Type
REMARK                         _______ _______ _______ _____ _____    ______ ____
ROOT
ATOM      1  C   LIG    1        0.481   5.149   1.804  0.00  0.00    +0.570 C 
ATOM      2  N   LIG    1        0.337   3.979   1.151  0.00  0.00    -0.640 N 
ATOM      3  H   LIG    1        0.732   3.862   0.273  0.00  0.00    +0.410 HD
ATOM      4  O   LIG    1       -0.015   5.295   2.905  0.00  0.00    -0.470 OA
ENDROOT
BRANCH   1  10
ATOM      5  C   LIG    1        1.393   7.479   1.854  0.00  0.00    +0.160 A 
ATOM      6  N   LIG    1        2.081   8.463   1.294  0.00  0.00    -0.490 NA
ATOM      7  C   LIG    1        2.630   8.336   0.102  0.00  0.00    +0.320 A 
ATOM      8  C   LIG    1        2.517   7.160  -0.618  0.00  0.00    -0.040 A 
ATOM      9  C   LIG    1        1.815   6.096  -0.081  0.00  0.00    +0.120 A 
ATOM     10  C   LIG    1        1.239   6.250   1.185  0.00  0.00    -0.180 A 
BRANCH   5  11
ATOM     11  S   LIG    1        0.673   7.706   3.446  0.00  0.00    +0.070 S 
BRANCH  11  12
ATOM     12  C   LIG    1        1.187   9.409   3.782  0.00  0.00    +0.130 C 
BRANCH  12  19
ATOM     13  C   LIG    1        2.660   9.098   6.657  0.00  0.00    +0.160 C 
ATOM     14  C   LIG    1        1.305   9.701   6.389  0.00  0.00    +0.030 A 
ATOM     15  N   LIG    1        0.487  10.203   7.269  0.00  0.00    -0.360 NA
ATOM     16  O   LIG    1       -0.527  10.611   6.752  0.00  0.00    +0.100 OA
ATOM     17  C   LIG    1       -0.510  10.432   5.424  0.00  0.00    -0.010 A 
ATOM     18  C   LIG    1       -1.590  10.819   4.447  0.00  0.00    +0.190 C 
ATOM     19  C   LIG    1        0.669   9.832   5.133  0.00  0.00    -0.200 A 
ENDBRANCH  12  19
ENDBRANCH  11  12
ENDBRANCH   5  11
ENDBRANCH   1  10
BRANCH   2  20
ATOM     20  C   LIG    1       -0.381   2.937   1.736  0.00  0.00    +0.300 A 
ATOM     21  C   LIG    1       -1.079   2.997   2.903  0.00  0.00    -0.100 A 
ATOM     22  C   LIG    1       -1.642   1.738   3.130  0.00  0.00    +0.250 A 
ATOM     23  N   LIG    1       -1.306   0.950   2.142  0.00  0.00    -0.270 NA
ATOM     24  N   LIG    1       -0.514   1.678   1.245  0.00  0.00    -0.380 N 
BRANCH  24  25
ATOM     25  C   LIG    1        0.072   1.170   0.002  0.00  0.00    +0.380 C 
BRANCH  25  26
ATOM     26  C   LIG    1        1.383   0.490   0.306  0.00  0.00    -0.110 A 
ATOM     27  C   LIG    1        2.567   1.196   0.207  0.00  0.00    +0.030 A 
ATOM     28  C   LIG    1        3.768   0.574   0.490  0.00  0.00    +0.010 A 
ATOM     29  C   LIG    1        3.787  -0.757   0.862  0.00  0.00    +0.050 A 
ATOM     30  C   LIG    1        2.604  -1.466   0.956  0.00  0.00    +0.030 A 
ATOM     31  C   LIG    1        1.401  -0.842   0.678  0.00  0.00    -0.010 A 
ATOM     32 CL   LIG    1       -0.086  -1.731   0.797  0.00  0.00    -0.040 Cl
ENDBRANCH  25  26
ENDBRANCH  24  25
ENDBRANCH   2  20
TORSDOF 7
