REMARK  Name = ZINCpe000000YcNb.0
REMARK                            x       y       z     vdW  Elec       q    Type
REMARK                         _______ _______ _______ _____ _____    ______ ____
ROOT
ATOM      1  C   LIG    1       -1.412  -0.526   0.013  0.00  0.00    +0.530 C 
ATOM      2  N   LIG    1       -1.640  -1.854   0.008  0.00  0.00    -0.720 N 
ATOM      3  H   LIG    1       -0.894  -2.474  -0.003  0.00  0.00    +0.410 HD
ATOM      4  O   LIG    1       -2.344   0.250   0.026  0.00  0.00    -0.520 OA
ENDROOT
BRANCH   2   5
ATOM      5  C   LIG    1       -3.014  -2.361   0.018  0.00  0.00    +0.250 C 
ATOM      6  C   LIG    1       -3.060  -3.812  -0.514  0.00  0.00    +0.050 C 
ATOM      7  C   LIG    1       -4.152  -4.441   0.380  0.00  0.00    +0.260 C 
ATOM      8  N   LIG    1       -4.155  -3.645   1.613  0.00  0.00    -0.620 N 
ATOM      9  C   LIG    1       -3.528  -2.470   1.437  0.00  0.00    +0.500 C 
ATOM     10  O   LIG    1       -3.393  -1.620   2.292  0.00  0.00    -0.500 OA
BRANCH   8  11
ATOM     11  C   LIG    1       -4.765  -4.077   2.873  0.00  0.00    +0.250 C 
ATOM     12  C   LIG    1       -5.853  -3.080   3.284  0.00  0.00    -0.000 C 
ATOM     13  C   LIG    1       -6.427  -3.494   4.641  0.00  0.00    +0.220 C 
ATOM     14  O   LIG    1       -5.375  -3.555   5.606  0.00  0.00    -0.380 OA
ATOM     15  C   LIG    1       -4.354  -4.505   5.298  0.00  0.00    +0.220 C 
ATOM     16  C   LIG    1       -3.694  -4.130   3.968  0.00  0.00    -0.010 C 
ENDBRANCH   8  11
ENDBRANCH   2   5
BRANCH   1  17
ATOM     17  C   LIG    1        0.002  -0.004   0.002  0.00  0.00    +0.040 C 
BRANCH  17  18
ATOM     18  C   LIG    1       -0.019   1.526   0.010  0.00  0.00    +0.330 C 
BRANCH  18  22
ATOM     19  C   LIG    1        4.187   3.097  -2.197  0.00  0.00    +0.170 C 
ATOM     20  C   LIG    1        3.251   2.741  -1.070  0.00  0.00    -0.200 A 
ATOM     21  C   LIG    1        2.010   2.285  -1.169  0.00  0.00    +0.090 A 
ATOM     22  N   LIG    1        1.356   2.033   0.000  0.00  0.00    -0.530 N 
ATOM     23  C   LIG    1        2.021   2.274   1.141  0.00  0.00    +0.480 A 
ATOM     24  O   LIG    1        1.609   2.118   2.277  0.00  0.00    -0.470 OA
ATOM     25  C   LIG    1        1.356   2.056  -2.507  0.00  0.00    +0.150 C 
ATOM     26  S   LIG    1        3.575   2.845   0.669  0.00  0.00    +0.000 S 
ENDBRANCH  18  22
ENDBRANCH  17  18
ENDBRANCH   1  17
TORSDOF 5
