REMARK  Name = ZINCqH0000005j0b.0
REMARK                            x       y       z     vdW  Elec       q    Type
REMARK                         _______ _______ _______ _____ _____    ______ ____
ROOT
ATOM      1  C   LIG    1        7.111   5.292   2.040  0.00  0.00    +0.280 C 
ATOM      2  N   LIG    1        5.846   5.581   1.361  0.00  0.00    -0.610 N 
ATOM      3  C   LIG    1        4.872   6.252   2.008  0.00  0.00    +0.520 C 
ATOM      4  O   LIG    1        3.824   6.492   1.446  0.00  0.00    -0.510 OA
ENDROOT
BRANCH   3   5
ATOM      5  C   LIG    1        5.085   6.705   3.430  0.00  0.00    +0.240 C 
BRANCH   5   6
ATOM      6  O   LIG    1        3.918   7.388   3.892  0.00  0.00    -0.270 OA
BRANCH   6   7
ATOM      7  C   LIG    1        3.946   7.865   5.165  0.00  0.00    +0.130 A 
ATOM      8  C   LIG    1        5.070   7.672   5.954  0.00  0.00    -0.020 A 
ATOM      9  C   LIG    1        5.098   8.161   7.247  0.00  0.00    +0.040 A 
ATOM     10  C   LIG    1        4.001   8.833   7.758  0.00  0.00    +0.080 A 
ATOM     11  C   LIG    1        2.876   9.022   6.974  0.00  0.00    +0.050 A 
ATOM     12  F   LIG    1        4.029   9.306   9.023  0.00  0.00    -0.130 F 
ATOM     13  C   LIG    1        2.846   8.539   5.679  0.00  0.00    -0.040 A 
ATOM     14 CL   LIG    1        1.435   8.775   4.696  0.00  0.00    -0.030 Cl
ENDBRANCH   6   7
ENDBRANCH   5   6
ENDBRANCH   3   5
BRANCH   2  15
ATOM     15  C   LIG    1        5.638   5.141  -0.020  0.00  0.00    +0.380 C 
BRANCH  15  16
ATOM     16  C   LIG    1        5.034   3.761  -0.023  0.00  0.00    -0.260 A 
ATOM     17  C   LIG    1        3.712   3.471  -0.014  0.00  0.00    +0.270 A 
ATOM     18  N   LIG    1        3.586   2.125  -0.019  0.00  0.00    -0.320 N 
ATOM     19  N   LIG    1        4.873   1.572  -0.027  0.00  0.00    -0.290 NA
ATOM     20  C   LIG    1        5.739   2.553  -0.035  0.00  0.00    +0.260 A 
BRANCH  18  21
ATOM     21  C   LIG    1        2.381   1.409  -0.013  0.00  0.00    +0.160 A 
ATOM     22  C   LIG    1        1.169   2.087   0.002  0.00  0.00    -0.010 A 
ATOM     23  C   LIG    1       -0.017   1.379   0.010  0.00  0.00    +0.040 A 
ATOM     24  C   LIG    1        0.002  -0.004   0.002  0.00  0.00    +0.000 A 
ATOM     25  C   LIG    1        1.207  -0.682  -0.013  0.00  0.00    +0.030 A 
ATOM     26  C   LIG    1        2.396   0.021  -0.020  0.00  0.00    +0.020 A 
ENDBRANCH  18  21
ENDBRANCH  15  16
ENDBRANCH   2  15
TORSDOF 6
