REMARK  Name = ZINCqH0000034R7G.0
REMARK                            x       y       z     vdW  Elec       q    Type
REMARK                         _______ _______ _______ _____ _____    ______ ____
ROOT
ATOM      1  N   LIG    1        2.053   5.775  -1.438  0.00  0.00    -0.720 N 
ATOM      2  H   LIG    1        1.198   6.233  -1.437  0.00  0.00    +0.400 HD
ATOM      3  C   LIG    1        2.107   4.447  -1.213  0.00  0.00    +0.530 C 
ATOM      4  O   LIG    1        3.176   3.874  -1.213  0.00  0.00    -0.530 OA
ENDROOT
BRANCH   1   5
ATOM      5  C   LIG    1        3.286   6.527  -1.683  0.00  0.00    +0.350 C 
BRANCH   5   6
ATOM      6  C   LIG    1        3.645   6.439  -3.144  0.00  0.00    -0.200 A 
ATOM      7  C   LIG    1        4.881   6.295  -3.625  0.00  0.00    +0.020 A 
ATOM      8  C   LIG    1        4.967   6.236  -5.005  0.00  0.00    +0.010 A 
ATOM      9  C   LIG    1        3.801   6.342  -5.646  0.00  0.00    -0.040 A 
ATOM     10  S   LIG    1        2.500   6.521  -4.476  0.00  0.00    +0.110 S 
ENDBRANCH   5   6
BRANCH   5  11
ATOM     11  C   LIG    1        3.076   7.992  -1.296  0.00  0.00    +0.120 C 
BRANCH  11  12
ATOM     12  C   LIG    1        2.838   8.090   0.189  0.00  0.00    +0.460 C 
ATOM     13  O   LIG    1        2.837   7.090   0.868  0.00  0.00    -0.490 OA
BRANCH  12  15
ATOM     14  C   LIG    1        2.405   9.306   2.192  0.00  0.00    +0.260 C 
ATOM     15  O   LIG    1        2.627   9.287   0.757  0.00  0.00    -0.360 OA
ENDBRANCH  12  15
ENDBRANCH  11  12
ENDBRANCH   5  11
ENDBRANCH   1   5
BRANCH   3  16
ATOM     16  C   LIG    1        0.838   3.674  -0.960  0.00  0.00    +0.070 C 
BRANCH  16  17
ATOM     17  C   LIG    1        1.176   2.199  -0.736  0.00  0.00    +0.070 C 
BRANCH  17  18
ATOM     18  C   LIG    1       -0.093   1.425  -0.484  0.00  0.00    +0.400 C 
ATOM     19  O   LIG    1       -1.162   1.997  -0.488  0.00  0.00    -0.450 OA
BRANCH  18  20
ATOM     20  C   LIG    1       -0.034  -0.025  -0.238  0.00  0.00    -0.170 A 
ATOM     21  C   LIG    1        1.179  -0.709  -0.357  0.00  0.00    +0.060 A 
ATOM     22  C   LIG    1        1.226  -2.068  -0.125  0.00  0.00    -0.110 A 
ATOM     23  C   LIG    1        0.076  -2.754   0.224  0.00  0.00    +0.050 A 
ATOM     24  C   LIG    1       -1.129  -2.083   0.344  0.00  0.00    +0.000 A 
ATOM     25  C   LIG    1        2.532  -2.808  -0.253  0.00  0.00    +0.090 C 
ATOM     26  C   LIG    1       -1.191  -0.724   0.121  0.00  0.00    -0.030 A 
ATOM     27  C   LIG    1       -2.503   0.005   0.258  0.00  0.00    +0.110 C 
ENDBRANCH  18  20
ENDBRANCH  17  18
ENDBRANCH  16  17
ENDBRANCH   3  16
TORSDOF 9
