REMARK  Name = ZINCqH0000003oXG.0
REMARK                            x       y       z     vdW  Elec       q    Type
REMARK                         _______ _______ _______ _____ _____    ______ ____
ROOT
ATOM      1  C   LIG    1        2.246   0.607  -0.016  0.00  0.00    -0.180 A 
ATOM      2  C   LIG    1        1.679   1.854  -0.004  0.00  0.00    +0.040 A 
ATOM      3  S   LIG    1       -0.022   1.750   0.012  0.00  0.00    +0.330 S 
ATOM      4  C   LIG    1        0.002  -0.004   0.002  0.00  0.00    -0.090 A 
ATOM      5  C   LIG    1        1.260  -0.461  -0.012  0.00  0.00    -0.000 A 
ENDROOT
BRANCH   5   6
ATOM      6  C   LIG    1        1.610  -1.901  -0.023  0.00  0.00    -0.050 A 
ATOM      7  C   LIG    1        2.515  -2.394  -0.961  0.00  0.00    +0.030 A 
ATOM      8  C   LIG    1        2.841  -3.735  -0.962  0.00  0.00    +0.000 A 
ATOM      9  C   LIG    1        2.263  -4.591  -0.042  0.00  0.00    -0.080 A 
ATOM     10  C   LIG    1        1.360  -4.109   0.887  0.00  0.00    +0.010 A 
ATOM     11  C   LIG    1        2.619  -6.056  -0.053  0.00  0.00    +0.090 C 
ATOM     12  C   LIG    1        1.030  -2.769   0.902  0.00  0.00    +0.040 A 
ENDBRANCH   5   6
BRANCH   2  13
ATOM     13  N   LIG    1        2.393   3.041  -0.004  0.00  0.00    -0.630 N 
ATOM     14  H   LIG    1        3.363   3.024  -0.014  0.00  0.00    +0.420 HD
ATOM     15  C   LIG    1        1.740   4.220   0.009  0.00  0.00    +0.490 C 
ATOM     16  O   LIG    1        0.527   4.242   0.021  0.00  0.00    -0.480 OA
BRANCH  15  17
ATOM     17  C   LIG    1        2.517   5.512   0.008  0.00  0.00    +0.360 C 
BRANCH  17  18
ATOM     18  N   LIG    1        1.585   6.642   0.024  0.00  0.00    -0.450 N 
ATOM     19  C   LIG    1        1.079   7.262   1.134  0.00  0.00    +0.120 A 
ATOM     20  C   LIG    1        0.267   8.244   0.696  0.00  0.00    +0.150 A 
ATOM     21  N   LIG    1        0.277   8.223  -0.645  0.00  0.00    -0.490 NA
ATOM     22  C   LIG    1        1.069   7.270  -1.055  0.00  0.00    +0.400 A 
ENDBRANCH  17  18
ENDBRANCH  15  17
ENDBRANCH   2  13
BRANCH   1  23
ATOM     23  C   LIG    1        3.690   0.375  -0.031  0.00  0.00    +0.540 C 
ATOM     24  O   LIG    1        4.281   0.284  -1.090  0.00  0.00    -0.490 OA
BRANCH  23  25
ATOM     25  O   LIG    1        4.367   0.262   1.131  0.00  0.00    -0.350 OA
BRANCH  25  27
ATOM     26  C   LIG    1        6.388  -0.067   2.448  0.00  0.00    +0.070 C 
ATOM     27  C   LIG    1        5.798   0.033   1.040  0.00  0.00    +0.200 C 
ENDBRANCH  25  27
ENDBRANCH  23  25
ENDBRANCH   1  23
TORSDOF 7
