REMARK  Name = ZINCnE00000hdbGC.0
REMARK                            x       y       z     vdW  Elec       q    Type
REMARK                         _______ _______ _______ _____ _____    ______ ____
ROOT
ATOM      1  C   LIG    1        3.857  -0.453  -0.205  0.00  0.00    -0.050 C 
ENDROOT
BRANCH   1   2
ATOM      2  C   LIG    1        2.470   0.131  -0.125  0.00  0.00    -0.050 A 
ATOM      3  C   LIG    1        1.367  -0.677  -0.324  0.00  0.00    +0.010 A 
ATOM      4  C   LIG    1        0.095  -0.142  -0.250  0.00  0.00    +0.000 A 
ATOM      5  C   LIG    1       -0.074   1.203   0.024  0.00  0.00    +0.000 A 
ATOM      6  C   LIG    1        1.029   2.011   0.225  0.00  0.00    +0.000 A 
ATOM      7  C   LIG    1        2.302   1.476   0.149  0.00  0.00    +0.030 A 
ENDBRANCH   1   2
BRANCH   1   8
ATOM      8  C   LIG    1        4.612   0.198  -1.336  0.00  0.00    +0.530 C 
ATOM      9  N   LIG    1        4.404  -0.206  -2.605  0.00  0.00    -0.700 N 
ATOM     10  H   LIG    1        3.769  -0.916  -2.791  0.00  0.00    +0.400 HD
ATOM     11  O   LIG    1        5.405   1.085  -1.104  0.00  0.00    -0.500 OA
BRANCH   9  12
ATOM     12  C   LIG    1        5.137   0.427  -3.704  0.00  0.00    +0.230 C 
ATOM     13  C   LIG    1        4.349   0.784  -4.966  0.00  0.00    +0.010 C 
ATOM     14  C   LIG    1        5.333  -0.388  -4.984  0.00  0.00    +0.010 C 
ENDBRANCH   9  12
ENDBRANCH   1   8
BRANCH   1  15
ATOM     15  S   LIG    1        4.729  -0.154   1.352  0.00  0.00    +0.110 S 
BRANCH  15  21
ATOM     16  C   LIG    1        7.217  -1.120   2.026  0.00  0.00    -0.130 A 
ATOM     17  C   LIG    1        8.346  -1.918   1.812  0.00  0.00    +0.060 A 
ATOM     18  C   LIG    1        8.422  -2.712   0.689  0.00  0.00    -0.030 A 
ATOM     19  C   LIG    1        7.384  -2.731  -0.229  0.00  0.00    +0.000 A 
ATOM     20  C   LIG    1        6.261  -1.956  -0.031  0.00  0.00    -0.040 A 
ATOM     21  C   LIG    1        6.163  -1.146   1.096  0.00  0.00    -0.080 A 
BRANCH  16  23
ATOM     22  O   LIG    1        8.050  -0.246   4.026  0.00  0.00    -0.680 OA
ATOM     23  C   LIG    1        7.130  -0.266   3.219  0.00  0.00    +0.520 C 
ATOM     24  O   LIG    1        6.139   0.427   3.405  0.00  0.00    -0.650 OA
ENDBRANCH  16  23
ENDBRANCH  15  21
ENDBRANCH   1  15
TORSDOF 6
