REMARK  Name = ZINCpk00000y6uVV.0
REMARK                            x       y       z     vdW  Elec       q    Type
REMARK                         _______ _______ _______ _____ _____    ______ ____
ROOT
ATOM      1  C   LIG    1        1.755  -1.848  -0.024  0.00  0.00    +0.200 C 
ATOM      2  C   LIG    1        2.382  -2.226   1.344  0.00  0.00    +0.030 C 
ATOM      3  C   LIG    1        2.172  -3.761   1.371  0.00  0.00    +0.210 C 
ATOM      4  N   LIG    1        0.853  -3.972   0.736  0.00  0.00    -0.440 N 
ATOM      5  C   LIG    1        0.566  -2.824  -0.143  0.00  0.00    +0.290 C 
ENDROOT
BRANCH   4   6
ATOM      6  C   LIG    1        0.830  -5.164   0.021  0.00  0.00    +0.340 A 
ATOM      7  C   LIG    1        1.065  -6.436   0.542  0.00  0.00    -0.060 A 
ATOM      8  N   LIG    1        0.938  -7.319  -0.519  0.00  0.00    -0.330 N 
ATOM      9  C   LIG    1        1.056  -8.672  -0.603  0.00  0.00    +0.230 A 
ATOM     10  C   LIG    1        0.886  -9.306  -1.785  0.00  0.00    +0.020 A 
ATOM     11  C   LIG    1        0.585  -8.572  -2.941  0.00  0.00    +0.070 A 
ATOM     12  C   LIG    1        0.465  -7.217  -2.866  0.00  0.00    +0.070 A 
ATOM     13  C   LIG    1        0.645  -6.575  -1.627  0.00  0.00    +0.280 A 
ATOM     14  N   LIG    1        0.586  -5.291  -1.279  0.00  0.00    -0.510 NA
BRANCH   7  15
ATOM     15  C   LIG    1        1.372  -6.765   1.901  0.00  0.00    +0.290 C 
ATOM     16  N   LIG    1        1.616  -7.026   2.979  0.00  0.00    -0.410 NA
ENDBRANCH   7  15
ENDBRANCH   4   6
BRANCH   1  19
ATOM     17  N   LIG    1        1.187   1.742   0.000  0.00  0.00    -0.280 N 
ATOM     18  C   LIG    1        2.042   0.694  -0.014  0.00  0.00    +0.150 A 
ATOM     19  C   LIG    1        1.274  -0.420  -0.012  0.00  0.00    -0.040 A 
ATOM     20  N   LIG    1        0.002  -0.004   0.002  0.00  0.00    -0.250 NA
ATOM     21  N   LIG    1       -0.015   1.282   0.009  0.00  0.00    -0.080 NA
BRANCH  17  23
ATOM     22  C   LIG    1        1.830   3.611   1.440  0.00  0.00    +0.060 C 
ATOM     23  C   LIG    1        1.564   3.158   0.004  0.00  0.00    +0.250 C 
ATOM     24  C   LIG    1        2.829   3.351  -0.835  0.00  0.00    +0.060 C 
ENDBRANCH  17  23
ENDBRANCH   1  19
BRANCH   1  25
ATOM     25  O   LIG    1        2.688  -2.056  -1.086  0.00  0.00    -0.530 OA
ATOM     26  H   LIG    1        3.473  -1.492  -1.036  0.00  0.00    +0.380 HD
ENDBRANCH   1  25
TORSDOF 5
