REMARK  Name = ZINCrH000004mRZ0.0
REMARK                            x       y       z     vdW  Elec       q    Type
REMARK                         _______ _______ _______ _____ _____    ______ ____
ROOT
ATOM      1  C   LIG    1       -4.265   2.974   0.687  0.00  0.00    -0.680 A 
ATOM      2  C   LIG    1       -3.647   4.129   1.131  0.00  0.00    +0.160 A 
ATOM      3  C   LIG    1       -4.157   5.369   0.787  0.00  0.00    +0.000 A 
ATOM      4  C   LIG    1       -5.291   5.460   0.008  0.00  0.00    +0.110 A 
ATOM      5  C   LIG    1       -5.923   4.298  -0.439  0.00  0.00    -0.150 A 
ATOM      6  C   LIG    1       -5.401   3.051  -0.093  0.00  0.00    +0.200 A 
ENDROOT
BRANCH   5   7
ATOM      7  C   LIG    1       -7.138   4.388  -1.275  0.00  0.00    +0.560 C 
ATOM      8  N   LIG    1       -7.640   5.594  -1.607  0.00  0.00    -0.720 N 
ATOM      9  H   LIG    1       -7.204   6.403  -1.298  0.00  0.00    +0.400 HD
ATOM     10  O   LIG    1       -7.686   3.375  -1.663  0.00  0.00    -0.530 OA
BRANCH   8  11
ATOM     11  C   LIG    1       -8.845   5.684  -2.436  0.00  0.00    +0.260 C 
ATOM     12  C   LIG    1      -10.085   5.576  -1.546  0.00  0.00    +0.020 C 
BRANCH  11  13
ATOM     13  C   LIG    1       -8.860   7.025  -3.171  0.00  0.00    -0.060 C 
ATOM     14  C   LIG    1       -9.922   8.046  -2.758  0.00  0.00    +0.020 C 
ATOM     15  C   LIG    1      -10.046   7.312  -4.094  0.00  0.00    +0.030 C 
ENDBRANCH  11  13
ENDBRANCH   8  11
ENDBRANCH   5   7
BRANCH   1  16
ATOM     16  S   LIG    1       -3.605   1.400   1.125  0.00  0.00    +2.690 S 
ATOM     17  O   LIG    1       -2.905   1.585   2.348  0.00  0.00    -0.940 OA
ATOM     18  O   LIG    1       -4.662   0.464   0.968  0.00  0.00    -0.940 OA
BRANCH  16  19
ATOM     19  N   LIG    1       -2.464   1.014  -0.012  0.00  0.00    -1.060 N 
ATOM     20  H   LIG    1       -2.593   0.242  -0.586  0.00  0.00    +0.430 HD
BRANCH  19  24
ATOM     21  C   LIG    1        0.958   3.361  -0.407  0.00  0.00    +0.170 A 
ATOM     22  C   LIG    1       -0.056   3.449  -1.349  0.00  0.00    -0.060 A 
ATOM     23  C   LIG    1       -1.188   2.669  -1.221  0.00  0.00    +0.090 A 
ATOM     24  C   LIG    1       -1.315   1.800  -0.145  0.00  0.00    +0.090 A 
ATOM     25  C   LIG    1       -0.297   1.708   0.795  0.00  0.00    +0.110 A 
ATOM     26  C   LIG    1        0.835   2.489   0.666  0.00  0.00    -0.120 A 
ATOM     27 BR   LIG    1        2.218   2.370   1.950  0.00  0.00    -0.020 Br
BRANCH  21  29
ATOM     28  C   LIG    1        2.132   5.005  -1.663  0.00  0.00    +0.250 C 
ATOM     29  O   LIG    1        2.073   4.130  -0.534  0.00  0.00    -0.300 OA
ENDBRANCH  21  29
ENDBRANCH  19  24
ENDBRANCH  16  19
ENDBRANCH   1  16
TORSDOF 7
