REMARK  Name = ZINCqH0000006RJN.0
REMARK                            x       y       z     vdW  Elec       q    Type
REMARK                         _______ _______ _______ _____ _____    ______ ____
ROOT
ATOM      1  N   LIG    1       -6.377   2.111   2.268  0.00  0.00    -0.670 N 
ATOM      2  H   LIG    1       -6.086   1.352   2.796  0.00  0.00    +0.420 HD
ATOM      3  C   LIG    1       -5.598   2.578   1.273  0.00  0.00    +0.540 C 
ATOM      4  O   LIG    1       -5.922   3.577   0.666  0.00  0.00    -0.490 OA
ENDROOT
BRANCH   1   7
ATOM      5  C   LIG    1       -9.908   2.557   3.210  0.00  0.00    +0.180 A 
ATOM      6  C   LIG    1       -8.690   1.952   2.942  0.00  0.00    -0.070 A 
ATOM      7  C   LIG    1       -7.607   2.721   2.538  0.00  0.00    +0.220 A 
ATOM      8  C   LIG    1       -7.743   4.096   2.409  0.00  0.00    -0.040 A 
ATOM      9  C   LIG    1       -8.963   4.700   2.673  0.00  0.00    +0.180 A 
ATOM     10  C   LIG    1      -10.045   3.931   3.076  0.00  0.00    -0.170 A 
BRANCH   5  12
ATOM     11  C   LIG    1      -12.193   2.494   3.864  0.00  0.00    +0.250 C 
ATOM     12  O   LIG    1      -10.968   1.804   3.605  0.00  0.00    -0.310 OA
ENDBRANCH   5  12
BRANCH   9  13
ATOM     13  O   LIG    1       -9.098   6.046   2.542  0.00  0.00    -0.310 OA
ATOM     14  C   LIG    1      -10.381   6.601   2.837  0.00  0.00    +0.250 C 
ENDBRANCH   9  13
ENDBRANCH   1   7
BRANCH   3  15
ATOM     15  C   LIG    1       -4.323   1.859   0.913  0.00  0.00    +0.000 C 
ATOM     16  C   LIG    1       -4.636   0.723  -0.063  0.00  0.00    +0.080 C 
BRANCH  15  17
ATOM     17  S   LIG    1       -3.170   3.024   0.136  0.00  0.00    -0.070 S 
BRANCH  17  18
ATOM     18  C   LIG    1       -1.689   2.081  -0.006  0.00  0.00    -0.150 A 
ATOM     19  C   LIG    1       -1.395   1.422  -1.194  0.00  0.00    +0.100 A 
ATOM     20  C   LIG    1       -0.237   0.679  -1.303  0.00  0.00    -0.030 A 
ATOM     21  C   LIG    1        0.640   0.598  -0.229  0.00  0.00    +0.170 A 
ATOM     22  C   LIG    1        0.350   1.261   0.956  0.00  0.00    +0.010 A 
ATOM     23  C   LIG    1       -0.811   2.000   1.068  0.00  0.00    +0.090 A 
BRANCH  21  24
ATOM     24  N   LIG    1        1.818  -0.152  -0.342  0.00  0.00    -0.680 N 
ATOM     25  H   LIG    1        2.279  -0.207  -1.194  0.00  0.00    +0.410 HD
ATOM     26  C   LIG    1        2.311  -0.799   0.733  0.00  0.00    +0.510 C 
ATOM     27  O   LIG    1        1.688  -0.808   1.774  0.00  0.00    -0.520 OA
ATOM     28  C   LIG    1        3.636  -1.510   0.642  0.00  0.00    +0.110 C 
ENDBRANCH  21  24
ENDBRANCH  17  18
ENDBRANCH  15  17
ENDBRANCH   3  15
TORSDOF 7
