REMARK  Name = ZINCvU0000000HUZ.0
REMARK                            x       y       z     vdW  Elec       q    Type
REMARK                         _______ _______ _______ _____ _____    ______ ____
ROOT
ATOM      1  O   LIG    1       -2.314   7.334   0.062  0.00  0.00    -0.520 OA
ATOM      2  C   LIG    1       -1.105   7.249   0.050  0.00  0.00    +0.540 C 
ATOM      3  N   LIG    1       -0.351   8.366   0.049  0.00  0.00    -0.610 N 
ATOM      4  C   LIG    1        1.116   8.279   0.040  0.00  0.00    +0.280 C 
ATOM      5  C   LIG    1        1.670   9.103   1.202  0.00  0.00    +0.040 C 
ATOM      6  C   LIG    1        1.124  10.530   1.118  0.00  0.00    +0.090 C 
ATOM      7  C   LIG    1       -0.402  10.501   1.228  0.00  0.00    +0.040 C 
ATOM      8  C   LIG    1       -0.980   9.694   0.061  0.00  0.00    +0.280 C 
ENDROOT
BRANCH   6   9
ATOM      9  C   LIG    1        1.693  11.352   2.245  0.00  0.00    +0.100 A 
ATOM     10  N   LIG    1        1.524  11.088   3.485  0.00  0.00    -0.460 NA
ATOM     11  C   LIG    1        2.095  11.909   4.387  0.00  0.00    +0.080 A 
ATOM     12  C   LIG    1        2.075  11.854   5.795  0.00  0.00    +0.070 A 
ATOM     13  C   LIG    1        2.722  12.799   6.532  0.00  0.00    +0.030 A 
ATOM     14  C   LIG    1        3.412  13.832   5.914  0.00  0.00    +0.040 A 
ATOM     15  C   LIG    1        3.450  13.911   4.540  0.00  0.00    +0.060 A 
ATOM     16  C   LIG    1        2.793  12.954   3.770  0.00  0.00    -0.180 A 
ATOM     17  S   LIG    1        2.639  12.756   2.027  0.00  0.00    +0.100 S 
ENDBRANCH   6   9
BRANCH   2  18
ATOM     18  C   LIG    1       -0.445   5.894   0.036  0.00  0.00    +0.100 C 
BRANCH  18  19
ATOM     19  S   LIG    1       -1.714   4.604   0.042  0.00  0.00    +0.050 S 
BRANCH  19  20
ATOM     20  C   LIG    1       -0.693   3.169   0.024  0.00  0.00    +0.180 A 
ATOM     21  N   LIG    1        0.620   3.161   0.012  0.00  0.00    -0.490 NA
ATOM     22  C   LIG    1        1.056   1.890   0.002  0.00  0.00    +0.150 A 
ATOM     23  C   LIG    1       -0.013   1.076   0.008  0.00  0.00    +0.140 A 
ATOM     24  N   LIG    1       -1.130   1.880   0.017  0.00  0.00    -0.440 N 
BRANCH  24  25
ATOM     25  C   LIG    1       -2.525   1.433   0.021  0.00  0.00    +0.350 C 
BRANCH  25  26
ATOM     26  C   LIG    1       -3.048   1.404  -1.392  0.00  0.00    -0.120 A 
ATOM     27  C   LIG    1       -3.655   2.525  -1.928  0.00  0.00    +0.040 A 
ATOM     28  C   LIG    1       -4.130   2.500  -3.226  0.00  0.00    +0.010 A 
ATOM     29  C   LIG    1       -4.006   1.351  -3.985  0.00  0.00    +0.010 A 
ATOM     30  C   LIG    1       -3.403   0.229  -3.448  0.00  0.00    +0.010 A 
ATOM     31  C   LIG    1       -2.924   0.256  -2.152  0.00  0.00    +0.020 A 
ENDBRANCH  25  26
ENDBRANCH  24  25
ENDBRANCH  19  20
ENDBRANCH  18  19
ENDBRANCH   2  18
TORSDOF 6
