REMARK  Name = ZINCrD0000071kzh.0
REMARK                            x       y       z     vdW  Elec       q    Type
REMARK                         _______ _______ _______ _____ _____    ______ ____
ROOT
ATOM      1  C   LIG    1       -2.473  -2.827  -0.239  0.00  0.00    +0.270 C 
ENDROOT
BRANCH   1   2
ATOM      2  C   LIG    1       -1.178  -2.064  -0.128  0.00  0.00    +0.520 C 
ATOM      3  N   LIG    1       -1.194  -0.720  -0.025  0.00  0.00    -0.660 N 
ATOM      4  H   LIG    1       -2.039  -0.250   0.060  0.00  0.00    +0.420 HD
ATOM      5  O   LIG    1       -0.122  -2.659  -0.131  0.00  0.00    -0.480 OA
BRANCH   3   6
ATOM      6  C   LIG    1        0.008  -0.002  -0.040  0.00  0.00    +0.120 A 
ATOM      7  C   LIG    1        1.131  -0.540  -0.652  0.00  0.00    +0.140 A 
ATOM      8  C   LIG    1        2.316   0.171  -0.666  0.00  0.00    -0.030 A 
ATOM      9  C   LIG    1        2.385   1.417  -0.072  0.00  0.00    +0.130 A 
ATOM     10  C   LIG    1        1.268   1.957   0.539  0.00  0.00    +0.040 A 
ATOM     11  C   LIG    1        0.079   1.252   0.557  0.00  0.00    +0.120 A 
ATOM     12  F   LIG    1       -1.014   1.782   1.150  0.00  0.00    -0.120 F 
BRANCH   8  13
ATOM     13  N   LIG    1        3.514  -0.403  -1.319  0.00  0.00    +0.030 N 
ATOM     14  O   LIG    1        4.559   0.222  -1.332  0.00  0.00    -0.150 OA
ATOM     15  O   LIG    1        3.455  -1.501  -1.843  0.00  0.00    -0.150 OA
ENDBRANCH   8  13
ENDBRANCH   3   6
ENDBRANCH   1   2
BRANCH   1  16
ATOM     16  O   LIG    1       -2.191  -4.248  -0.338  0.00  0.00    -0.330 OA
BRANCH  16  17
ATOM     17  C   LIG    1       -3.249  -5.075  -0.445  0.00  0.00    +0.520 C 
ATOM     18  O   LIG    1       -4.376  -4.622  -0.455  0.00  0.00    -0.510 OA
BRANCH  17  22
ATOM     19  C   LIG    1       -2.643  -9.267  -0.744  0.00  0.00    +0.180 A 
ATOM     20  C   LIG    1       -3.934  -8.750  -0.756  0.00  0.00    -0.090 A 
ATOM     21  C   LIG    1       -4.135  -7.392  -0.659  0.00  0.00    +0.130 A 
ATOM     22  C   LIG    1       -3.039  -6.531  -0.548  0.00  0.00    -0.170 A 
ATOM     23  C   LIG    1       -1.742  -7.054  -0.542  0.00  0.00    +0.130 A 
ATOM     24  C   LIG    1       -1.550  -8.414  -0.635  0.00  0.00    -0.030 A 
BRANCH  19  25
ATOM     25  O   LIG    1       -2.449 -10.606  -0.841  0.00  0.00    -0.300 OA
BRANCH  25  27
ATOM     26  C   LIG    1       -3.921 -11.467  -2.553  0.00  0.00    +0.030 C 
ATOM     27  C   LIG    1       -3.607 -11.415  -1.057  0.00  0.00    +0.150 C 
ATOM     28  C   LIG    1       -3.343 -12.832  -0.542  0.00  0.00    +0.070 C 
ENDBRANCH  25  27
ENDBRANCH  19  25
ENDBRANCH  17  22
ENDBRANCH  16  17
ENDBRANCH   1  16
TORSDOF 8
