REMARK  Name = ZINCqH0000004B64.0
REMARK                            x       y       z     vdW  Elec       q    Type
REMARK                         _______ _______ _______ _____ _____    ______ ____
ROOT
ATOM      1  N   LIG    1       -8.231  -3.093   2.345  0.00  0.00    -0.620 N 
ATOM      2  H   LIG    1       -7.650  -3.727   2.793  0.00  0.00    +0.430 HD
ATOM      3  C   LIG    1       -9.549  -3.348   2.233  0.00  0.00    +0.510 C 
ATOM      4  O   LIG    1      -10.275  -2.555   1.672  0.00  0.00    -0.500 OA
ENDROOT
BRANCH   1   8
ATOM      5  C   LIG    1       -6.132  -0.413   1.309  0.00  0.00    +0.130 A 
ATOM      6  C   LIG    1       -7.152   0.265   0.754  0.00  0.00    -0.110 A 
ATOM      7  S   LIG    1       -8.625  -0.676   0.979  0.00  0.00    +0.210 S 
ATOM      8  C   LIG    1       -7.703  -1.920   1.818  0.00  0.00    +0.270 A 
ATOM      9  N   LIG    1       -6.455  -1.574   1.862  0.00  0.00    -0.490 NA
BRANCH   5  13
ATOM     10  C   LIG    1       -2.143   1.058   1.278  0.00  0.00    -0.070 A 
ATOM     11  C   LIG    1       -3.155   1.800   0.696  0.00  0.00    +0.010 A 
ATOM     12  C   LIG    1       -4.451   1.324   0.698  0.00  0.00    +0.020 A 
ATOM     13  C   LIG    1       -4.740   0.100   1.298  0.00  0.00    -0.030 A 
ATOM     14  C   LIG    1       -3.717  -0.641   1.887  0.00  0.00    +0.050 A 
ATOM     15  C   LIG    1       -2.424  -0.159   1.873  0.00  0.00    +0.000 A 
BRANCH  10  17
ATOM     16  C   LIG    1       -0.013   1.086   0.008  0.00  0.00    +0.030 C 
ATOM     17  C   LIG    1       -0.729   1.579   1.267  0.00  0.00    +0.050 C 
ENDBRANCH  10  17
ENDBRANCH   5  13
ENDBRANCH   1   8
BRANCH   3  18
ATOM     18  C   LIG    1      -10.121  -4.620   2.805  0.00  0.00    +0.330 C 
BRANCH  18  19
ATOM     19  N   LIG    1      -11.564  -4.662   2.555  0.00  0.00    -0.720 N 
ATOM     20  H   LIG    1      -11.996  -3.932   2.084  0.00  0.00    +0.410 HD
ATOM     21  C   LIG    1      -12.292  -5.714   2.980  0.00  0.00    +0.570 C 
ATOM     22  O   LIG    1      -11.750  -6.628   3.571  0.00  0.00    -0.530 OA
BRANCH  21  23
ATOM     23  C   LIG    1      -13.748  -5.756   2.729  0.00  0.00    -0.140 A 
ATOM     24  C   LIG    1      -14.374  -4.705   2.056  0.00  0.00    +0.050 A 
ATOM     25  C   LIG    1      -15.732  -4.753   1.820  0.00  0.00    +0.000 A 
ATOM     26  C   LIG    1      -16.476  -5.834   2.257  0.00  0.00    +0.040 A 
ATOM     27  C   LIG    1      -15.863  -6.877   2.930  0.00  0.00    +0.000 A 
ATOM     28  C   LIG    1      -14.504  -6.844   3.168  0.00  0.00    +0.080 A 
ENDBRANCH  21  23
ENDBRANCH  18  19
ENDBRANCH   3  18
TORSDOF 6
