REMARK  Name = ZINCpk00000k5qVf.0
REMARK                            x       y       z     vdW  Elec       q    Type
REMARK                         _______ _______ _______ _____ _____    ______ ____
ROOT
ATOM      1  C   LIG    1        2.615   0.539  -0.522  0.00  0.00    +0.050 C 
ATOM      2  C   LIG    1        2.044   0.912   0.857  0.00  0.00    +0.090 C 
ATOM      3  C   LIG    1        1.020   1.780   0.109  0.00  0.00    +0.130 C 
ATOM      4  N   LIG    1        0.760   3.059   0.759  0.00  0.00    -0.700 N 
ATOM      5  H   LIG    1        1.471   3.489   1.260  0.00  0.00    +0.410 HD
ATOM      6  C   LIG    1       -0.437   3.655   0.682  0.00  0.00    +0.520 C 
ATOM      7  C   LIG    1       -1.584   3.077  -0.089  0.00  0.00    +0.260 C 
ATOM      8  N   LIG    1       -1.414   1.655  -0.344  0.00  0.00    -0.710 N 
ATOM      9  H   LIG    1       -2.195   1.130  -0.578  0.00  0.00    +0.410 HD
ATOM     10  O   LIG    1       -0.598   4.709   1.260  0.00  0.00    -0.520 OA
ATOM     11  C   LIG    1       -0.228   1.036  -0.267  0.00  0.00    +0.540 C 
ATOM     12  O   LIG    1       -0.161  -0.150  -0.510  0.00  0.00    -0.480 OA
ATOM     13  C   LIG    1        2.042   1.872  -1.033  0.00  0.00    +0.130 C 
ENDROOT
BRANCH   1  14
ATOM     14  C   LIG    1        4.143   0.473  -0.555  0.00  0.00    +0.440 C 
ATOM     15  F   LIG    1        4.670   1.750  -0.333  0.00  0.00    -0.180 F 
ATOM     16  F   LIG    1        4.563   0.006  -1.806  0.00  0.00    -0.170 F 
ATOM     17  F   LIG    1        4.594  -0.398   0.443  0.00  0.00    -0.180 F 
ENDBRANCH   1  14
BRANCH   1  19
ATOM     18  C   LIG    1        2.231  -1.823  -0.386  0.00  0.00    +0.220 C 
ATOM     19  O   LIG    1        1.997  -0.611  -1.105  0.00  0.00    -0.300 OA
ENDBRANCH   1  19
BRANCH   7  20
ATOM     20  C   LIG    1       -1.699   3.805  -1.429  0.00  0.00    +0.100 C 
BRANCH  20  21
ATOM     21  C   LIG    1       -2.922   3.319  -2.162  0.00  0.00    -0.060 A 
ATOM     22  C   LIG    1       -2.829   2.242  -3.024  0.00  0.00    +0.010 A 
ATOM     23  C   LIG    1       -3.952   1.791  -3.692  0.00  0.00    +0.050 A 
ATOM     24  C   LIG    1       -5.167   2.424  -3.508  0.00  0.00    -0.010 A 
ATOM     25  C   LIG    1       -5.260   3.506  -2.650  0.00  0.00    +0.100 A 
ATOM     26  F   LIG    1       -6.447   4.125  -2.469  0.00  0.00    -0.140 F 
ATOM     27  C   LIG    1       -4.136   3.953  -1.976  0.00  0.00    -0.010 A 
ENDBRANCH  20  21
ENDBRANCH   7  20
TORSDOF 4
