REMARK  Name = ZINCpe000000Y8Z2.0
REMARK                            x       y       z     vdW  Elec       q    Type
REMARK                         _______ _______ _______ _____ _____    ______ ____
ROOT
ATOM      1  N   LIG    1       -0.013   3.303   3.018  0.00  0.00    -0.630 N 
ATOM      2  H   LIG    1       -0.167   4.185   2.644  0.00  0.00    +0.410 HD
ATOM      3  C   LIG    1       -0.880   2.303   2.763  0.00  0.00    +0.520 C 
ATOM      4  O   LIG    1       -0.688   1.200   3.230  0.00  0.00    -0.440 OA
ENDROOT
BRANCH   3   5
ATOM      5  C   LIG    1       -2.089   2.556   1.900  0.00  0.00    +0.020 C 
ATOM      6  C   LIG    1       -3.212   1.533   2.203  0.00  0.00    +0.110 C 
ATOM      7  C   LIG    1       -3.833   1.252   0.852  0.00  0.00    +0.530 C 
ATOM      8  N   LIG    1       -3.014   1.670  -0.129  0.00  0.00    -0.610 N 
ATOM      9  C   LIG    1       -3.312   1.558  -1.559  0.00  0.00    +0.310 C 
ATOM     10  O   LIG    1       -4.912   0.727   0.679  0.00  0.00    -0.510 OA
ATOM     11  C   LIG    1       -1.782   2.252   0.417  0.00  0.00    +0.330 C 
BRANCH  11  12
ATOM     12  C   LIG    1       -0.647   1.266   0.310  0.00  0.00    +0.040 A 
ATOM     13  C   LIG    1       -0.750  -0.081   0.393  0.00  0.00    -0.080 A 
ATOM     14  C   LIG    1        0.531  -0.621   0.237  0.00  0.00    +0.230 A 
ATOM     15  N   LIG    1        1.373   0.367   0.068  0.00  0.00    -0.280 NA
ATOM     16  N   LIG    1        0.653   1.568   0.110  0.00  0.00    -0.360 N 
ATOM     17  C   LIG    1        1.212   2.913  -0.037  0.00  0.00    +0.330 C 
ENDBRANCH  11  12
ENDBRANCH   3   5
BRANCH   1  22
ATOM     18  C   LIG    1        4.193   3.876   5.574  0.00  0.00    +0.210 C 
ATOM     19  C   LIG    1        2.949   3.307   4.942  0.00  0.00    +0.180 A 
ATOM     20  N   LIG    1        2.522   2.079   5.045  0.00  0.00    -0.280 NA
ATOM     21  N   LIG    1        1.429   1.936   4.385  0.00  0.00    -0.260 NA
ATOM     22  C   LIG    1        1.102   3.071   3.814  0.00  0.00    +0.400 A 
ATOM     23  N   LIG    1        2.060   3.981   4.155  0.00  0.00    -0.470 N 
BRANCH  23  24
ATOM     24  C   LIG    1        2.121   5.390   3.758  0.00  0.00    +0.180 C 
ATOM     25  C   LIG    1        2.398   6.421   4.854  0.00  0.00    +0.070 C 
ATOM     26  C   LIG    1        0.999   6.310   4.242  0.00  0.00    +0.050 C 
ENDBRANCH  23  24
ENDBRANCH   1  22
TORSDOF 4
