REMARK  Name = ZINCqH00000u5dSI.0
REMARK                            x       y       z     vdW  Elec       q    Type
REMARK                         _______ _______ _______ _____ _____    ______ ____
ROOT
ATOM      1  C   LIG    1        1.704  -3.836  -0.180  0.00  0.00    +0.390 A 
ATOM      2  C   LIG    1        2.459  -4.459   0.808  0.00  0.00    -0.140 A 
ATOM      3  C   LIG    1        2.626  -5.838   0.739  0.00  0.00    +0.460 A 
ATOM      4  N   LIG    1        2.060  -6.508  -0.264  0.00  0.00    -0.560 NA
ATOM      5  C   LIG    1        1.352  -5.881  -1.181  0.00  0.00    +0.310 A 
ATOM      6  N   LIG    1        1.167  -4.577  -1.147  0.00  0.00    -0.560 NA
ENDROOT
BRANCH   1  10
ATOM      7  C   LIG    1        0.002  -0.004   0.002  0.00  0.00    -0.020 C 
ATOM      8  C   LIG    1        0.851  -0.511   1.172  0.00  0.00    +0.050 C 
ATOM      9  C   LIG    1        0.919  -2.039   1.121  0.00  0.00    +0.200 C 
ATOM     10  N   LIG    1        1.508  -2.463  -0.155  0.00  0.00    -0.470 N 
ATOM     11  C   LIG    1        0.683  -2.029  -1.290  0.00  0.00    +0.210 C 
ATOM     12  C   LIG    1        0.609  -0.500  -1.313  0.00  0.00    +0.030 C 
BRANCH   7  14
ATOM     13  C   LIG    1       -0.735   2.019   1.269  0.00  0.00    +0.000 C 
ATOM     14  C   LIG    1       -0.019   1.526   0.010  0.00  0.00    +0.000 C 
ENDBRANCH   7  14
ENDBRANCH   1  10
BRANCH   5  15
ATOM     15  C   LIG    1        0.730  -6.680  -2.298  0.00  0.00    +0.550 C 
ATOM     16  F   LIG    1        1.457  -6.479  -3.476  0.00  0.00    -0.160 F 
ATOM     17  F   LIG    1       -0.592  -6.263  -2.489  0.00  0.00    -0.160 F 
ATOM     18  F   LIG    1        0.748  -8.038  -1.965  0.00  0.00    -0.160 F 
ENDBRANCH   5  15
BRANCH   3  19
ATOM     19  N   LIG    1        3.369  -6.506   1.699  0.00  0.00    -0.580 N 
ATOM     20  C   LIG    1        3.894  -5.778   2.857  0.00  0.00    +0.310 C 
BRANCH  19  21
ATOM     21  C   LIG    1        3.630  -7.941   1.557  0.00  0.00    +0.290 C 
BRANCH  21  22
ATOM     22  C   LIG    1        4.929  -8.148   0.776  0.00  0.00    +0.150 C 
ATOM     23  C   LIG    1        5.150  -9.654   0.516  0.00  0.00    +0.020 C 
ATOM     24  C   LIG    1        6.684  -9.800   0.719  0.00  0.00    +0.010 C 
ATOM     25  C   LIG    1        6.936  -8.757   1.836  0.00  0.00    +0.200 C 
ATOM     26  O   LIG    1        6.040  -7.672   1.545  0.00  0.00    -0.380 OA
ENDBRANCH  21  22
ENDBRANCH  19  21
ENDBRANCH   3  19
TORSDOF 6
