REMARK  Name = ZINCrH000004tmFl.0
REMARK                            x       y       z     vdW  Elec       q    Type
REMARK                         _______ _______ _______ _____ _____    ______ ____
ROOT
ATOM      1  C   LIG    1        1.334  -0.253   0.444  0.00  0.00    +0.020 C 
ATOM      2  C   LIG    1       -0.138  -0.096  -0.003  0.00  0.00    +0.090 C 
ATOM      3  C   LIG    1       -0.377   1.397   0.026  0.00  0.00    +0.520 C 
ATOM      4  N   LIG    1        0.796   2.053   0.065  0.00  0.00    -0.570 N 
ATOM      5  O   LIG    1       -1.469   1.926   0.011  0.00  0.00    -0.510 OA
ATOM      6  C   LIG    1        1.928   1.119   0.058  0.00  0.00    +0.310 C 
ENDROOT
BRANCH   4   7
ATOM      7  C   LIG    1        0.920   3.442   0.107  0.00  0.00    +0.150 A 
ATOM      8  C   LIG    1        0.963   4.100   1.317  0.00  0.00    +0.040 A 
ATOM      9  C   LIG    1        1.087   5.486   1.370  0.00  0.00    +0.020 A 
ATOM     10  C   LIG    1        1.171   6.228   0.232  0.00  0.00    +0.030 A 
ATOM     11  C   LIG    1        1.132   5.596  -1.022  0.00  0.00    -0.050 A 
ATOM     12  C   LIG    1        1.217   6.336  -2.214  0.00  0.00    +0.030 A 
ATOM     13  C   LIG    1        1.191   5.690  -3.412  0.00  0.00    +0.010 A 
ATOM     14  C   LIG    1        1.066   4.304  -3.477  0.00  0.00    +0.010 A 
ATOM     15  C   LIG    1        0.977   3.555  -2.342  0.00  0.00    +0.020 A 
ATOM     16  C   LIG    1        1.010   4.186  -1.089  0.00  0.00    -0.040 A 
ENDBRANCH   4   7
BRANCH   1  19
ATOM     17  N   LIG    1        0.848  -1.569   2.482  0.00  0.00    -0.670 N 
ATOM     18  H   LIG    1        0.310  -2.162   1.935  0.00  0.00    +0.420 HD
ATOM     19  C   LIG    1        1.425  -0.482   1.931  0.00  0.00    +0.520 C 
ATOM     20  O   LIG    1        2.017   0.311   2.631  0.00  0.00    -0.500 OA
BRANCH  17  24
ATOM     21  C   LIG    1        1.376  -2.377   6.535  0.00  0.00    -0.040 A 
ATOM     22  C   LIG    1        0.172  -2.707   5.906  0.00  0.00    +0.090 A 
ATOM     23  C   LIG    1        0.002  -2.439   4.566  0.00  0.00    -0.010 A 
ATOM     24  C   LIG    1        1.025  -1.839   3.839  0.00  0.00    +0.180 A 
ATOM     25  C   LIG    1        2.226  -1.514   4.461  0.00  0.00    +0.020 A 
ATOM     26  C   LIG    1        2.402  -1.774   5.802  0.00  0.00    +0.090 A 
BRANCH  21  28
ATOM     27  N   LIG    1        1.701  -2.875   9.033  0.00  0.00    -0.410 NA
ATOM     28  C   LIG    1        1.557  -2.654   7.928  0.00  0.00    +0.250 C 
ENDBRANCH  21  28
ENDBRANCH  17  24
ENDBRANCH   1  19
TORSDOF 4
