REMARK  Name = ZINCqH0000004WrI.0
REMARK                            x       y       z     vdW  Elec       q    Type
REMARK                         _______ _______ _______ _____ _____    ______ ____
ROOT
ATOM      1  C   LIG    1        3.933   6.004   1.343  0.00  0.00    +0.280 C 
ATOM      2  N   LIG    1        4.515   5.061   2.301  0.00  0.00    -0.600 N 
ATOM      3  C   LIG    1        4.273   3.741   2.179  0.00  0.00    +0.520 C 
ATOM      4  O   LIG    1        4.754   2.960   2.972  0.00  0.00    -0.530 OA
ENDROOT
BRANCH   2   5
ATOM      5  C   LIG    1        5.361   5.553   3.392  0.00  0.00    +0.290 C 
ATOM      6  C   LIG    1        4.578   6.555   4.266  0.00  0.00    +0.040 C 
ATOM      7  C   LIG    1        4.939   7.910   3.615  0.00  0.00    +0.070 C 
ATOM      8  C   LIG    1        6.288   7.691   2.965  0.00  0.00    -0.090 A 
ATOM      9  C   LIG    1        7.229   8.605   2.521  0.00  0.00    +0.010 A 
ATOM     10  C   LIG    1        8.409   8.167   1.952  0.00  0.00    +0.020 A 
ATOM     11  C   LIG    1        8.651   6.812   1.824  0.00  0.00    +0.010 A 
ATOM     12  C   LIG    1        7.713   5.899   2.265  0.00  0.00    +0.030 A 
ATOM     13  C   LIG    1        6.531   6.336   2.837  0.00  0.00    -0.110 A 
ENDBRANCH   2   5
BRANCH   3  14
ATOM     14  C   LIG    1        3.403   3.235   1.057  0.00  0.00    +0.000 C 
ATOM     15  C   LIG    1        3.290   1.711   1.147  0.00  0.00    +0.060 C 
ATOM     16  C   LIG    1        2.433   1.198  -0.015  0.00  0.00    +0.300 C 
ATOM     17  N   LIG    1        1.143   1.901   0.001  0.00  0.00    -0.600 N 
ATOM     18  C   LIG    1        1.140   3.370   0.003  0.00  0.00    +0.280 C 
ATOM     19  C   LIG    1       -0.014   1.211   0.009  0.00  0.00    +0.650 C 
ATOM     20  O   LIG    1        0.002  -0.004   0.002  0.00  0.00    -0.570 OA
ATOM     21  C   LIG    1        2.010   3.859   1.170  0.00  0.00    +0.030 C 
BRANCH  19  22
ATOM     22  O   LIG    1       -1.189   1.868   0.018  0.00  0.00    -0.360 OA
BRANCH  22  23
ATOM     23  C   LIG    1       -2.396   1.061   0.019  0.00  0.00    +0.140 C 
ATOM     24  C   LIG    1       -2.425   0.185  -1.235  0.00  0.00    +0.040 C 
ATOM     25  C   LIG    1       -3.622   1.976   0.030  0.00  0.00    +0.080 C 
ATOM     26  C   LIG    1       -2.413   0.171   1.264  0.00  0.00    +0.040 C 
ENDBRANCH  22  23
ENDBRANCH  19  22
ENDBRANCH   3  14
TORSDOF 4
