REMARK  Name = ZINCAx00000009Hp.0
REMARK                            x       y       z     vdW  Elec       q    Type
REMARK                         _______ _______ _______ _____ _____    ______ ____
ROOT
ATOM      1  N   LIG    1       -0.460   4.351   1.760  0.00  0.00    -0.560 N 
ATOM      2  C   LIG    1       -0.272   3.029   1.686  0.00  0.00    +0.710 C 
ATOM      3  N   LIG    1       -0.822   2.493   0.582  0.00  0.00    -0.710 N 
ATOM      4  H   LIG    1       -0.809   1.558   0.323  0.00  0.00    +0.440 HD
ATOM      5  C   LIG    1       -1.448   3.603  -0.158  0.00  0.00    +0.170 C 
ATOM      6  C   LIG    1       -0.808   3.758  -1.539  0.00  0.00    +0.100 C 
ATOM      7  O   LIG    1        0.330   2.384   2.522  0.00  0.00    -0.530 OA
ATOM      8  C   LIG    1       -1.158   4.815   0.705  0.00  0.00    +0.540 C 
ATOM      9  O   LIG    1       -1.484   5.962   0.489  0.00  0.00    -0.450 OA
ENDROOT
BRANCH   5  10
ATOM     10  C   LIG    1       -2.934   3.383  -0.286  0.00  0.00    -0.090 A 
ATOM     11  C   LIG    1       -3.794   4.465  -0.274  0.00  0.00    +0.050 A 
ATOM     12  C   LIG    1       -5.159   4.271  -0.397  0.00  0.00    +0.030 A 
ATOM     13  C   LIG    1       -5.661   2.987  -0.521  0.00  0.00    +0.080 A 
ATOM     14  O   LIG    1       -7.005   2.782  -0.637  0.00  0.00    -0.320 OA
ATOM     15  C   LIG    1       -7.455   2.297  -1.903  0.00  0.00    +0.230 C 
ATOM     16  C   LIG    1       -7.331   0.783  -1.977  0.00  0.00    -0.010 C 
ATOM     17  C   LIG    1       -5.884   0.317  -1.913  0.00  0.00    +0.230 C 
ATOM     18  O   LIG    1       -5.303   0.639  -0.648  0.00  0.00    -0.320 OA
ATOM     19  C   LIG    1       -4.798   1.901  -0.526  0.00  0.00    +0.070 A 
ATOM     20  C   LIG    1       -3.433   2.098  -0.409  0.00  0.00    +0.050 A 
ENDBRANCH   5  10
BRANCH   1  21
ATOM     21  C   LIG    1        0.031   5.192   2.855  0.00  0.00    +0.370 C 
BRANCH  21  24
ATOM     22  N   LIG    1        2.067   6.491   3.391  0.00  0.00    -0.670 N 
ATOM     23  H   LIG    1        1.623   6.797   4.197  0.00  0.00    +0.420 HD
ATOM     24  C   LIG    1        1.412   5.694   2.523  0.00  0.00    +0.500 C 
ATOM     25  O   LIG    1        1.936   5.380   1.475  0.00  0.00    -0.500 OA
BRANCH  22  30
ATOM     26  C   LIG    1        5.574   6.380   2.260  0.00  0.00    -0.110 A 
ATOM     27  C   LIG    1        5.999   7.662   2.614  0.00  0.00    +0.050 A 
ATOM     28  C   LIG    1        5.121   8.538   3.220  0.00  0.00    +0.030 A 
ATOM     29  C   LIG    1        3.819   8.151   3.477  0.00  0.00    +0.010 A 
ATOM     30  C   LIG    1        3.386   6.878   3.128  0.00  0.00    +0.130 A 
ATOM     31  C   LIG    1        4.261   5.988   2.525  0.00  0.00    +0.050 A 
BRANCH  26  33
ATOM     32  N   LIG    1        6.478   4.130   1.927  0.00  0.00    -0.610 N 
ATOM     33  C   LIG    1        6.513   5.440   1.612  0.00  0.00    +0.560 C 
ATOM     34  O   LIG    1        7.315   5.848   0.796  0.00  0.00    -0.530 OA
BRANCH  32  36
ATOM     35  C   LIG    1        4.342   2.995   2.286  0.00  0.00    +0.020 C 
ATOM     36  C   LIG    1        5.553   3.647   2.955  0.00  0.00    +0.260 C 
ENDBRANCH  32  36
BRANCH  32  37
ATOM     37  C   LIG    1        7.367   3.188   1.241  0.00  0.00    +0.270 C 
ATOM     38  C   LIG    1        8.684   3.076   2.011  0.00  0.00    +0.020 C 
ENDBRANCH  32  37
ENDBRANCH  26  33
ENDBRANCH  22  30
ENDBRANCH  21  24
ENDBRANCH   1  21
TORSDOF 7
