REMARK  Name = ZINCpe000027pHrT.0
REMARK                            x       y       z     vdW  Elec       q    Type
REMARK                         _______ _______ _______ _____ _____    ______ ____
ROOT
ATOM      1  C   LIG    1       -2.217   1.162  -1.217  0.00  0.00    -0.070 C 
ATOM      2  C   LIG    1       -0.762   1.597  -1.217  0.00  0.00    +0.030 C 
ATOM      3  C   LIG    1       -0.013   1.086   0.008  0.00  0.00    +0.220 C 
ATOM      4  O   LIG    1       -0.695   1.554   1.178  0.00  0.00    -0.370 OA
ATOM      5  C   LIG    1       -1.971   0.944   1.340  0.00  0.00    +0.230 C 
ATOM      6  C   LIG    1       -3.029   2.198  -2.029  0.00  0.00    +0.280 C 
ATOM      7  N   LIG    1       -4.087   2.717  -1.151  0.00  0.00    -0.620 N 
ATOM      8  C   LIG    1       -5.208   3.352  -1.549  0.00  0.00    +0.530 C 
ATOM      9  O   LIG    1       -5.412   3.539  -2.729  0.00  0.00    -0.520 OA
ATOM     10  C   LIG    1       -3.704   2.419   0.241  0.00  0.00    +0.280 C 
ATOM     11  C   LIG    1       -2.870   1.133   0.152  0.00  0.00    -0.020 C 
ENDROOT
BRANCH   1  15
ATOM     12  C   LIG    1       -2.058  -1.698  -3.757  0.00  0.00    +0.290 C 
ATOM     13  N   LIG    1       -1.938  -0.378  -3.132  0.00  0.00    -0.730 N 
ATOM     14  H   LIG    1       -1.567   0.365  -3.635  0.00  0.00    +0.400 HD
ATOM     15  C   LIG    1       -2.341  -0.195  -1.859  0.00  0.00    +0.520 C 
ATOM     16  O   LIG    1       -2.805  -1.123  -1.231  0.00  0.00    -0.530 OA
ENDBRANCH   1  15
BRANCH   8  17
ATOM     17  C   LIG    1       -6.206   3.829  -0.526  0.00  0.00    +0.120 C 
BRANCH  17  18
ATOM     18  C   LIG    1       -7.359   4.501  -1.225  0.00  0.00    -0.060 A 
ATOM     19  C   LIG    1       -7.319   5.860  -1.473  0.00  0.00    +0.030 A 
ATOM     20  C   LIG    1       -8.375   6.477  -2.121  0.00  0.00    +0.040 A 
ATOM     21  C   LIG    1       -9.472   5.737  -2.507  0.00  0.00    -0.130 A 
ATOM     22  C   LIG    1      -10.759   6.102  -3.209  0.00  0.00    +0.270 C 
ATOM     23  O   LIG    1      -11.306   4.866  -3.702  0.00  0.00    -0.360 OA
ATOM     24  C   LIG    1      -10.829   3.859  -2.791  0.00  0.00    +0.270 C 
ATOM     25  C   LIG    1       -9.515   4.375  -2.253  0.00  0.00    -0.130 A 
ATOM     26  C   LIG    1       -8.460   3.758  -1.613  0.00  0.00    +0.040 A 
ENDBRANCH  17  18
ENDBRANCH   8  17
TORSDOF 3
