REMARK  Name = ZINCpk00000xI0dq.0
REMARK                            x       y       z     vdW  Elec       q    Type
REMARK                         _______ _______ _______ _____ _____    ______ ____
ROOT
ATOM      1  C   LIG    1        1.033   0.838   3.444  0.00  0.00    +0.520 C 
ATOM      2  N   LIG    1        1.395   1.654   2.434  0.00  0.00    -0.600 N 
ATOM      3  C   LIG    1        1.129   3.097   2.506  0.00  0.00    +0.260 C 
ATOM      4  C   LIG    1        0.362   3.519   1.248  0.00  0.00    +0.030 C 
ATOM      5  C   LIG    1        1.145   3.086   0.008  0.00  0.00    +0.070 C 
ATOM      6  C   LIG    1        1.286   1.562  -0.002  0.00  0.00    +0.110 C 
ATOM      7  C   LIG    1        2.064   1.117   1.241  0.00  0.00    +0.290 C 
ATOM      8  O   LIG    1        1.259  -0.352   3.373  0.00  0.00    -0.530 OA
ENDROOT
BRANCH   6   9
ATOM      9  O   LIG    1       -0.011   0.963   0.007  0.00  0.00    -0.540 OA
ATOM     10  H   LIG    1        0.002  -0.004   0.002  0.00  0.00    +0.380 HD
ENDBRANCH   6   9
BRANCH   1  11
ATOM     11  C   LIG    1        0.349   1.404   4.662  0.00  0.00    +0.080 C 
BRANCH  11  12
ATOM     12  C   LIG    1        0.048   0.274   5.649  0.00  0.00    +0.220 C 
BRANCH  12  13
ATOM     13  O   LIG    1       -0.601   0.811   6.803  0.00  0.00    -0.320 OA
BRANCH  13  19
ATOM     14  C   LIG    1       -2.600  -0.017  11.178  0.00  0.00    +0.090 C 
ATOM     15  C   LIG    1       -1.913  -0.508   9.930  0.00  0.00    -0.050 A 
ATOM     16  C   LIG    1       -1.626  -1.852   9.783  0.00  0.00    -0.040 A 
ATOM     17  C   LIG    1       -0.996  -2.306   8.639  0.00  0.00    +0.050 A 
ATOM     18  C   LIG    1       -0.651  -1.416   7.640  0.00  0.00    -0.080 A 
ATOM     19  C   LIG    1       -0.939  -0.066   7.785  0.00  0.00    +0.130 A 
ATOM     20  C   LIG    1       -1.566   0.387   8.936  0.00  0.00    -0.020 A 
ENDBRANCH  13  19
ENDBRANCH  12  13
ENDBRANCH  11  12
ENDBRANCH   1  11
BRANCH   6  21
ATOM     21  C   LIG    1        2.041   1.127  -1.260  0.00  0.00    +0.320 C 
BRANCH  21  22
ATOM     22  N   LIG    1        2.177  -0.332  -1.267  0.00  0.00    -0.300 N 
ATOM     23  C   LIG    1        1.780  -1.160  -2.262  0.00  0.00    +0.140 A 
ATOM     24  C   LIG    1        2.094  -2.413  -1.857  0.00  0.00    +0.140 A 
ATOM     25  N   LIG    1        2.659  -2.292  -0.650  0.00  0.00    -0.260 NA
ATOM     26  N   LIG    1        2.699  -1.046  -0.332  0.00  0.00    -0.090 NA
ENDBRANCH  21  22
ENDBRANCH   6  21
TORSDOF 7
