REMARK  Name = ZINCpe000000YbBH.0
REMARK                            x       y       z     vdW  Elec       q    Type
REMARK                         _______ _______ _______ _____ _____    ______ ____
ROOT
ATOM      1  C   LIG    1       -1.534  -1.760   3.038  0.00  0.00    -0.300 A 
ATOM      2  C   LIG    1       -1.230  -2.497   4.120  0.00  0.00    +0.220 A 
ATOM      3  C   LIG    1       -2.321  -2.783   4.945  0.00  0.00    -0.250 A 
ATOM      4  C   LIG    1       -3.514  -2.252   4.471  0.00  0.00    +0.060 A 
ATOM      5  N   LIG    1       -4.678  -2.466   5.189  0.00  0.00    -0.510 N 
ATOM      6  C   LIG    1       -4.674  -3.171   6.329  0.00  0.00    +0.710 A 
ATOM      7  N   LIG    1       -3.550  -3.707   6.833  0.00  0.00    -0.550 N 
ATOM      8  C   LIG    1       -3.612  -4.468   8.084  0.00  0.00    +0.360 C 
ATOM      9  O   LIG    1       -5.721  -3.332   6.925  0.00  0.00    -0.530 OA
ATOM     10  C   LIG    1       -5.939  -1.909   4.694  0.00  0.00    +0.350 C 
ATOM     11  C   LIG    1       -2.369  -3.554   6.207  0.00  0.00    +0.580 A 
ATOM     12  O   LIG    1       -1.356  -4.043   6.672  0.00  0.00    -0.490 OA
ATOM     13  S   LIG    1       -3.251  -1.403   3.012  0.00  0.00    +0.310 S 
ENDROOT
BRANCH   1  15
ATOM     14  N   LIG    1       -0.947  -0.450   1.069  0.00  0.00    -0.610 N 
ATOM     15  C   LIG    1       -0.571  -1.325   2.024  0.00  0.00    +0.600 C 
ATOM     16  O   LIG    1        0.569  -1.752   2.043  0.00  0.00    -0.510 OA
ATOM     17  C   LIG    1       -2.322   0.053   1.038  0.00  0.00    +0.320 C 
BRANCH  14  18
ATOM     18  C   LIG    1        0.020  -0.003   0.064  0.00  0.00    +0.390 C 
ATOM     19  C   LIG    1       -0.481  -0.385  -1.331  0.00  0.00    +0.080 C 
BRANCH  18  24
ATOM     20  C   LIG    1        1.902   4.633   0.249  0.00  0.00    +0.200 C 
ATOM     21  C   LIG    1        0.959   3.458   0.228  0.00  0.00    +0.170 A 
ATOM     22  N   LIG    1       -0.337   3.510   0.304  0.00  0.00    -0.380 NA
ATOM     23  O   LIG    1       -0.806   2.392   0.254  0.00  0.00    +0.080 OA
ATOM     24  C   LIG    1        0.177   1.493   0.149  0.00  0.00    +0.170 A 
ATOM     25  N   LIG    1        1.305   2.162   0.128  0.00  0.00    -0.460 NA
ENDBRANCH  18  24
ENDBRANCH  14  18
ENDBRANCH   1  15
TORSDOF 3
