REMARK  Name = ZINCnE000005tE4F.0
REMARK                            x       y       z     vdW  Elec       q    Type
REMARK                         _______ _______ _______ _____ _____    ______ ____
ROOT
ATOM      1  C   LIG    1       -0.013   1.086   0.008  0.00  0.00    +0.170 C 
ATOM      2  C   LIG    1       -0.732   1.581   1.266  0.00  0.00    +0.030 C 
ATOM      3  C   LIG    1       -2.185   1.096   1.239  0.00  0.00    +0.180 C 
ATOM      4  N   LIG    1       -2.852   1.610   0.036  0.00  0.00    -0.480 N 
ATOM      5  C   LIG    1       -2.207   1.109  -1.184  0.00  0.00    +0.180 C 
ATOM      6  C   LIG    1       -0.756   1.594  -1.230  0.00  0.00    +0.030 C 
ENDROOT
BRANCH   1  12
ATOM      7  C   LIG    1        5.908  -0.124  -0.056  0.00  0.00    +0.190 C 
ATOM      8  C   LIG    1        4.402  -0.057  -0.041  0.00  0.00    +0.080 A 
ATOM      9  N   LIG    1        3.614  -1.079  -0.039  0.00  0.00    -0.310 NA
ATOM     10  N   LIG    1        2.292  -0.609  -0.024  0.00  0.00    -0.550 NA
ATOM     11  C   LIG    1        2.367   0.759  -0.017  0.00  0.00    +0.440 A 
ATOM     12  N   LIG    1        1.361   1.594  -0.002  0.00  0.00    -0.690 NA
ATOM     13  O   LIG    1        3.677   1.079  -0.033  0.00  0.00    -0.300 OA
ENDBRANCH   1  12
BRANCH   4  14
ATOM     14  C   LIG    1       -4.213   1.296   0.047  0.00  0.00    +0.130 A 
ATOM     15  C   LIG    1       -4.776   0.603  -1.017  0.00  0.00    -0.010 A 
ATOM     16  C   LIG    1       -6.122   0.291  -1.001  0.00  0.00    +0.040 A 
ATOM     17  C   LIG    1       -6.910   0.677   0.067  0.00  0.00    +0.020 A 
ATOM     18  C   LIG    1       -6.354   1.371   1.126  0.00  0.00    -0.160 A 
ATOM     19  C   LIG    1       -5.008   1.683   1.119  0.00  0.00    +0.040 A 
BRANCH  18  20
ATOM     20  C   LIG    1       -7.217   1.790   2.288  0.00  0.00    +0.510 C 
ATOM     21  F   LIG    1       -6.443   1.829   3.453  0.00  0.00    -0.180 F 
ATOM     22  F   LIG    1       -8.258   0.870   2.451  0.00  0.00    -0.180 F 
ATOM     23  F   LIG    1       -7.751   3.059   2.039  0.00  0.00    -0.180 F 
ENDBRANCH  18  20
ENDBRANCH   4  14
TORSDOF 3
