REMARK  Name = ZINCrH000004r6Sh.0
REMARK                            x       y       z     vdW  Elec       q    Type
REMARK                         _______ _______ _______ _____ _____    ______ ____
ROOT
ATOM      1  N   LIG    1       -4.288   6.076   0.335  0.00  0.00    -0.600 N 
ATOM      2  H   LIG    1       -4.806   5.271   0.177  0.00  0.00    +0.440 HD
ATOM      3  C   LIG    1       -2.951   5.998   0.483  0.00  0.00    +0.620 C 
ATOM      4  O   LIG    1       -2.302   7.006   0.682  0.00  0.00    -0.470 OA
ENDROOT
BRANCH   3   5
ATOM      5  C   LIG    1       -2.272   4.684   0.403  0.00  0.00    +0.240 A 
ATOM      6  N   LIG    1       -0.973   4.487   0.532  0.00  0.00    -0.250 NA
ATOM      7  N   LIG    1       -0.754   3.110   0.391  0.00  0.00    -0.330 N 
ATOM      8  C   LIG    1        0.365   2.336   0.428  0.00  0.00    +0.210 A 
ATOM      9  C   LIG    1        0.245   0.996   0.251  0.00  0.00    -0.030 A 
ATOM     10  C   LIG    1       -1.025   0.445   0.034  0.00  0.00    +0.240 A 
ATOM     11  N   LIG    1       -2.086   1.217  -0.002  0.00  0.00    -0.460 NA
ATOM     12  C   LIG    1       -1.173  -1.042  -0.164  0.00  0.00    +0.170 C 
ATOM     13  C   LIG    1        1.718   2.957   0.663  0.00  0.00    +0.180 C 
ATOM     14  C   LIG    1       -1.980   2.540   0.177  0.00  0.00    +0.460 A 
ATOM     15  N   LIG    1       -2.878   3.514   0.190  0.00  0.00    -0.500 NA
ENDBRANCH   3   5
BRANCH   1  19
ATOM     16  C   LIG    1       -6.633   8.750   0.385  0.00  0.00    +0.130 A 
ATOM     17  C   LIG    1       -5.681   9.673   0.610  0.00  0.00    -0.100 A 
ATOM     18  S   LIG    1       -4.125   8.850   0.699  0.00  0.00    +0.200 S 
ATOM     19  C   LIG    1       -4.924   7.307   0.410  0.00  0.00    +0.270 A 
ATOM     20  N   LIG    1       -6.200   7.501   0.284  0.00  0.00    -0.480 NA
BRANCH  16  26
ATOM     21  C   LIG    1      -10.643  11.194   2.081  0.00  0.00    +0.100 C 
ATOM     22  C   LIG    1       -9.998  10.278   1.072  0.00  0.00    -0.090 A 
ATOM     23  C   LIG    1      -10.746   9.766   0.027  0.00  0.00    +0.010 A 
ATOM     24  C   LIG    1      -10.160   8.925  -0.902  0.00  0.00    +0.010 A 
ATOM     25  C   LIG    1       -8.826   8.592  -0.791  0.00  0.00    -0.060 A 
ATOM     26  C   LIG    1       -8.067   9.104   0.260  0.00  0.00    -0.020 A 
ATOM     27  C   LIG    1       -8.190   7.675  -1.804  0.00  0.00    +0.090 C 
ATOM     28  C   LIG    1       -8.664   9.947   1.197  0.00  0.00    +0.020 A 
ENDBRANCH  16  26
ENDBRANCH   1  19
TORSDOF 3
