REMARK  Name = ZINCtV000002PFME.0
REMARK                            x       y       z     vdW  Elec       q    Type
REMARK                         _______ _______ _______ _____ _____    ______ ____
ROOT
ATOM      1  C   LIG    1        2.331   3.782   0.839  0.00  0.00    +0.110 C 
ATOM      2  C   LIG    1        2.499   2.890  -0.176  0.00  0.00    +0.030 C 
ENDROOT
BRANCH   2   3
ATOM      3  C   LIG    1        3.849   2.620  -0.704  0.00  0.00    +0.150 A 
ATOM      4  N   LIG    1        4.402   1.453  -0.755  0.00  0.00    -0.420 NA
ATOM      5  C   LIG    1        5.640   1.365  -1.268  0.00  0.00    +0.070 A 
ATOM      6  C   LIG    1        6.449   0.220  -1.436  0.00  0.00    +0.090 A 
ATOM      7  C   LIG    1        7.695   0.326  -1.975  0.00  0.00    +0.030 A 
ATOM      8  C   LIG    1        8.195   1.558  -2.371  0.00  0.00    +0.050 A 
ATOM      9  C   LIG    1        7.429   2.693  -2.221  0.00  0.00    +0.050 A 
ATOM     10  C   LIG    1        6.152   2.605  -1.671  0.00  0.00    -0.160 A 
ATOM     11  S   LIG    1        4.939   3.841  -1.347  0.00  0.00    +0.080 S 
ENDBRANCH   2   3
BRANCH   2  12
ATOM     12  C   LIG    1        1.331   2.195  -0.748  0.00  0.00    +0.140 A 
ATOM     13  N   LIG    1        1.383   1.334  -1.709  0.00  0.00    -0.430 NA
ATOM     14  C   LIG    1        0.229   0.783  -2.123  0.00  0.00    +0.080 A 
ATOM     15  C   LIG    1        0.021  -0.171  -3.143  0.00  0.00    +0.080 A 
ATOM     16  C   LIG    1       -1.234  -0.618  -3.427  0.00  0.00    +0.030 A 
ATOM     17  C   LIG    1       -2.332  -0.147  -2.720  0.00  0.00    +0.050 A 
ATOM     18  C   LIG    1       -2.160   0.783  -1.719  0.00  0.00    +0.050 A 
ATOM     19  C   LIG    1       -0.884   1.253  -1.415  0.00  0.00    -0.160 A 
ATOM     20  S   LIG    1       -0.330   2.420  -0.217  0.00  0.00    +0.080 S 
ENDBRANCH   2  12
BRANCH   1  24
ATOM     21  C   LIG    1        5.712   5.433   2.792  0.00  0.00    -0.030 A 
ATOM     22  C   LIG    1        4.535   6.158   2.723  0.00  0.00    +0.100 A 
ATOM     23  C   LIG    1        3.431   5.629   2.090  0.00  0.00    +0.070 A 
ATOM     24  C   LIG    1        3.503   4.354   1.516  0.00  0.00    -0.020 A 
ATOM     25  C   LIG    1        4.695   3.626   1.594  0.00  0.00    +0.050 A 
ATOM     26  C   LIG    1        5.792   4.172   2.226  0.00  0.00    +0.110 A 
BRANCH  21  28
ATOM     27  O   LIG    1        6.827   7.119   3.972  0.00  0.00    -0.150 OA
ATOM     28  N   LIG    1        6.893   6.010   3.473  0.00  0.00    +0.020 N 
ATOM     29  O   LIG    1        7.931   5.375   3.536  0.00  0.00    -0.160 OA
ENDBRANCH  21  28
ENDBRANCH   1  24
TORSDOF 4
