REMARK  Name = ZINCqH00000079bx.0
REMARK                            x       y       z     vdW  Elec       q    Type
REMARK                         _______ _______ _______ _____ _____    ______ ____
ROOT
ATOM      1  N   LIG    1        7.219  -0.204  -0.069  0.00  0.00    -0.610 N 
ATOM      2  C   LIG    1        5.981  -0.737  -0.060  0.00  0.00    +0.520 C 
ATOM      3  O   LIG    1        5.839  -1.942  -0.065  0.00  0.00    -0.510 OA
ATOM      4  C   LIG    1        7.390   1.251  -0.062  0.00  0.00    +0.280 C 
ENDROOT
BRANCH   1   5
ATOM      5  C   LIG    1        8.393  -1.080  -0.085  0.00  0.00    +0.290 C 
BRANCH   5   6
ATOM      6  C   LIG    1        8.788  -1.376  -1.533  0.00  0.00    +0.070 C 
BRANCH   6  10
ATOM      7  C   LIG    1       12.220  -3.928  -1.582  0.00  0.00    +0.100 A 
ATOM      8  C   LIG    1       12.376  -2.551  -1.576  0.00  0.00    -0.030 A 
ATOM      9  C   LIG    1       11.265  -1.729  -1.565  0.00  0.00    +0.020 A 
ATOM     10  C   LIG    1        9.996  -2.277  -1.550  0.00  0.00    -0.080 A 
ATOM     11  C   LIG    1        9.833  -3.650  -1.556  0.00  0.00    -0.020 A 
ATOM     12  C   LIG    1       10.942  -4.480  -1.573  0.00  0.00    +0.100 A 
BRANCH   7  14
ATOM     13  C   LIG    1       14.592  -4.101  -1.608  0.00  0.00    +0.230 C 
ATOM     14  O   LIG    1       13.312  -4.738  -1.598  0.00  0.00    -0.310 OA
ENDBRANCH   7  14
BRANCH  12  15
ATOM     15  O   LIG    1       10.783  -5.830  -1.578  0.00  0.00    -0.310 OA
ATOM     16  C   LIG    1        9.443  -6.326  -1.567  0.00  0.00    +0.250 C 
ENDBRANCH  12  15
ENDBRANCH   6  10
ENDBRANCH   5   6
ENDBRANCH   1   5
BRANCH   2  17
ATOM     17  C   LIG    1        4.773   0.164  -0.043  0.00  0.00    +0.240 C 
BRANCH  17  18
ATOM     18  O   LIG    1        3.586  -0.632  -0.036  0.00  0.00    -0.290 OA
BRANCH  18  19
ATOM     19  C   LIG    1        2.399   0.031  -0.021  0.00  0.00    +0.140 A 
ATOM     20  C   LIG    1        2.378   1.418  -0.013  0.00  0.00    -0.070 A 
ATOM     21  C   LIG    1        1.171   2.089   0.002  0.00  0.00    +0.080 A 
ATOM     22  C   LIG    1       -0.017   1.380   0.010  0.00  0.00    -0.080 A 
ATOM     23  C   LIG    1        0.002  -0.004   0.002  0.00  0.00    -0.030 A 
ATOM     24  C   LIG    1       -1.293  -0.775   0.010  0.00  0.00    +0.120 C 
ATOM     25 CL   LIG    1       -1.532   2.226   0.021  0.00  0.00    -0.070 Cl
ATOM     26  C   LIG    1        1.207  -0.679  -0.013  0.00  0.00    +0.000 A 
ENDBRANCH  18  19
ENDBRANCH  17  18
ENDBRANCH   2  17
TORSDOF 8
