REMARK  Name = ZINCqH0000000fNu.0
REMARK                            x       y       z     vdW  Elec       q    Type
REMARK                         _______ _______ _______ _____ _____    ______ ____
ROOT
ATOM      1  N   LIG    1       -1.076  -2.095  -0.579  0.00  0.00    -0.620 N 
ATOM      2  C   LIG    1       -1.209  -2.304  -1.905  0.00  0.00    +0.580 C 
ATOM      3  C   LIG    1       -1.661  -1.196  -2.766  0.00  0.00    -0.200 A 
ATOM      4  C   LIG    1       -1.550  -1.254  -4.153  0.00  0.00    +0.110 A 
ATOM      5  C   LIG    1       -1.994  -0.192  -4.915  0.00  0.00    -0.050 A 
ATOM      6  C   LIG    1       -2.546   0.926  -4.311  0.00  0.00    +0.080 A 
ATOM      7  C   LIG    1       -2.660   0.997  -2.935  0.00  0.00    -0.050 A 
ATOM      8  C   LIG    1       -2.218  -0.058  -2.156  0.00  0.00    +0.240 A 
ATOM      9  N   LIG    1       -2.298  -0.035  -0.771  0.00  0.00    -0.730 N 
ATOM     10  H   LIG    1       -3.004   0.460  -0.327  0.00  0.00    +0.420 HD
ATOM     11  O   LIG    1       -0.958  -3.393  -2.384  0.00  0.00    -0.530 OA
ATOM     12  C   LIG    1       -1.295  -0.772   0.006  0.00  0.00    +0.560 C 
ENDROOT
BRANCH  12  13
ATOM     13  C   LIG    1        0.002  -0.004   0.002  0.00  0.00    -0.130 A 
ATOM     14  C   LIG    1        1.202  -0.683  -0.009  0.00  0.00    +0.060 A 
ATOM     15  C   LIG    1        2.406   0.017  -0.013  0.00  0.00    +0.070 A 
ATOM     16  C   LIG    1        2.377   1.405  -0.013  0.00  0.00    -0.130 A 
ATOM     17  C   LIG    1        3.817   1.880  -0.042  0.00  0.00    +0.080 C 
ATOM     18  C   LIG    1        4.571   0.593  -0.451  0.00  0.00    +0.170 C 
ATOM     19  C   LIG    1        5.919   0.503   0.266  0.00  0.00    +0.070 C 
ATOM     20  C   LIG    1        1.180   2.086   0.002  0.00  0.00    -0.030 A 
ATOM     21  O   LIG    1        3.686  -0.449  -0.006  0.00  0.00    -0.300 OA
ATOM     22  C   LIG    1       -0.017   1.383   0.010  0.00  0.00    +0.130 A 
BRANCH  22  23
ATOM     23  O   LIG    1       -1.202   2.050   0.019  0.00  0.00    -0.300 OA
ATOM     24  C   LIG    1       -1.142   3.478   0.026  0.00  0.00    +0.220 C 
ENDBRANCH  22  23
ENDBRANCH  12  13
BRANCH   1  25
ATOM     25  C   LIG    1       -0.706  -3.213   0.292  0.00  0.00    +0.330 C 
BRANCH  25  27
ATOM     26  C   LIG    1       -2.103  -5.194   0.587  0.00  0.00    +0.040 C 
ATOM     27  C   LIG    1       -1.953  -3.907   0.777  0.00  0.00    -0.070 C 
ENDBRANCH  25  27
ENDBRANCH   1  25
TORSDOF 4
