REMARK  Name = ZINCtV00000rsI5N.0
REMARK                            x       y       z     vdW  Elec       q    Type
REMARK                         _______ _______ _______ _____ _____    ______ ____
ROOT
ATOM      1  C   LIG    1        5.535   3.541   1.486  0.00  0.00    +0.240 A 
ATOM      2  N   LIG    1        4.990   3.858   0.335  0.00  0.00    -0.260 NA
ATOM      3  N   LIG    1        3.860   3.260   0.204  0.00  0.00    -0.280 NA
ATOM      4  C   LIG    1        3.612   2.524   1.265  0.00  0.00    +0.170 A 
ATOM      5  N   LIG    1        4.667   2.680   2.122  0.00  0.00    -0.420 N 
ENDROOT
BRANCH   1  10
ATOM      6  C   LIG    1       10.586   5.415   3.509  0.00  0.00    +0.100 C 
ATOM      7  C   LIG    1        9.264   4.924   2.979  0.00  0.00    -0.070 A 
ATOM      8  C   LIG    1        8.670   5.566   1.907  0.00  0.00    +0.010 A 
ATOM      9  C   LIG    1        7.459   5.122   1.417  0.00  0.00    +0.070 A 
ATOM     10  C   LIG    1        6.833   4.022   2.006  0.00  0.00    -0.030 A 
ATOM     11  C   LIG    1        7.435   3.381   3.090  0.00  0.00    +0.030 A 
ATOM     12  C   LIG    1        8.649   3.832   3.567  0.00  0.00    +0.010 A 
ENDBRANCH   1  10
BRANCH   5  13
ATOM     13  C   LIG    1        4.832   2.086   3.381  0.00  0.00    +0.110 A 
ATOM     14  C   LIG    1        4.863   2.875   4.523  0.00  0.00    +0.060 A 
ATOM     15  C   LIG    1        5.021   2.287   5.763  0.00  0.00    +0.050 A 
ATOM     16  C   LIG    1        5.159   0.914   5.866  0.00  0.00    -0.020 A 
ATOM     17  C   LIG    1        5.134   0.126   4.729  0.00  0.00    +0.060 A 
ATOM     18 CL   LIG    1        5.365   0.179   7.425  0.00  0.00    -0.050 Cl
ATOM     19  C   LIG    1        4.971   0.709   3.487  0.00  0.00    +0.050 A 
ENDBRANCH   5  13
BRANCH   4  20
ATOM     20  S   LIG    1        2.184   1.528   1.536  0.00  0.00    +0.020 S 
BRANCH  20  21
ATOM     21  C   LIG    1        1.282   1.847  -0.000  0.00  0.00    +0.140 C 
BRANCH  21  22
ATOM     22  C   LIG    1       -0.013   1.076   0.008  0.00  0.00    -0.020 C 
ATOM     23  C   LIG    1       -1.169   1.723   0.017  0.00  0.00    +0.040 C 
BRANCH  23  24
ATOM     24  C   LIG    1       -2.439   0.967   0.019  0.00  0.00    -0.060 A 
ATOM     25  C   LIG    1       -2.424  -0.429   0.005  0.00  0.00    +0.020 A 
ATOM     26  C   LIG    1       -3.613  -1.129   0.014  0.00  0.00    +0.000 A 
ATOM     27  C   LIG    1       -4.819  -0.450   0.023  0.00  0.00    +0.000 A 
ATOM     28  C   LIG    1       -4.841   0.933   0.030  0.00  0.00    +0.010 A 
ATOM     29  C   LIG    1       -3.659   1.645   0.028  0.00  0.00    +0.030 A 
ENDBRANCH  23  24
ENDBRANCH  21  22
ENDBRANCH  20  21
ENDBRANCH   4  20
TORSDOF 6
