REMARK  Name = ZINCtj00001UqOkU.1
REMARK                            x       y       z     vdW  Elec       q    Type
REMARK                         _______ _______ _______ _____ _____    ______ ____
ROOT
ATOM      1  C   LIG    1       -3.969  -3.557  -0.455  0.00  0.00    +0.630 C 
ATOM      2  N   LIG    1       -2.807  -3.134   0.081  0.00  0.00    -0.650 N 
ATOM      3  C   LIG    1       -1.405  -3.097  -0.387  0.00  0.00    +0.320 C 
ATOM      4  C   LIG    1       -1.218  -1.960   0.618  0.00  0.00    -0.120 C 
ATOM      5  C   LIG    1       -1.384  -0.543   0.052  0.00  0.00    +0.310 C 
ATOM      6  N   LIG    1        0.002  -0.004   0.002  0.00  0.00    -0.400 N 
ATOM      7  C   LIG    1        0.648  -0.521   1.237  0.00  0.00    +0.290 C 
ATOM      8  C   LIG    1       -0.018   1.465   0.010  0.00  0.00    +0.350 C 
ATOM      9  H   LIG    1        0.483  -0.345  -0.817  0.00  0.00    +0.430 HD
ATOM     10  C   LIG    1        0.107  -1.962   1.387  0.00  0.00    +0.110 C 
ATOM     11  C   LIG    1       -2.425  -2.520   1.370  0.00  0.00    +0.350 C 
ATOM     12  O   LIG    1       -3.984  -4.035  -1.574  0.00  0.00    -0.500 OA
ENDROOT
BRANCH   1  15
ATOM     13  C   LIG    1       -6.799  -4.450  -1.440  0.00  0.00    +0.140 C 
ATOM     14  C   LIG    1       -6.454  -3.828  -0.111  0.00  0.00    -0.070 A 
ATOM     15  C   LIG    1       -5.214  -3.441   0.310  0.00  0.00    -0.110 A 
ATOM     16  O   LIG    1       -5.335  -2.937   1.556  0.00  0.00    -0.170 OA
ATOM     17  C   LIG    1       -6.620  -2.987   1.933  0.00  0.00    +0.230 A 
ATOM     18  C   LIG    1       -7.345  -3.534   0.932  0.00  0.00    -0.060 A 
ENDBRANCH   1  15
BRANCH  10  19
ATOM     19  C   LIG    1        1.067  -2.950   0.777  0.00  0.00    +0.200 A 
ATOM     20  C   LIG    1        1.807  -2.609  -0.344  0.00  0.00    -0.150 A 
ATOM     21  C   LIG    1        2.683  -3.545  -0.870  0.00  0.00    +0.380 A 
ATOM     22  N   LIG    1        2.778  -4.733  -0.297  0.00  0.00    -0.540 NA
ATOM     23  C   LIG    1        2.052  -5.030   0.771  0.00  0.00    +0.520 A 
ATOM     24  N   LIG    1        1.210  -4.156   1.302  0.00  0.00    -0.520 NA
BRANCH  23  25
ATOM     25  N   LIG    1        2.177  -6.283   1.345  0.00  0.00    -0.460 N 
ATOM     26  C   LIG    1        2.543  -6.178   2.765  0.00  0.00    +0.200 C 
ATOM     27  C   LIG    1        2.611  -7.581   3.375  0.00  0.00    +0.240 C 
ATOM     28  O   LIG    1        3.543  -8.372   2.633  0.00  0.00    -0.380 OA
ATOM     29  C   LIG    1        3.217  -8.496   1.246  0.00  0.00    +0.240 C 
ATOM     30  C   LIG    1        3.155  -7.103   0.615  0.00  0.00    +0.200 C 
ENDBRANCH  23  25
ENDBRANCH  10  19
TORSDOF 3
