REMARK  Name = ZINCtj00001UqOkU.0
REMARK                            x       y       z     vdW  Elec       q    Type
REMARK                         _______ _______ _______ _____ _____    ______ ____
ROOT
ATOM      1  C   LIG    1       -1.312  -0.914  -0.196  0.00  0.00    +0.640 C 
ATOM      2  N   LIG    1       -1.114  -2.246  -0.147  0.00  0.00    -0.650 N 
ATOM      3  C   LIG    1        0.054  -3.143  -0.136  0.00  0.00    +0.330 C 
ATOM      4  C   LIG    1       -0.816  -4.162   0.593  0.00  0.00    -0.130 C 
ATOM      5  C   LIG    1       -0.791  -4.111   2.124  0.00  0.00    +0.320 C 
ATOM      6  N   LIG    1       -1.149  -5.494   2.543  0.00  0.00    -0.400 N 
ATOM      7  C   LIG    1       -0.461  -6.369   1.557  0.00  0.00    +0.290 C 
ATOM      8  C   LIG    1       -0.657  -5.762   3.901  0.00  0.00    +0.340 C 
ATOM      9  H   LIG    1       -2.147  -5.629   2.497  0.00  0.00    +0.430 HD
ATOM     10  C   LIG    1       -0.608  -5.629   0.207  0.00  0.00    +0.100 C 
ATOM     11  C   LIG    1       -1.972  -3.441  -0.087  0.00  0.00    +0.340 C 
ATOM     12  O   LIG    1       -2.443  -0.466  -0.197  0.00  0.00    -0.500 OA
ENDROOT
BRANCH   1  15
ATOM     13  C   LIG    1       -1.467   2.207  -0.322  0.00  0.00    +0.140 C 
ATOM     14  C   LIG    1       -0.221   1.360  -0.302  0.00  0.00    -0.060 A 
ATOM     15  C   LIG    1       -0.163  -0.003  -0.249  0.00  0.00    -0.110 A 
ATOM     16  O   LIG    1        1.137  -0.366  -0.254  0.00  0.00    -0.170 OA
ATOM     17  C   LIG    1        1.904   0.730  -0.308  0.00  0.00    +0.220 A 
ATOM     18  C   LIG    1        1.105   1.819  -0.339  0.00  0.00    -0.060 A 
ENDBRANCH   1  15
BRANCH  10  19
ATOM     19  C   LIG    1        0.645  -5.784  -0.616  0.00  0.00    +0.200 A 
ATOM     20  C   LIG    1        1.882  -5.884   0.001  0.00  0.00    -0.120 A 
ATOM     21  C   LIG    1        3.009  -6.030  -0.793  0.00  0.00    +0.380 A 
ATOM     22  N   LIG    1        2.872  -6.059  -2.109  0.00  0.00    -0.540 NA
ATOM     23  C   LIG    1        1.675  -5.955  -2.667  0.00  0.00    +0.510 A 
ATOM     24  N   LIG    1        0.578  -5.819  -1.937  0.00  0.00    -0.520 NA
BRANCH  23  25
ATOM     25  N   LIG    1        1.568  -5.989  -4.047  0.00  0.00    -0.460 N 
ATOM     26  C   LIG    1        0.657  -7.059  -4.479  0.00  0.00    +0.190 C 
ATOM     27  C   LIG    1        0.522  -7.023  -6.003  0.00  0.00    +0.240 C 
ATOM     28  O   LIG    1        1.819  -7.143  -6.595  0.00  0.00    -0.380 OA
ATOM     29  C   LIG    1        2.731  -6.117  -6.197  0.00  0.00    +0.230 C 
ATOM     30  C   LIG    1        2.889  -6.144  -4.674  0.00  0.00    +0.200 C 
ENDBRANCH  23  25
ENDBRANCH  10  19
TORSDOF 3
