REMARK  Name = ZINCqH0000037YzZ.0
REMARK                            x       y       z     vdW  Elec       q    Type
REMARK                         _______ _______ _______ _____ _____    ______ ____
ROOT
ATOM      1  C   LIG    1        1.655   1.843  -0.067  0.00  0.00    +0.330 A 
ATOM      2  N   LIG    1        0.551   1.217   0.231  0.00  0.00    -0.260 NA
ATOM      3  N   LIG    1        0.784  -0.159   0.107  0.00  0.00    -0.470 N 
ATOM      4  H   LIG    1        0.140  -0.867   0.267  0.00  0.00    +0.470 HD
ATOM      5  C   LIG    1        2.068  -0.320  -0.275  0.00  0.00    +0.480 A 
ATOM      6  S   LIG    1        2.856  -1.812  -0.565  0.00  0.00    -0.560 S 
ATOM      7  N   LIG    1        2.618   0.906  -0.386  0.00  0.00    -0.480 N 
ENDROOT
BRANCH   1  12
ATOM      8  C   LIG    1        2.393   7.551  -0.056  0.00  0.00    +0.100 C 
ATOM      9  C   LIG    1        2.200   6.056  -0.059  0.00  0.00    -0.050 A 
ATOM     10  C   LIG    1        3.058   5.252  -0.787  0.00  0.00    +0.020 A 
ATOM     11  C   LIG    1        2.887   3.883  -0.793  0.00  0.00    +0.030 A 
ATOM     12  C   LIG    1        1.845   3.310  -0.064  0.00  0.00    -0.050 A 
ATOM     13  C   LIG    1        0.979   4.127   0.664  0.00  0.00    +0.080 A 
ATOM     14  C   LIG    1        1.165   5.494   0.667  0.00  0.00    +0.020 A 
ENDBRANCH   1  12
BRANCH   7  15
ATOM     15  C   LIG    1        3.999   1.194  -0.778  0.00  0.00    +0.380 C 
BRANCH  15  16
ATOM     16  C   LIG    1        4.098   1.227  -2.281  0.00  0.00    +0.510 C 
ATOM     17  N   LIG    1        5.283   1.476  -2.873  0.00  0.00    -0.600 N 
ATOM     18  C   LIG    1        6.475   1.715  -2.055  0.00  0.00    +0.290 C 
ATOM     19  O   LIG    1        3.112   1.029  -2.959  0.00  0.00    -0.510 OA
BRANCH  17  20
ATOM     20  C   LIG    1        5.380   1.508  -4.335  0.00  0.00    +0.290 C 
ATOM     21  C   LIG    1        5.997   2.837  -4.776  0.00  0.00    +0.040 C 
BRANCH  20  22
ATOM     22  C   LIG    1        6.248   0.370  -4.806  0.00  0.00    -0.100 A 
ATOM     23  C   LIG    1        7.495   0.173  -4.244  0.00  0.00    +0.010 A 
ATOM     24  C   LIG    1        8.290  -0.873  -4.673  0.00  0.00    +0.000 A 
ATOM     25  C   LIG    1        7.840  -1.718  -5.671  0.00  0.00    +0.000 A 
ATOM     26  C   LIG    1        6.595  -1.518  -6.237  0.00  0.00    +0.000 A 
ATOM     27  C   LIG    1        5.799  -0.474  -5.804  0.00  0.00    +0.020 A 
ENDBRANCH  20  22
ENDBRANCH  17  20
ENDBRANCH  15  16
ENDBRANCH   7  15
TORSDOF 5
