REMARK  Name = ZINCrg000000mWs1.0
REMARK                            x       y       z     vdW  Elec       q    Type
REMARK                         _______ _______ _______ _____ _____    ______ ____
ROOT
ATOM      1  C   LIG    1       -2.138  -2.935  -0.033  0.00  0.00    +0.590 C 
ATOM      2  N   LIG    1       -3.204  -2.114   0.048  0.00  0.00    -0.610 N 
ATOM      3  C   LIG    1       -3.210  -0.825  -0.657  0.00  0.00    +0.270 C 
ATOM      4  C   LIG    1       -4.455  -0.771  -1.558  0.00  0.00    +0.300 C 
ATOM      5  N   LIG    1       -5.629  -1.146  -0.758  0.00  0.00    -1.010 NA
ATOM      6  C   LIG    1       -5.620  -2.433  -0.049  0.00  0.00    +0.290 C 
ATOM      7  C   LIG    1       -4.378  -2.490   0.848  0.00  0.00    +0.290 C 
ATOM      8  O   LIG    1       -2.192  -4.051   0.448  0.00  0.00    -0.510 OA
ENDROOT
BRANCH   1  12
ATOM      9  C   LIG    1        1.046  -1.287  -1.736  0.00  0.00    -0.280 A 
ATOM     10  C   LIG    1        1.082  -2.652  -1.850  0.00  0.00    +0.090 A 
ATOM     11  C   LIG    1        0.018  -3.300  -1.287  0.00  0.00    +0.090 A 
ATOM     12  C   LIG    1       -0.907  -2.481  -0.703  0.00  0.00    -0.240 A 
ATOM     13  S   LIG    1       -0.408  -0.804  -0.873  0.00  0.00    +0.220 S 
BRANCH   9  15
ATOM     14  C   LIG    1        1.906   1.115  -2.060  0.00  0.00    +0.080 C 
ATOM     15  C   LIG    1        2.063  -0.371  -2.253  0.00  0.00    +0.420 C 
ATOM     16  O   LIG    1        3.033  -0.808  -2.837  0.00  0.00    -0.440 OA
ENDBRANCH   9  15
ENDBRANCH   1  12
BRANCH   5  17
ATOM     17  S   LIG    1       -6.938  -0.137  -0.659  0.00  0.00    +2.780 S 
ATOM     18  O   LIG    1       -8.082  -0.974  -0.551  0.00  0.00    -0.960 OA
ATOM     19  O   LIG    1       -6.778   0.831  -1.687  0.00  0.00    -0.970 OA
BRANCH  17  20
ATOM     20  N   LIG    1       -6.820   0.680   0.776  0.00  0.00    -1.010 NA
ATOM     21  C   LIG    1       -5.941   1.852   0.910  0.00  0.00    +0.270 C 
ATOM     22  C   LIG    1       -6.759   2.997   1.528  0.00  0.00    +0.140 C 
ATOM     23  O   LIG    1       -7.384   2.533   2.727  0.00  0.00    -0.370 OA
ATOM     24  C   LIG    1       -8.320   1.471   2.526  0.00  0.00    +0.200 C 
ATOM     25  C   LIG    1       -9.400   1.922   1.541  0.00  0.00    +0.010 C 
ATOM     26  C   LIG    1       -5.831   4.168   1.856  0.00  0.00    +0.070 C 
ATOM     27  C   LIG    1       -7.585   0.252   1.958  0.00  0.00    +0.280 C 
ENDBRANCH  17  20
ENDBRANCH   5  17
TORSDOF 4
