REMARK  Name = ZINCpe000000XYVU.1
REMARK                            x       y       z     vdW  Elec       q    Type
REMARK                         _______ _______ _______ _____ _____    ______ ____
ROOT
ATOM      1  C   LIG    1        1.317  -0.740  -0.015  0.00  0.00    -0.010 C 
ATOM      2  C   LIG    1        2.103  -0.351  -1.269  0.00  0.00    +0.020 C 
ATOM      3  C   LIG    1        3.454  -1.074  -1.265  0.00  0.00    +0.300 C 
ATOM      4  N   LIG    1        3.217  -2.517  -1.124  0.00  0.00    -1.000 NA
ATOM      5  C   LIG    1        2.396  -2.992  -0.002  0.00  0.00    +0.300 C 
ATOM      6  C   LIG    1        1.058  -2.248  -0.020  0.00  0.00    +0.040 C 
ENDROOT
BRANCH   1   9
ATOM      7  N   LIG    1       -0.016   1.344   0.009  0.00  0.00    -0.730 N 
ATOM      8  H   LIG    1        0.817   1.840   0.004  0.00  0.00    +0.400 HD
ATOM      9  C   LIG    1        0.002  -0.004   0.002  0.00  0.00    +0.520 C 
ATOM     10  O   LIG    1       -1.040  -0.625   0.009  0.00  0.00    -0.540 OA
BRANCH   7  11
ATOM     11  C   LIG    1       -1.295   2.059   0.019  0.00  0.00    +0.350 C 
BRANCH  11  14
ATOM     12  C   LIG    1       -0.550   3.811  -2.463  0.00  0.00    +0.160 C 
ATOM     13  C   LIG    1       -0.717   4.301  -1.048  0.00  0.00    +0.110 A 
ATOM     14  C   LIG    1       -1.040   3.544   0.026  0.00  0.00    -0.270 A 
ATOM     15  C   LIG    1       -1.088   4.382   1.145  0.00  0.00    +0.260 A 
ATOM     16  N   LIG    1       -0.810   5.600   0.756  0.00  0.00    -0.290 NA
ATOM     17  N   LIG    1       -0.576   5.575  -0.625  0.00  0.00    -0.470 N 
ATOM     18  H   LIG    1       -0.348   6.338  -1.179  0.00  0.00    +0.440 HD
ENDBRANCH  11  14
ENDBRANCH   7  11
ENDBRANCH   1   9
BRANCH   4  19
ATOM     19  S   LIG    1        3.863  -3.588  -2.210  0.00  0.00    +2.700 S 
ATOM     20  O   LIG    1        3.943  -4.839  -1.541  0.00  0.00    -0.950 OA
ATOM     21  O   LIG    1        4.989  -2.942  -2.789  0.00  0.00    -0.950 OA
BRANCH  19  22
ATOM     22  C   LIG    1        2.685  -3.791  -3.505  0.00  0.00    -0.740 A 
ATOM     23  C   LIG    1        2.716  -2.965  -4.618  0.00  0.00    +0.170 A 
ATOM     24  C   LIG    1        1.770  -3.162  -5.613  0.00  0.00    -0.040 A 
ATOM     25  C   LIG    1        0.835  -4.167  -5.463  0.00  0.00    +0.320 A 
ATOM     26  N   LIG    1        0.835  -4.934  -4.390  0.00  0.00    -0.490 NA
ATOM     27  C   LIG    1        1.723  -4.780  -3.427  0.00  0.00    +0.370 A 
ENDBRANCH  19  22
ENDBRANCH   4  19
TORSDOF 5
