REMARK  Name = ZINCpe000000XYVU.0
REMARK                            x       y       z     vdW  Elec       q    Type
REMARK                         _______ _______ _______ _____ _____    ______ ____
ROOT
ATOM      1  C   LIG    1        2.409   6.476   3.015  0.00  0.00    +0.000 C 
ATOM      2  C   LIG    1        1.009   6.829   3.524  0.00  0.00    +0.020 C 
ATOM      3  C   LIG    1        1.110   7.350   4.961  0.00  0.00    +0.300 C 
ATOM      4  N   LIG    1        2.063   8.468   4.993  0.00  0.00    -1.000 NA
ATOM      5  C   LIG    1        3.410   8.263   4.444  0.00  0.00    +0.300 C 
ATOM      6  C   LIG    1        3.284   7.731   3.013  0.00  0.00    +0.040 C 
ENDROOT
BRANCH   1   9
ATOM      7  N   LIG    1        1.585   4.820   1.372  0.00  0.00    -0.730 N 
ATOM      8  H   LIG    1        1.126   4.372   2.101  0.00  0.00    +0.400 HD
ATOM      9  C   LIG    1        2.310   5.930   1.614  0.00  0.00    +0.520 C 
ATOM     10  O   LIG    1        2.884   6.490   0.703  0.00  0.00    -0.540 OA
BRANCH   7  11
ATOM     11  C   LIG    1        1.489   4.290   0.010  0.00  0.00    +0.350 C 
BRANCH  11  18
ATOM     12  C   LIG    1       -1.679   4.228   0.039  0.00  0.00    +0.160 C 
ATOM     13  C   LIG    1       -0.771   3.025   0.025  0.00  0.00    +0.090 A 
ATOM     14  N   LIG    1       -1.155   1.774   0.017  0.00  0.00    -0.290 NA
ATOM     15  N   LIG    1       -0.011   0.966   0.007  0.00  0.00    -0.470 N 
ATOM     16  H   LIG    1        0.002  -0.004   0.002  0.00  0.00    +0.440 HD
ATOM     17  C   LIG    1        1.069   1.774   0.001  0.00  0.00    +0.270 A 
ATOM     18  C   LIG    1        0.627   3.053   0.012  0.00  0.00    -0.260 A 
ENDBRANCH  11  18
ENDBRANCH   7  11
ENDBRANCH   1   9
BRANCH   4  19
ATOM     19  S   LIG    1        1.627   9.931   5.635  0.00  0.00    +2.700 S 
ATOM     20  O   LIG    1        2.833  10.574   6.024  0.00  0.00    -0.950 OA
ATOM     21  O   LIG    1        0.559   9.672   6.535  0.00  0.00    -0.950 OA
BRANCH  19  22
ATOM     22  C   LIG    1        0.950  10.894   4.324  0.00  0.00    -0.740 A 
ATOM     23  C   LIG    1       -0.408  10.847   4.046  0.00  0.00    +0.170 A 
ATOM     24  C   LIG    1       -0.897  11.622   3.006  0.00  0.00    -0.040 A 
ATOM     25  C   LIG    1       -0.021  12.411   2.285  0.00  0.00    +0.320 A 
ATOM     26  N   LIG    1        1.265  12.431   2.577  0.00  0.00    -0.490 NA
ATOM     27  C   LIG    1        1.764  11.712   3.563  0.00  0.00    +0.370 A 
ENDBRANCH  19  22
ENDBRANCH   4  19
TORSDOF 5
