REMARK  Name = ZINCrH000004tSiB.0
REMARK                            x       y       z     vdW  Elec       q    Type
REMARK                         _______ _______ _______ _____ _____    ______ ____
ROOT
ATOM      1  C   LIG    1       -2.596  -4.119  -0.338  0.00  0.00    +0.130 A 
ATOM      2  C   LIG    1       -1.406  -4.840  -0.270  0.00  0.00    +0.010 A 
ATOM      3  C   LIG    1       -1.424  -6.218  -0.300  0.00  0.00    +0.040 A 
ATOM      4  C   LIG    1       -2.632  -6.893  -0.399  0.00  0.00    +0.030 A 
ATOM      5  N   LIG    1       -2.984  -8.229  -0.453  0.00  0.00    -0.600 N 
ATOM      6  H   LIG    1       -2.376  -8.985  -0.427  0.00  0.00    +0.420 HD
ATOM      7  C   LIG    1       -4.339  -8.287  -0.549  0.00  0.00    +0.300 A 
ATOM      8  N   LIG    1       -4.839  -7.085  -0.558  0.00  0.00    -0.490 NA
ATOM      9  C   LIG    1       -3.837  -6.173  -0.468  0.00  0.00    +0.070 A 
ATOM     10  C   LIG    1       -3.808  -4.777  -0.431  0.00  0.00    +0.070 A 
ENDROOT
BRANCH   7  11
ATOM     11  C   LIG    1       -5.145  -9.557  -0.633  0.00  0.00    +0.100 C 
ATOM     12  C   LIG    1       -4.480 -10.640   0.220  0.00  0.00    +0.010 C 
ATOM     13  C   LIG    1       -5.299 -11.930   0.135  0.00  0.00    +0.020 C 
ATOM     14  C   LIG    1       -5.365 -12.397  -1.321  0.00  0.00    +0.010 C 
ATOM     15  C   LIG    1       -6.029 -11.314  -2.174  0.00  0.00    +0.020 C 
ATOM     16  C   LIG    1       -5.211 -10.024  -2.089  0.00  0.00    +0.020 C 
ENDBRANCH   7  11
BRANCH   1  19
ATOM     17  O   LIG    1       -4.264  -2.577  -1.726  0.00  0.00    -0.510 OA
ATOM     18  C   LIG    1       -3.476  -2.008  -1.000  0.00  0.00    +0.510 C 
ATOM     19  N   LIG    1       -2.565  -2.718  -0.307  0.00  0.00    -0.670 N 
ATOM     20  H   LIG    1       -1.887  -2.260   0.214  0.00  0.00    +0.410 HD
BRANCH  18  21
ATOM     21  C   LIG    1       -3.518  -0.507  -0.872  0.00  0.00    +0.070 C 
BRANCH  21  22
ATOM     22  C   LIG    1       -4.635   0.050  -1.756  0.00  0.00    +0.040 C 
ATOM     23  C   LIG    1       -4.312  -0.235  -3.220  0.00  0.00    +0.030 C 
ATOM     24  C   LIG    1       -5.514   0.080  -4.107  0.00  0.00    +0.070 C 
ATOM     25  C   LIG    1       -5.741   1.592  -4.163  0.00  0.00    -0.340 C 
ATOM     26  S   LIG    1       -6.160   2.189  -2.499  0.00  0.00    +2.420 S 
ATOM     27  O   LIG    1       -6.109   3.609  -2.500  0.00  0.00    -0.940 OA
ATOM     28  O   LIG    1       -7.343   1.534  -2.065  0.00  0.00    -0.930 OA
ATOM     29  C   LIG    1       -4.758   1.558  -1.531  0.00  0.00    -0.330 C 
ENDBRANCH  21  22
ENDBRANCH  18  21
ENDBRANCH   1  19
TORSDOF 4
