REMARK  Name = ZINCrH000004tSiB.1
REMARK                            x       y       z     vdW  Elec       q    Type
REMARK                         _______ _______ _______ _____ _____    ______ ____
ROOT
ATOM      1  C   LIG    1       -2.596  -4.118  -0.338  0.00  0.00    +0.160 A 
ATOM      2  C   LIG    1       -1.407  -4.840  -0.270  0.00  0.00    -0.020 A 
ATOM      3  C   LIG    1       -1.420  -6.205  -0.299  0.00  0.00    +0.100 A 
ATOM      4  C   LIG    1       -2.634  -6.890  -0.399  0.00  0.00    +0.040 A 
ATOM      5  N   LIG    1       -2.963  -8.207  -0.450  0.00  0.00    -0.490 NA
ATOM      6  C   LIG    1       -4.255  -8.332  -0.543  0.00  0.00    +0.290 A 
ATOM      7  N   LIG    1       -4.844  -7.104  -0.558  0.00  0.00    -0.590 N 
ATOM      8  H   LIG    1       -5.795  -6.924  -0.621  0.00  0.00    +0.420 HD
ATOM      9  C   LIG    1       -3.836  -6.165  -0.468  0.00  0.00    +0.070 A 
ATOM     10  C   LIG    1       -3.810  -4.778  -0.431  0.00  0.00    +0.030 A 
ENDROOT
BRANCH   6  11
ATOM     11  C   LIG    1       -4.992  -9.644  -0.623  0.00  0.00    +0.100 C 
ATOM     12  C   LIG    1       -6.210  -9.490  -1.535  0.00  0.00    +0.010 C 
ATOM     13  C   LIG    1       -6.958 -10.822  -1.616  0.00  0.00    +0.020 C 
ATOM     14  C   LIG    1       -7.418 -11.234  -0.217  0.00  0.00    +0.010 C 
ATOM     15  C   LIG    1       -6.200 -11.389   0.696  0.00  0.00    +0.020 C 
ATOM     16  C   LIG    1       -5.452 -10.056   0.777  0.00  0.00    +0.020 C 
ENDBRANCH   6  11
BRANCH   1  19
ATOM     17  O   LIG    1       -4.265  -2.577  -1.725  0.00  0.00    -0.510 OA
ATOM     18  C   LIG    1       -3.477  -2.008  -0.999  0.00  0.00    +0.510 C 
ATOM     19  N   LIG    1       -2.565  -2.718  -0.307  0.00  0.00    -0.670 N 
ATOM     20  H   LIG    1       -1.886  -2.260   0.213  0.00  0.00    +0.410 HD
BRANCH  18  21
ATOM     21  C   LIG    1       -3.518  -0.507  -0.872  0.00  0.00    +0.080 C 
BRANCH  21  22
ATOM     22  C   LIG    1       -4.637   0.050  -1.755  0.00  0.00    +0.040 C 
ATOM     23  C   LIG    1       -4.315  -0.235  -3.219  0.00  0.00    +0.030 C 
ATOM     24  C   LIG    1       -5.517   0.080  -4.105  0.00  0.00    +0.070 C 
ATOM     25  C   LIG    1       -5.744   1.592  -4.160  0.00  0.00    -0.340 C 
ATOM     26  S   LIG    1       -6.161   2.189  -2.496  0.00  0.00    +2.420 S 
ATOM     27  O   LIG    1       -6.111   3.609  -2.497  0.00  0.00    -0.940 OA
ATOM     28  O   LIG    1       -7.345   1.534  -2.061  0.00  0.00    -0.930 OA
ATOM     29  C   LIG    1       -4.759   1.558  -1.529  0.00  0.00    -0.330 C 
ENDBRANCH  21  22
ENDBRANCH  18  21
ENDBRANCH   1  19
TORSDOF 4
