REMARK  Name = ZINCrD000000D9TZ.0
REMARK                            x       y       z     vdW  Elec       q    Type
REMARK                         _______ _______ _______ _____ _____    ______ ____
ROOT
ATOM      1  N   LIG    1       -0.701   1.560   1.216  0.00  0.00    -0.490 N 
ATOM      2  C   LIG    1        0.014   1.122   0.010  0.00  0.00    +0.210 C 
ATOM      3  C   LIG    1       -0.726   1.627  -1.231  0.00  0.00    +0.200 C 
ATOM      4  N   LIG    1       -0.819   3.093  -1.180  0.00  0.00    -0.530 NA
ATOM      5  C   LIG    1       -1.535   3.531   0.026  0.00  0.00    +0.190 C 
ATOM      6  C   LIG    1       -0.794   3.026   1.267  0.00  0.00    +0.200 C 
ENDROOT
BRANCH   1  10
ATOM      7  C   LIG    1        1.110   0.059   4.654  0.00  0.00    -0.060 A 
ATOM      8  C   LIG    1        1.126   1.419   4.403  0.00  0.00    +0.140 A 
ATOM      9  C   LIG    1        0.526   1.920   3.264  0.00  0.00    +0.000 A 
ATOM     10  C   LIG    1       -0.094   1.056   2.370  0.00  0.00    +0.170 A 
ATOM     11  C   LIG    1       -0.113  -0.310   2.627  0.00  0.00    -0.060 A 
ATOM     12 CL   LIG    1       -0.892  -1.393   1.517  0.00  0.00    -0.020 Cl
ATOM     13  C   LIG    1        0.494  -0.804   3.766  0.00  0.00    +0.150 A 
BRANCH   7  15
ATOM     14  O   LIG    1        2.297   0.285   6.658  0.00  0.00    -0.160 OA
ATOM     15  N   LIG    1        1.754  -0.474   5.875  0.00  0.00    +0.030 N 
ATOM     16  O   LIG    1        1.742  -1.671   6.097  0.00  0.00    -0.160 OA
ENDBRANCH   7  15
ENDBRANCH   1  10
BRANCH   4  17
ATOM     17  C   LIG    1       -1.457   3.623  -2.393  0.00  0.00    +0.240 C 
BRANCH  17  18
ATOM     18  C   LIG    1       -1.758   5.087  -2.203  0.00  0.00    -0.090 A 
ATOM     19  C   LIG    1       -0.819   6.036  -2.562  0.00  0.00    +0.050 A 
ATOM     20  C   LIG    1       -1.090   7.380  -2.389  0.00  0.00    +0.030 A 
ATOM     21  C   LIG    1       -2.305   7.780  -1.855  0.00  0.00    +0.050 A 
ATOM     22  O   LIG    1       -2.555   9.107  -1.683  0.00  0.00    -0.310 OA
ATOM     23  C   LIG    1       -3.923   9.485  -1.493  0.00  0.00    +0.220 C 
ATOM     24  C   LIG    1       -4.546   8.532  -0.464  0.00  0.00    +0.220 C 
ATOM     25  O   LIG    1       -4.452   7.198  -0.975  0.00  0.00    -0.310 OA
ATOM     26  C   LIG    1       -3.251   6.826  -1.496  0.00  0.00    +0.050 A 
ATOM     27  C   LIG    1       -2.974   5.480  -1.677  0.00  0.00    +0.020 A 
ENDBRANCH  17  18
ENDBRANCH   4  17
TORSDOF 4
