REMARK  Name = ZINCrD000000fJyc.0
REMARK                            x       y       z     vdW  Elec       q    Type
REMARK                         _______ _______ _______ _____ _____    ______ ____
ROOT
ATOM      1  N   LIG    1       -0.815   1.406   1.214  0.00  0.00    -0.730 N 
ATOM      2  H   LIG    1       -1.668   1.859   1.128  0.00  0.00    +0.400 HD
ATOM      3  C   LIG    1       -0.359   1.054   2.433  0.00  0.00    +0.520 C 
ATOM      4  O   LIG    1        0.708   0.487   2.541  0.00  0.00    -0.520 OA
ENDROOT
BRANCH   1   5
ATOM      5  C   LIG    1       -0.021   1.104   0.021  0.00  0.00    +0.330 C 
BRANCH   5   9
ATOM      6  C   LIG    1       -2.081   2.506  -3.452  0.00  0.00    +0.150 A 
ATOM      7  C   LIG    1       -1.192   3.339  -2.787  0.00  0.00    +0.020 A 
ATOM      8  C   LIG    1       -0.528   2.883  -1.665  0.00  0.00    +0.050 A 
ATOM      9  C   LIG    1       -0.748   1.598  -1.204  0.00  0.00    -0.130 A 
ATOM     10  C   LIG    1       -1.629   0.764  -1.867  0.00  0.00    +0.050 A 
ATOM     11  C   LIG    1       -2.300   1.216  -2.986  0.00  0.00    -0.020 A 
BRANCH   6  14
ATOM     12  C   LIG    1       -2.918   4.418  -6.584  0.00  0.00    +0.110 C 
ATOM     13  C   LIG    1       -2.153   3.833  -5.425  0.00  0.00    +0.510 C 
ATOM     14  N   LIG    1       -2.755   2.964  -4.589  0.00  0.00    -0.680 N 
ATOM     15  H   LIG    1       -3.656   2.657  -4.776  0.00  0.00    +0.410 HD
ATOM     16  O   LIG    1       -0.994   4.143  -5.245  0.00  0.00    -0.520 OA
ENDBRANCH   6  14
ENDBRANCH   5   9
ENDBRANCH   1   5
BRANCH   3  17
ATOM     17  C   LIG    1       -1.175   1.364   3.661  0.00  0.00    +0.150 C 
BRANCH  17  18
ATOM     18  C   LIG    1       -0.449   0.870   4.886  0.00  0.00    +0.110 A 
ATOM     19  C   LIG    1       -0.156   1.662   5.920  0.00  0.00    -0.100 A 
ATOM     20  S   LIG    1        0.687   0.694   7.127  0.00  0.00    +0.180 S 
ATOM     21  C   LIG    1        0.564  -0.684   6.122  0.00  0.00    +0.260 A 
ATOM     22  N   LIG    1       -0.055  -0.381   5.024  0.00  0.00    -0.460 NA
BRANCH  21  23
ATOM     23  N   LIG    1        1.054  -1.950   6.439  0.00  0.00    -0.370 N 
ATOM     24  C   LIG    1        0.959  -3.062   5.650  0.00  0.00    +0.050 A 
ATOM     25  C   LIG    1        1.550  -4.087   6.296  0.00  0.00    -0.040 A 
ATOM     26  C   LIG    1        2.020  -3.596   7.531  0.00  0.00    -0.010 A 
ATOM     27  C   LIG    1        0.308  -3.130   4.293  0.00  0.00    +0.130 C 
ATOM     28  C   LIG    1        1.704  -2.287   7.593  0.00  0.00    -0.000 A 
ATOM     29  C   LIG    1        2.015  -1.355   8.736  0.00  0.00    +0.140 C 
ENDBRANCH  21  23
ENDBRANCH  17  18
ENDBRANCH   3  17
TORSDOF 6
