REMARK  Name = ZINCvU00000004mU.0
REMARK                            x       y       z     vdW  Elec       q    Type
REMARK                         _______ _______ _______ _____ _____    ______ ____
ROOT
ATOM      1  O   LIG    1        1.525   4.033  -6.236  0.00  0.00    -0.500 OA
ATOM      2  C   LIG    1        2.463   3.280  -6.393  0.00  0.00    +0.500 C 
ATOM      3  N   LIG    1        2.724   2.328  -5.475  0.00  0.00    -0.670 N 
ATOM      4  H   LIG    1        3.519   1.780  -5.558  0.00  0.00    +0.410 HD
ENDROOT
BRANCH   3   5
ATOM      5  C   LIG    1        1.845   2.131  -4.401  0.00  0.00    +0.130 A 
ATOM      6  C   LIG    1        0.479   2.307  -4.580  0.00  0.00    +0.030 A 
ATOM      7  C   LIG    1       -0.386   2.113  -3.522  0.00  0.00    -0.020 A 
ATOM      8  C   LIG    1        0.109   1.742  -2.279  0.00  0.00    +0.100 A 
ATOM      9  C   LIG    1        1.476   1.572  -2.098  0.00  0.00    +0.030 A 
ATOM     10  C   LIG    1        2.341   1.760  -3.158  0.00  0.00    +0.010 A 
BRANCH   8  11
ATOM     11  N   LIG    1       -0.767   1.546  -1.206  0.00  0.00    -0.510 N 
ATOM     12  C   LIG    1       -2.113   1.173  -1.685  0.00  0.00    +0.190 C 
ATOM     13  C   LIG    1       -2.759   0.302  -0.636  0.00  0.00    +0.030 C 
ATOM     14  C   LIG    1       -3.647   1.124   0.314  0.00  0.00    +0.000 C 
ATOM     15  C   LIG    1       -2.998   2.471   0.691  0.00  0.00    +0.000 C 
ATOM     16  C   LIG    1       -1.522   2.345   0.969  0.00  0.00    +0.030 C 
ATOM     17  C   LIG    1       -0.739   2.634  -0.330  0.00  0.00    +0.180 C 
ENDBRANCH   8  11
ENDBRANCH   3   5
BRANCH   2  18
ATOM     18  C   LIG    1        3.336   3.408  -7.614  0.00  0.00    +0.360 C 
BRANCH  18  19
ATOM     19  N   LIG    1        2.849   4.508  -8.450  0.00  0.00    -0.460 N 
ATOM     20  C   LIG    1        3.236   5.833  -8.371  0.00  0.00    +0.060 A 
ATOM     21  C   LIG    1        4.126   6.528  -7.565  0.00  0.00    +0.010 A 
ATOM     22  C   LIG    1        4.295   7.886  -7.740  0.00  0.00    +0.030 A 
ATOM     23  C   LIG    1        3.580   8.563  -8.716  0.00  0.00    +0.000 A 
ATOM     24  C   LIG    1        2.691   7.891  -9.525  0.00  0.00    +0.070 A 
ATOM     25  C   LIG    1        2.509   6.515  -9.363  0.00  0.00    +0.050 A 
ATOM     26  N   LIG    1        1.728   5.599  -9.988  0.00  0.00    -0.470 NA
ATOM     27  C   LIG    1        1.928   4.415  -9.460  0.00  0.00    +0.360 A 
BRANCH  27  28
ATOM     28  C   LIG    1        1.258   3.171  -9.886  0.00  0.00    +0.110 A 
ATOM     29  C   LIG    1        0.353   3.127 -10.890  0.00  0.00    -0.010 A 
ATOM     30  S   LIG    1       -0.186   1.459 -11.060  0.00  0.00    +0.170 S 
ATOM     31  C   LIG    1        0.842   0.982  -9.781  0.00  0.00    +0.230 A 
ATOM     32  N   LIG    1        1.493   1.992  -9.322  0.00  0.00    -0.470 NA
ENDBRANCH  27  28
ENDBRANCH  18  19
ENDBRANCH   2  18
TORSDOF 5
