REMARK  Name = ZINCqH0000051t2P.0
REMARK                            x       y       z     vdW  Elec       q    Type
REMARK                         _______ _______ _______ _____ _____    ______ ____
ROOT
ATOM      1  O   LIG    1        0.757  -0.597  -1.115  0.00  0.00    -0.510 OA
ATOM      2  C   LIG    1       -0.156  -0.004  -0.574  0.00  0.00    +0.560 C 
ATOM      3  N   LIG    1       -1.156  -0.694   0.009  0.00  0.00    -0.660 N 
ATOM      4  H   LIG    1       -1.850  -0.223   0.497  0.00  0.00    +0.410 HD
ENDROOT
BRANCH   3   5
ATOM      5  C   LIG    1       -1.192  -2.085  -0.088  0.00  0.00    +0.140 A 
ATOM      6  C   LIG    1       -0.024  -2.823  -0.098  0.00  0.00    +0.030 A 
ATOM      7  C   LIG    1       -0.028  -4.215  -0.195  0.00  0.00    +0.040 A 
ATOM      8  C   LIG    1       -1.203  -4.898  -0.282  0.00  0.00    -0.090 A 
ATOM      9  C   LIG    1       -1.569  -6.359  -0.395  0.00  0.00    +0.100 C 
ATOM     10  C   LIG    1       -3.112  -6.389  -0.450  0.00  0.00    +0.100 C 
ATOM     11  C   LIG    1       -3.542  -4.945  -0.365  0.00  0.00    -0.070 A 
ATOM     12  C   LIG    1       -4.744  -4.304  -0.362  0.00  0.00    +0.020 A 
ATOM     13  C   LIG    1       -4.801  -2.912  -0.268  0.00  0.00    +0.020 A 
ATOM     14  C   LIG    1       -3.677  -2.141  -0.177  0.00  0.00    +0.000 A 
ATOM     15  C   LIG    1       -2.389  -4.171  -0.273  0.00  0.00    -0.070 A 
ATOM     16  C   LIG    1       -2.423  -2.769  -0.172  0.00  0.00    -0.050 A 
ENDBRANCH   3   5
BRANCH   2  17
ATOM     17  C   LIG    1       -0.169   1.473  -0.556  0.00  0.00    -0.140 A 
ATOM     18  C   LIG    1       -1.221   2.156   0.060  0.00  0.00    +0.080 A 
ATOM     19  C   LIG    1       -1.228   3.533   0.079  0.00  0.00    +0.000 A 
ATOM     20  C   LIG    1       -0.195   4.243  -0.523  0.00  0.00    +0.180 A 
ATOM     21  C   LIG    1        0.850   3.567  -1.142  0.00  0.00    +0.030 A 
ATOM     22  C   LIG    1        0.866   2.190  -1.160  0.00  0.00    +0.120 A 
BRANCH  20  23
ATOM     23  N   LIG    1       -0.208   5.642  -0.507  0.00  0.00    -0.340 N 
ATOM     24  C   LIG    1       -1.149   6.435   0.044  0.00  0.00    +0.500 A 
ATOM     25  N   LIG    1       -0.794   7.679  -0.152  0.00  0.00    -0.530 NA
ATOM     26  C   LIG    1        0.354   7.721  -0.827  0.00  0.00    +0.440 A 
ATOM     27  N   LIG    1        0.752   6.500  -1.067  0.00  0.00    -0.310 NA
ENDBRANCH  20  23
ENDBRANCH   2  17
TORSDOF 3
