REMARK  Name = ZINCrH00000No4sR.0
REMARK                            x       y       z     vdW  Elec       q    Type
REMARK                         _______ _______ _______ _____ _____    ______ ____
ROOT
ATOM      1  C   LIG    1        1.147   1.655   0.000  0.00  0.00    +0.580 C 
ATOM      2  N   LIG    1       -0.011   0.966   0.007  0.00  0.00    -0.580 N 
ATOM      3  H   LIG    1        0.002  -0.004   0.002  0.00  0.00    +0.380 HD
ATOM      4  O   LIG    1        1.130   2.872   0.007  0.00  0.00    -0.510 OA
ENDROOT
BRANCH   1   8
ATOM      5  C   LIG    1        4.852  -0.417  -0.047  0.00  0.00    +0.250 A 
ATOM      6  C   LIG    1        4.835   0.975  -0.039  0.00  0.00    -0.080 A 
ATOM      7  C   LIG    1        3.636   1.650  -0.024  0.00  0.00    +0.140 A 
ATOM      8  C   LIG    1        2.434   0.936  -0.016  0.00  0.00    -0.200 A 
ATOM      9  C   LIG    1        2.455  -0.462  -0.018  0.00  0.00    +0.090 A 
ATOM     10  C   LIG    1        3.657  -1.131  -0.039  0.00  0.00    -0.080 A 
BRANCH   5  11
ATOM     11  N   LIG    1        6.066  -1.096  -0.062  0.00  0.00    -0.620 N 
BRANCH  11  13
ATOM     12  C   LIG    1        6.079  -3.063  -1.515  0.00  0.00    +0.020 C 
ATOM     13  C   LIG    1        6.086  -2.561  -0.070  0.00  0.00    +0.270 C 
ENDBRANCH  11  13
BRANCH  11  14
ATOM     14  C   LIG    1        7.324  -0.346  -0.070  0.00  0.00    +0.270 C 
ATOM     15  C   LIG    1        7.776  -0.093   1.370  0.00  0.00    +0.020 C 
ENDBRANCH  11  14
ENDBRANCH   5  11
ENDBRANCH   1   8
BRANCH   2  16
ATOM     16  N   LIG    1       -1.234   1.650   0.017  0.00  0.00    -0.230 NA
ATOM     17  C   LIG    1       -2.349   0.986   0.018  0.00  0.00    +0.140 C 
ATOM     18  C   LIG    1       -2.329  -0.521   0.010  0.00  0.00    +0.090 C 
BRANCH  17  19
ATOM     19  C   LIG    1       -3.635   1.705   0.029  0.00  0.00    -0.050 A 
ATOM     20  C   LIG    1       -4.837   0.992   0.030  0.00  0.00    +0.050 A 
ATOM     21  C   LIG    1       -6.039   1.667   0.040  0.00  0.00    -0.040 A 
ATOM     22  C   LIG    1       -6.060   3.054   0.047  0.00  0.00    +0.120 A 
ATOM     23  C   LIG    1       -4.865   3.772   0.045  0.00  0.00    +0.100 A 
ATOM     24  C   LIG    1       -3.656   3.103   0.042  0.00  0.00    +0.020 A 
BRANCH  23  25
ATOM     25  O   LIG    1       -4.889   5.132   0.053  0.00  0.00    -0.310 OA
ATOM     26  C   LIG    1       -3.628   5.803   0.051  0.00  0.00    +0.240 C 
ENDBRANCH  23  25
BRANCH  22  27
ATOM     27  O   LIG    1       -7.248   3.715   0.056  0.00  0.00    -0.300 OA
ATOM     28  C   LIG    1       -8.434   2.917   0.057  0.00  0.00    +0.240 C 
ENDBRANCH  22  27
ENDBRANCH  17  19
ENDBRANCH   2  16
TORSDOF 8
