REMARK  Name = ZINCvU0000000HBq.1
REMARK                            x       y       z     vdW  Elec       q    Type
REMARK                         _______ _______ _______ _____ _____    ______ ____
ROOT
ATOM      1  N   LIG    1       -0.168  -5.557   0.922  0.00  0.00    -0.530 NA
ATOM      2  C   LIG    1        0.891  -5.638  -0.093  0.00  0.00    +0.200 C 
ATOM      3  C   LIG    1        1.623  -4.296  -0.171  0.00  0.00    +0.220 C 
ATOM      4  N   LIG    1        0.662  -3.234  -0.500  0.00  0.00    -0.460 N 
ATOM      5  C   LIG    1       -0.397  -3.153   0.516  0.00  0.00    +0.210 C 
ATOM      6  C   LIG    1       -1.129  -4.495   0.593  0.00  0.00    +0.200 C 
ENDROOT
BRANCH   4   7
ATOM      7  C   LIG    1        1.307  -2.003  -0.650  0.00  0.00    +0.380 C 
ATOM      8  N   LIG    1        2.585  -1.824  -0.611  0.00  0.00    -0.510 NA
ATOM      9  C   LIG    1        2.886  -0.519  -0.790  0.00  0.00    +0.070 A 
ATOM     10  C   LIG    1        3.949   0.251  -0.850  0.00  0.00    +0.100 A 
ATOM     11  C   LIG    1        3.842   1.701  -1.071  0.00  0.00    +0.010 A 
ATOM     12  C   LIG    1        2.702   2.351  -1.227  0.00  0.00    +0.060 A 
ATOM     13  C   LIG    1        1.450   1.577  -1.176  0.00  0.00    -0.050 A 
ATOM     14  C   LIG    1        0.234   2.048  -1.310  0.00  0.00    +0.080 A 
ATOM     15  C   LIG    1       -0.902   1.102  -1.228  0.00  0.00    +0.000 A 
ATOM     16  C   LIG    1       -0.731  -0.194  -1.026  0.00  0.00    +0.080 A 
ATOM     17  C   LIG    1        1.595   0.145  -0.956  0.00  0.00    -0.120 A 
ATOM     18  C   LIG    1        0.634  -0.720  -0.876  0.00  0.00    -0.120 A 
ENDBRANCH   4   7
BRANCH   1  19
ATOM     19  C   LIG    1       -0.846  -6.850   1.080  0.00  0.00    +0.230 C 
BRANCH  19  23
ATOM     20  C   LIG    1        1.949  -9.759   2.486  0.00  0.00    +0.000 A 
ATOM     21  C   LIG    1        1.066 -10.082   1.473  0.00  0.00    +0.000 A 
ATOM     22  C   LIG    1        0.161  -9.141   1.018  0.00  0.00    +0.010 A 
ATOM     23  C   LIG    1        0.140  -7.877   1.576  0.00  0.00    -0.080 A 
ATOM     24  C   LIG    1        1.027  -7.552   2.586  0.00  0.00    +0.040 A 
ATOM     25  C   LIG    1        1.928  -8.495   3.044  0.00  0.00    +0.000 A 
ENDBRANCH  19  23
BRANCH  19  26
ATOM     26  C   LIG    1       -1.969  -6.711   2.075  0.00  0.00    -0.080 A 
ATOM     27  C   LIG    1       -1.759  -6.039   3.265  0.00  0.00    +0.040 A 
ATOM     28  C   LIG    1       -2.790  -5.907   4.176  0.00  0.00    +0.000 A 
ATOM     29  C   LIG    1       -4.029  -6.455   3.901  0.00  0.00    +0.000 A 
ATOM     30  C   LIG    1       -4.238  -7.132   2.713  0.00  0.00    +0.000 A 
ATOM     31  C   LIG    1       -3.207  -7.260   1.801  0.00  0.00    +0.010 A 
ENDBRANCH  19  26
ENDBRANCH   1  19
TORSDOF 4
