REMARK  Name = ZINCqH00000050oC.0
REMARK                            x       y       z     vdW  Elec       q    Type
REMARK                         _______ _______ _______ _____ _____    ______ ____
ROOT
ATOM      1  C   LIG    1       -3.578   4.113  -2.985  0.00  0.00    +0.520 C 
ATOM      2  N   LIG    1       -4.852   3.798  -3.293  0.00  0.00    -0.620 N 
ATOM      3  H   LIG    1       -5.374   3.245  -2.691  0.00  0.00    +0.430 HD
ATOM      4  O   LIG    1       -2.925   4.805  -3.738  0.00  0.00    -0.490 OA
ENDROOT
BRANCH   1  11
ATOM      5  C   LIG    1        0.982  -0.857   0.206  0.00  0.00    +0.310 C 
ATOM      6  N   LIG    1       -0.149   0.069   0.314  0.00  0.00    -0.640 N 
ATOM      7  C   LIG    1        0.019   1.374   0.022  0.00  0.00    +0.710 C 
ATOM      8  N   LIG    1       -1.054   2.157  -0.206  0.00  0.00    -0.630 N 
ATOM      9  C   LIG    1       -2.386   1.565  -0.392  0.00  0.00    +0.270 C 
ATOM     10  C   LIG    1       -2.979   2.076  -1.703  0.00  0.00    +0.030 C 
ATOM     11  C   LIG    1       -2.965   3.607  -1.705  0.00  0.00    +0.010 C 
ATOM     12  C   LIG    1       -1.522   4.105  -1.599  0.00  0.00    +0.050 C 
ATOM     13  C   LIG    1       -0.913   3.617  -0.280  0.00  0.00    +0.300 C 
ATOM     14  O   LIG    1        1.139   1.844  -0.040  0.00  0.00    -0.580 OA
ATOM     15  C   LIG    1       -1.461  -0.424   0.738  0.00  0.00    +0.280 C 
ENDBRANCH   1  11
BRANCH   2  16
ATOM     16  C   LIG    1       -5.417   4.265  -4.473  0.00  0.00    +0.270 A 
ATOM     17  N   LIG    1       -6.626   4.021  -4.873  0.00  0.00    -0.500 NA
ATOM     18  C   LIG    1       -6.998   4.555  -6.028  0.00  0.00    +0.120 A 
ATOM     19  C   LIG    1       -6.057   5.284  -6.655  0.00  0.00    -0.110 A 
ATOM     20  S   LIG    1       -4.600   5.274  -5.664  0.00  0.00    +0.210 S 
BRANCH  18  21
ATOM     21  C   LIG    1       -8.354   4.356  -6.594  0.00  0.00    -0.020 A 
ATOM     22  C   LIG    1       -8.696   4.939  -7.813  0.00  0.00    +0.050 A 
ATOM     23  C   LIG    1       -9.958   4.748  -8.337  0.00  0.00    +0.030 A 
ATOM     24  C   LIG    1      -10.888   3.986  -7.649  0.00  0.00    -0.030 A 
ATOM     25  C   LIG    1      -10.555   3.410  -6.435  0.00  0.00    +0.030 A 
ATOM     26 CL   LIG    1      -12.476   3.755  -8.310  0.00  0.00    -0.070 Cl
ATOM     27  C   LIG    1       -9.294   3.591  -5.905  0.00  0.00    +0.060 A 
ENDBRANCH  18  21
ENDBRANCH   2  16
TORSDOF 3
