REMARK  Name = ZINCrg00000IY7Yn.0
REMARK                            x       y       z     vdW  Elec       q    Type
REMARK                         _______ _______ _______ _____ _____    ______ ____
ROOT
ATOM      1  N   LIG    1        1.337   3.484   1.479  0.00  0.00    -1.010 NA
ATOM      2  C   LIG    1        1.511   2.262   2.285  0.00  0.00    +0.300 C 
ATOM      3  C   LIG    1        2.065   1.204   1.292  0.00  0.00    +0.060 C 
ATOM      4  C   LIG    1        1.286   1.562  -0.002  0.00  0.00    +0.220 C 
ATOM      5  C   LIG    1        1.178   3.100   0.069  0.00  0.00    +0.320 C 
ENDROOT
BRANCH   4   6
ATOM      6  C   LIG    1        2.059   1.137  -1.224  0.00  0.00    +0.160 A 
ATOM      7  N   LIG    1        2.298  -0.093  -1.608  0.00  0.00    -0.460 NA
ATOM      8  C   LIG    1        3.014   0.014  -2.742  0.00  0.00    +0.210 A 
ATOM      9  N   LIG    1        3.177   1.281  -2.981  0.00  0.00    -0.370 NA
ATOM     10  O   LIG    1        2.636   1.943  -2.121  0.00  0.00    +0.090 OA
BRANCH   8  11
ATOM     11  C   LIG    1        3.536  -1.126  -3.578  0.00  0.00    +0.060 C 
ATOM     12  C   LIG    1        4.502  -0.784  -4.715  0.00  0.00    +0.050 C 
ATOM     13  C   LIG    1        3.066  -1.208  -5.032  0.00  0.00    +0.060 C 
ENDBRANCH   8  11
ENDBRANCH   4   6
BRANCH   1  14
ATOM     14  S   LIG    1        1.320   5.033   2.065  0.00  0.00    +2.740 S 
ATOM     15  O   LIG    1        1.681   5.876   0.980  0.00  0.00    -0.950 OA
ATOM     16  O   LIG    1        2.030   5.003   3.296  0.00  0.00    -0.940 OA
BRANCH  14  22
ATOM     17  C   LIG    1       -0.974   5.210   3.697  0.00  0.00    +0.170 A 
ATOM     18  N   LIG    1       -2.212   5.626   3.608  0.00  0.00    -0.290 NA
ATOM     19  N   LIG    1       -2.415   6.116   2.312  0.00  0.00    -0.360 N 
ATOM     20  C   LIG    1       -1.257   5.985   1.631  0.00  0.00    +0.220 A 
ATOM     21  C   LIG    1       -3.663   6.678   1.789  0.00  0.00    +0.360 C 
ATOM     22  C   LIG    1       -0.351   5.422   2.463  0.00  0.00    -0.820 A 
BRANCH  17  24
ATOM     23  C   LIG    1        0.296   5.716   5.766  0.00  0.00    +0.050 C 
ATOM     24  C   LIG    1       -0.331   4.607   4.920  0.00  0.00    +0.110 C 
ENDBRANCH  17  24
BRANCH  20  25
ATOM     25  C   LIG    1       -1.018   6.390   0.199  0.00  0.00    +0.110 C 
ATOM     26  C   LIG    1       -0.525   7.838   0.154  0.00  0.00    +0.050 C 
ENDBRANCH  20  25
ENDBRANCH  14  22
ENDBRANCH   1  14
BRANCH   4  27
ATOM     27  O   LIG    1       -0.011   0.963   0.007  0.00  0.00    -0.520 OA
ATOM     28  H   LIG    1        0.002  -0.004   0.002  0.00  0.00    +0.390 HD
ENDBRANCH   4  27
TORSDOF 7
