REMARK  Name = ZINCrg000000tO7d.0
REMARK                            x       y       z     vdW  Elec       q    Type
REMARK                         _______ _______ _______ _____ _____    ______ ____
ROOT
ATOM      1  N   LIG    1        5.718   0.174  -1.592  0.00  0.00    -1.100 NA
ATOM      2  H   LIG    1        6.287   0.893  -1.909  0.00  0.00    +0.420 HD
ENDROOT
BRANCH   1   8
ATOM      3  O   LIG    1        8.128  -0.821   2.880  0.00  0.00    -0.530 OA
ATOM      4  C   LIG    1        8.565  -1.467   1.947  0.00  0.00    +0.580 C 
ATOM      5  N   LIG    1        7.927  -1.453   0.760  0.00  0.00    -0.610 N 
ATOM      6  C   LIG    1        8.407  -2.088  -0.481  0.00  0.00    +0.260 C 
ATOM      7  C   LIG    1        7.712  -1.305  -1.622  0.00  0.00    +0.060 C 
ATOM      8  C   LIG    1        6.316  -1.028  -1.004  0.00  0.00    +0.250 C 
ATOM      9  C   LIG    1        6.636  -0.803   0.488  0.00  0.00    +0.240 C 
BRANCH   4  10
ATOM     10  C   LIG    1        9.796  -2.267   2.115  0.00  0.00    -0.130 A 
ATOM     11  C   LIG    1       10.031  -3.373   1.296  0.00  0.00    +0.040 A 
ATOM     12  C   LIG    1       11.184  -4.113   1.456  0.00  0.00    +0.000 A 
ATOM     13  C   LIG    1       12.103  -3.767   2.431  0.00  0.00    +0.040 A 
ATOM     14  C   LIG    1       11.874  -2.675   3.249  0.00  0.00    +0.000 A 
ATOM     15  C   LIG    1       10.727  -1.923   3.097  0.00  0.00    +0.070 A 
ENDBRANCH   4  10
ENDBRANCH   1   8
BRANCH   1  16
ATOM     16  S   LIG    1        4.072   0.304  -1.717  0.00  0.00    +2.610 S 
ATOM     17  O   LIG    1        3.866   1.562  -2.345  0.00  0.00    -0.940 OA
ATOM     18  O   LIG    1        3.672  -0.905  -2.349  0.00  0.00    -0.930 OA
BRANCH  16  19
ATOM     19  C   LIG    1        3.490   0.347   0.001  0.00  0.00    -0.240 C 
BRANCH  19  20
ATOM     20  C   LIG    1        1.988   0.465   0.019  0.00  0.00    +0.030 A 
ATOM     21  N   LIG    1        1.121  -0.514   0.027  0.00  0.00    -0.340 NA
ATOM     22  O   LIG    1       -0.023  -0.102   0.043  0.00  0.00    +0.130 OA
ATOM     23  C   LIG    1       -0.056   1.225   0.048  0.00  0.00    -0.010 A 
ATOM     24  C   LIG    1       -1.217   2.184   0.074  0.00  0.00    +0.150 C 
ATOM     25  C   LIG    1       -0.673   3.565   0.469  0.00  0.00    +0.240 C 
ATOM     26  O   LIG    1        0.489   3.871  -0.306  0.00  0.00    -0.370 OA
ATOM     27  C   LIG    1        1.646   3.087   0.025  0.00  0.00    +0.330 C 
ATOM     28  C   LIG    1        1.236   1.643   0.031  0.00  0.00    -0.240 A 
ENDBRANCH  19  20
ENDBRANCH  16  19
ENDBRANCH   1  16
TORSDOF 5
