REMARK  Name = ZINCrH000004uXgT.0
REMARK                            x       y       z     vdW  Elec       q    Type
REMARK                         _______ _______ _______ _____ _____    ______ ____
ROOT
ATOM      1  O   LIG    1        4.006   2.798   0.040  0.00  0.00    -0.510 OA
ATOM      2  C   LIG    1        4.476   2.317   1.053  0.00  0.00    +0.560 C 
ATOM      3  N   LIG    1        5.725   2.646   1.439  0.00  0.00    -0.720 N 
ATOM      4  H   LIG    1        6.100   2.263   2.248  0.00  0.00    +0.400 HD
ENDROOT
BRANCH   3   5
ATOM      5  C   LIG    1        6.516   3.583   0.638  0.00  0.00    +0.290 C 
ATOM      6  C   LIG    1        7.537   4.277   1.537  0.00  0.00    +0.020 C 
ATOM      7  C   LIG    1        8.492   5.086   0.651  0.00  0.00    +0.030 C 
ATOM      8  C   LIG    1        9.366   4.108  -0.133  0.00  0.00    +0.080 C 
ATOM      9  C   LIG    1        8.515   3.076  -0.826  0.00  0.00    -0.070 A 
ATOM     10  C   LIG    1        9.092   2.352  -1.861  0.00  0.00    -0.010 A 
ATOM     11  C   LIG    1        8.370   1.383  -2.527  0.00  0.00    +0.010 A 
ATOM     12  C   LIG    1        7.060   1.133  -2.163  0.00  0.00    -0.010 A 
ATOM     13  C   LIG    1        6.483   1.855  -1.138  0.00  0.00    +0.030 A 
ATOM     14  C   LIG    1        7.209   2.830  -0.467  0.00  0.00    -0.100 A 
ENDBRANCH   3   5
BRANCH   2  15
ATOM     15  C   LIG    1        3.680   1.374   1.859  0.00  0.00    -0.130 A 
ATOM     16  C   LIG    1        4.214   0.823   3.027  0.00  0.00    +0.070 A 
ATOM     17  C   LIG    1        3.467  -0.063   3.772  0.00  0.00    +0.000 A 
ATOM     18  C   LIG    1        2.185  -0.407   3.374  0.00  0.00    +0.060 A 
ATOM     19  C   LIG    1        1.641   0.133   2.227  0.00  0.00    -0.020 A 
ATOM     20  C   LIG    1        2.379   1.028   1.461  0.00  0.00    -0.050 A 
BRANCH  20  21
ATOM     21  S   LIG    1        1.687   1.719  -0.005  0.00  0.00    +0.040 S 
BRANCH  21  22
ATOM     22  C   LIG    1       -0.021   1.109   0.023  0.00  0.00    -0.020 C 
ATOM     23  C   LIG    1       -0.708   1.432  -1.316  0.00  0.00    +0.110 C 
ATOM     24  C   LIG    1       -2.225   1.196  -1.104  0.00  0.00    -0.300 C 
ATOM     25  S   LIG    1       -2.518   1.936   0.547  0.00  0.00    +2.390 S 
ATOM     26  O   LIG    1       -3.357   1.076   1.306  0.00  0.00    -0.940 OA
ATOM     27  O   LIG    1       -2.861   3.306   0.395  0.00  0.00    -0.930 OA
ATOM     28  C   LIG    1       -0.801   1.805   1.156  0.00  0.00    -0.310 C 
ENDBRANCH  21  22
ENDBRANCH  20  21
ENDBRANCH   2  15
TORSDOF 4
