REMARK  Name = ZINCpe00000MJJql.0
REMARK                            x       y       z     vdW  Elec       q    Type
REMARK                         _______ _______ _______ _____ _____    ______ ____
ROOT
ATOM      1  C   LIG    1       -1.685   3.532  -0.077  0.00  0.00    +0.240 C 
ATOM      2  C   LIG    1       -0.895   3.139   1.173  0.00  0.00    +0.010 C 
ATOM      3  C   LIG    1       -0.798   1.613   1.263  0.00  0.00    +0.020 C 
ATOM      4  C   LIG    1       -0.058   1.080   0.032  0.00  0.00    +0.290 C 
ATOM      5  N   LIG    1       -0.729   1.575  -1.178  0.00  0.00    -0.570 N 
ATOM      6  C   LIG    1       -0.952   3.020  -1.321  0.00  0.00    +0.290 C 
ENDROOT
BRANCH   5   7
ATOM      7  C   LIG    1       -1.144   0.694  -2.167  0.00  0.00    +0.350 A 
ATOM      8  N   LIG    1       -1.869   1.121  -3.179  0.00  0.00    -0.510 NA
ATOM      9  C   LIG    1       -2.271   0.280  -4.132  0.00  0.00    +0.190 A 
ATOM     10  C   LIG    1       -1.954  -1.032  -4.101  0.00  0.00    +0.150 A 
ATOM     11  N   LIG    1       -1.205  -1.547  -3.085  0.00  0.00    -0.480 N 
ATOM     12  C   LIG    1       -0.867  -2.973  -3.061  0.00  0.00    +0.320 C 
ATOM     13  C   LIG    1       -0.774  -0.725  -2.103  0.00  0.00    +0.480 A 
ATOM     14  O   LIG    1       -0.099  -1.153  -1.182  0.00  0.00    -0.520 OA
ENDBRANCH   5   7
BRANCH   1  16
ATOM     15  C   LIG    1       -2.792   5.619   0.519  0.00  0.00    +0.680 C 
ATOM     16  N   LIG    1       -1.801   4.991  -0.143  0.00  0.00    -0.710 N 
ATOM     17  H   LIG    1       -1.164   5.505  -0.664  0.00  0.00    +0.400 HD
ATOM     18  O   LIG    1       -3.592   4.973   1.173  0.00  0.00    -0.650 OA
BRANCH  15  25
ATOM     19  C   LIG    1       -5.794  10.541   2.209  0.00  0.00    +0.180 C 
ATOM     20  C   LIG    1       -5.198   9.190   1.913  0.00  0.00    +0.180 A 
ATOM     21  C   LIG    1       -4.114   8.962   1.142  0.00  0.00    -0.100 A 
ATOM     22  C   LIG    1       -3.877   7.571   1.112  0.00  0.00    +0.490 A 
ATOM     23  N   LIG    1       -4.849   6.975   1.879  0.00  0.00    -0.490 N 
ATOM     24  H   LIG    1       -4.949   6.024   2.045  0.00  0.00    +0.450 HD
ATOM     25  N   LIG    1       -2.899   6.951   0.459  0.00  0.00    -0.660 NA
ATOM     26  N   LIG    1       -5.668   7.997   2.380  0.00  0.00    -0.390 N 
ATOM     27  C   LIG    1       -6.831   7.814   3.251  0.00  0.00    +0.360 C 
ENDBRANCH  15  25
ENDBRANCH   1  16
TORSDOF 3
