REMARK  Name = ZINCrD000001YLqP.0
REMARK                            x       y       z     vdW  Elec       q    Type
REMARK                         _______ _______ _______ _____ _____    ______ ____
ROOT
ATOM      1  N   LIG    1        4.938   2.577   2.533  0.00  0.00    -0.600 N 
ATOM      2  C   LIG    1        3.830   2.126   1.912  0.00  0.00    +0.530 C 
ATOM      3  O   LIG    1        3.797   2.063   0.701  0.00  0.00    -0.510 OA
ENDROOT
BRANCH   2   4
ATOM      4  C   LIG    1        2.633   1.700   2.722  0.00  0.00    +0.040 C 
ATOM      5  C   LIG    1        1.319   2.031   1.986  0.00  0.00    +0.130 C 
ATOM      6  C   LIG    1        0.902   0.881   1.105  0.00  0.00    -0.090 A 
ATOM      7  C   LIG    1        0.027   0.933   0.019  0.00  0.00    +0.030 A 
ATOM      8  C   LIG    1       -0.282  -0.200  -0.700  0.00  0.00    +0.020 A 
ATOM      9  C   LIG    1        0.278  -1.420  -0.365  0.00  0.00    -0.070 A 
ATOM     10  C   LIG    1        1.146  -1.493   0.706  0.00  0.00    +0.050 A 
ATOM     11  C   LIG    1       -0.061  -2.656  -1.156  0.00  0.00    +0.100 C 
ATOM     12  C   LIG    1        1.456  -0.351   1.432  0.00  0.00    -0.080 A 
ATOM     13  S   LIG    1        2.525  -0.127   2.829  0.00  0.00    -0.090 S 
ENDBRANCH   2   4
BRANCH   1  14
ATOM     14  C   LIG    1        5.026   2.538   3.995  0.00  0.00    +0.270 C 
BRANCH  14  15
ATOM     15  C   LIG    1        5.727   1.250   4.429  0.00  0.00    +0.260 C 
BRANCH  15  17
ATOM     16  C   LIG    1        6.398   0.161   6.503  0.00  0.00    +0.540 C 
ATOM     17  N   LIG    1        5.815   1.210   5.891  0.00  0.00    -0.730 N 
ATOM     18  H   LIG    1        5.453   1.939   6.419  0.00  0.00    +0.400 HD
ATOM     19  O   LIG    1        6.852  -0.753   5.842  0.00  0.00    -0.540 OA
BRANCH  16  21
ATOM     20  C   LIG    1        7.062  -0.914   8.575  0.00  0.00    +0.150 C 
ATOM     21  C   LIG    1        6.486   0.121   7.971  0.00  0.00    -0.090 C 
ENDBRANCH  16  21
ENDBRANCH  15  17
ENDBRANCH  14  15
ENDBRANCH   1  14
BRANCH   1  22
ATOM     22  C   LIG    1        6.055   3.107   1.747  0.00  0.00    +0.340 C 
BRANCH  22  23
ATOM     23  C   LIG    1        5.812   4.565   1.449  0.00  0.00    -0.110 A 
ATOM     24  C   LIG    1        5.053   4.930   0.353  0.00  0.00    +0.030 A 
ATOM     25  C   LIG    1        4.827   6.266   0.083  0.00  0.00    +0.000 A 
ATOM     26  C   LIG    1        5.368   7.238   0.903  0.00  0.00    +0.010 A 
ATOM     27  C   LIG    1        6.132   6.874   1.997  0.00  0.00    +0.000 A 
ATOM     28  C   LIG    1        6.354   5.537   2.269  0.00  0.00    +0.010 A 
ENDBRANCH  22  23
ENDBRANCH   1  22
TORSDOF 7
