REMARK  Name = ZINCpe00000MJK5b.0
REMARK                            x       y       z     vdW  Elec       q    Type
REMARK                         _______ _______ _______ _____ _____    ______ ____
ROOT
ATOM      1  C   LIG    1       -2.252  -1.727   1.947  0.00  0.00    +0.150 C 
ATOM      2  C   LIG    1       -2.065  -2.796   0.837  0.00  0.00    +0.070 C 
ATOM      3  C   LIG    1       -0.917  -2.179  -0.001  0.00  0.00    +0.160 C 
ATOM      4  N   LIG    1       -1.182  -0.724   0.010  0.00  0.00    -0.460 N 
ATOM      5  C   LIG    1       -1.988  -0.402   1.202  0.00  0.00    +0.210 C 
ENDROOT
BRANCH   4   6
ATOM      6  C   LIG    1        0.002  -0.004   0.002  0.00  0.00    +0.350 A 
ATOM      7  C   LIG    1       -0.017   1.392   0.010  0.00  0.00    -0.090 A 
ATOM      8  C   LIG    1        1.190   2.064   0.002  0.00  0.00    +0.200 A 
ATOM      9  N   LIG    1        2.318   1.368  -0.013  0.00  0.00    -0.540 NA
ATOM     10  C   LIG    1        2.302   0.050  -0.020  0.00  0.00    +0.530 A 
ATOM     11  C   LIG    1        1.224   3.571   0.009  0.00  0.00    +0.150 C 
ATOM     12  N   LIG    1        1.175  -0.632  -0.013  0.00  0.00    -0.570 NA
ENDBRANCH   4   6
BRANCH   1  14
ATOM     13  C   LIG    1       -3.689  -1.368   3.831  0.00  0.00    +0.200 C 
ATOM     14  O   LIG    1       -3.585  -1.761   2.461  0.00  0.00    -0.370 OA
ENDBRANCH   1  14
BRANCH   3  15
ATOM     15  C   LIG    1       -0.954  -2.716  -1.432  0.00  0.00    +0.290 C 
BRANCH  15  16
ATOM     16  N   LIG    1        0.009  -1.981  -2.256  0.00  0.00    -0.720 N 
ATOM     17  H   LIG    1        0.545  -1.275  -1.861  0.00  0.00    +0.400 HD
ATOM     18  C   LIG    1        0.151  -2.285  -3.561  0.00  0.00    +0.510 C 
ATOM     19  O   LIG    1       -0.519  -3.168  -4.054  0.00  0.00    -0.540 OA
BRANCH  18  20
ATOM     20  C   LIG    1        1.141  -1.528  -4.407  0.00  0.00    +0.060 C 
BRANCH  20  21
ATOM     21  C   LIG    1        1.104  -2.066  -5.839  0.00  0.00    +0.170 C 
BRANCH  21  22
ATOM     22  C   LIG    1        2.095  -1.310  -6.686  0.00  0.00    +0.210 A 
ATOM     23  N   LIG    1        2.138  -0.013  -6.832  0.00  0.00    -0.490 NA
ATOM     24  C   LIG    1        3.147   0.306  -7.655  0.00  0.00    +0.140 A 
ATOM     25  C   LIG    1        3.753  -0.835  -8.034  0.00  0.00    +0.120 A 
ATOM     26  N   LIG    1        3.090  -1.860  -7.415  0.00  0.00    -0.570 N 
ATOM     27  H   LIG    1        3.294  -2.805  -7.488  0.00  0.00    +0.420 HD
ENDBRANCH  21  22
ENDBRANCH  20  21
ENDBRANCH  18  20
ENDBRANCH  15  16
ENDBRANCH   3  15
TORSDOF 7
