REMARK  Name = ZINCpe00000MJKXo.0
REMARK                            x       y       z     vdW  Elec       q    Type
REMARK                         _______ _______ _______ _____ _____    ______ ____
ROOT
ATOM      1  C   LIG    1        3.087  -0.526  -1.675  0.00  0.00    +0.520 C 
ATOM      2  N   LIG    1        1.965   0.179  -1.430  0.00  0.00    -0.620 N 
ATOM      3  C   LIG    1        2.005   1.644  -1.293  0.00  0.00    +0.250 C 
ATOM      4  C   LIG    1        1.279   2.028   0.001  0.00  0.00    +0.220 C 
ATOM      5  O   LIG    1       -0.017   1.425   0.010  0.00  0.00    -0.360 OA
ATOM      6  C   LIG    1        0.002  -0.004   0.002  0.00  0.00    +0.210 C 
ATOM      7  C   LIG    1        0.663  -0.493  -1.292  0.00  0.00    +0.280 C 
ATOM      8  O   LIG    1        3.033  -1.733  -1.785  0.00  0.00    -0.530 OA
ENDROOT
BRANCH   6   9
ATOM      9  C   LIG    1       -1.409  -0.527   0.075  0.00  0.00    +0.220 A 
ATOM     10  N   LIG    1       -2.260  -0.297  -0.912  0.00  0.00    -0.550 NA
ATOM     11  C   LIG    1       -3.501  -0.758  -0.857  0.00  0.00    +0.560 A 
ATOM     12  N   LIG    1       -3.938  -1.452   0.184  0.00  0.00    -0.570 NA
ATOM     13  C   LIG    1       -3.140  -1.712   1.206  0.00  0.00    +0.370 A 
ATOM     14  C   LIG    1       -1.834  -1.250   1.179  0.00  0.00    -0.130 A 
BRANCH  11  15
ATOM     15  N   LIG    1       -4.363  -0.504  -1.909  0.00  0.00    -0.590 N 
ATOM     16  C   LIG    1       -3.898   0.262  -3.069  0.00  0.00    +0.300 C 
ATOM     17  C   LIG    1       -5.741  -1.000  -1.864  0.00  0.00    +0.300 C 
ENDBRANCH  11  15
ENDBRANCH   6   9
BRANCH   1  18
ATOM     18  C   LIG    1        4.409   0.185  -1.813  0.00  0.00    +0.050 C 
BRANCH  18  19
ATOM     19  C   LIG    1        5.512  -0.839  -2.086  0.00  0.00    +0.140 C 
BRANCH  19  23
ATOM     20  C   LIG    1        9.465   1.560  -4.023  0.00  0.00    +0.360 C 
ATOM     21  N   LIG    1        8.553   0.916  -3.074  0.00  0.00    -0.380 N 
ATOM     22  C   LIG    1        7.366   0.348  -3.374  0.00  0.00    +0.230 A 
ATOM     23  C   LIG    1        6.834  -0.128  -2.224  0.00  0.00    -0.240 A 
ATOM     24  C   LIG    1        7.730   0.151  -1.188  0.00  0.00    +0.230 A 
ATOM     25  N   LIG    1        8.761   0.777  -1.696  0.00  0.00    -0.300 NA
ENDBRANCH  19  23
ENDBRANCH  18  19
ENDBRANCH   1  18
TORSDOF 5
