REMARK  Name = ZINCvU0000000BOT.0
REMARK                            x       y       z     vdW  Elec       q    Type
REMARK                         _______ _______ _______ _____ _____    ______ ____
ROOT
ATOM      1  O   LIG    1       -4.322  -5.892  -1.598  0.00  0.00    -0.330 OA
ENDROOT
BRANCH   1   2
ATOM      2  C   LIG    1       -3.469  -4.951  -2.046  0.00  0.00    +0.510 C 
ATOM      3  O   LIG    1       -2.276  -5.070  -1.851  0.00  0.00    -0.500 OA
BRANCH   2   4
ATOM      4  C   LIG    1       -3.985  -3.775  -2.776  0.00  0.00    -0.110 A 
ATOM      5  C   LIG    1       -5.355  -3.635  -3.002  0.00  0.00    +0.090 A 
ATOM      6  C   LIG    1       -5.833  -2.535  -3.685  0.00  0.00    +0.020 A 
ATOM      7  C   LIG    1       -4.959  -1.569  -4.147  0.00  0.00    +0.040 A 
ATOM      8  C   LIG    1       -3.594  -1.698  -3.926  0.00  0.00    +0.070 A 
ATOM      9  C   LIG    1       -3.103  -2.801  -3.247  0.00  0.00    +0.090 A 
BRANCH   8  10
ATOM     10  O   LIG    1       -2.739  -0.745  -4.382  0.00  0.00    -0.250 OA
BRANCH  10  11
ATOM     11  C   LIG    1       -2.658   0.422  -3.692  0.00  0.00    +0.120 A 
ATOM     12  C   LIG    1       -3.502   0.652  -2.615  0.00  0.00    -0.070 A 
ATOM     13  C   LIG    1       -3.414   1.838  -1.911  0.00  0.00    +0.050 A 
ATOM     14  C   LIG    1       -2.494   2.799  -2.286  0.00  0.00    -0.020 A 
ATOM     15  C   LIG    1       -1.656   2.575  -3.362  0.00  0.00    +0.050 A 
ATOM     16  C   LIG    1       -1.736   1.388  -4.066  0.00  0.00    -0.010 A 
ENDBRANCH  10  11
ENDBRANCH   8  10
ENDBRANCH   2   4
ENDBRANCH   1   2
BRANCH   1  17
ATOM     17  C   LIG    1       -3.745  -7.021  -0.889  0.00  0.00    +0.260 C 
BRANCH  17  19
ATOM     18  N   LIG    1       -4.559  -9.016   0.326  0.00  0.00    -0.600 N 
ATOM     19  C   LIG    1       -4.843  -7.962  -0.466  0.00  0.00    +0.520 C 
ATOM     20  O   LIG    1       -5.982  -7.772  -0.838  0.00  0.00    -0.510 OA
BRANCH  18  22
ATOM     21  C   LIG    1       -2.721  -8.263   1.752  0.00  0.00    +0.040 C 
ATOM     22  C   LIG    1       -3.173  -9.290   0.712  0.00  0.00    +0.160 C 
ATOM     23  C   LIG    1       -2.272  -9.196  -0.522  0.00  0.00    +0.040 C 
ATOM     24  C   LIG    1       -3.077 -10.695   1.308  0.00  0.00    +0.060 C 
ENDBRANCH  18  22
BRANCH  18  25
ATOM     25  C   LIG    1       -5.637  -9.887   0.800  0.00  0.00    +0.330 C 
BRANCH  25  26
ATOM     26  C   LIG    1       -5.886 -10.976  -0.212  0.00  0.00    -0.110 A 
ATOM     27  C   LIG    1       -6.704 -10.734  -1.300  0.00  0.00    +0.030 A 
ATOM     28  C   LIG    1       -6.928 -11.731  -2.231  0.00  0.00    +0.000 A 
ATOM     29  C   LIG    1       -6.342 -12.973  -2.069  0.00  0.00    +0.010 A 
ATOM     30  C   LIG    1       -5.527 -13.215  -0.979  0.00  0.00    -0.010 A 
ATOM     31  C   LIG    1       -5.299 -12.217  -0.051  0.00  0.00    +0.020 A 
ENDBRANCH  25  26
ENDBRANCH  18  25
ENDBRANCH  17  19
ENDBRANCH   1  17
TORSDOF 9
