REMARK  Name = ZINCqH0000004Nqh.0
REMARK                            x       y       z     vdW  Elec       q    Type
REMARK                         _______ _______ _______ _____ _____    ______ ____
ROOT
ATOM      1  C   LIG    1        5.322   2.019  -1.458  0.00  0.00    +0.490 C 
ATOM      2  N   LIG    1        6.626   1.801  -1.719  0.00  0.00    -0.520 N 
ATOM      3  H   LIG    1        7.255   1.692  -0.988  0.00  0.00    +0.430 HD
ATOM      4  O   LIG    1        4.536   2.156  -2.372  0.00  0.00    -0.500 OA
ENDROOT
BRANCH   2   5
ATOM      5  N   LIG    1        7.074   1.732  -3.044  0.00  0.00    -0.540 N 
ATOM      6  H   LIG    1        6.445   1.842  -3.775  0.00  0.00    +0.440 HD
BRANCH   5   7
ATOM      7  C   LIG    1        8.426   1.507  -3.314  0.00  0.00    +0.260 A 
ATOM      8  C   LIG    1        9.328   1.356  -2.269  0.00  0.00    -0.070 A 
ATOM      9  C   LIG    1       10.663   1.129  -2.539  0.00  0.00    +0.110 A 
ATOM     10  C   LIG    1       11.104   1.061  -3.848  0.00  0.00    -0.030 A 
ATOM     11  C   LIG    1       10.209   1.215  -4.891  0.00  0.00    +0.120 A 
ATOM     12  C   LIG    1        8.872   1.438  -4.628  0.00  0.00    -0.250 A 
BRANCH  12  13
ATOM     13  C   LIG    1        7.897   1.607  -5.765  0.00  0.00    +0.510 C 
ATOM     14  F   LIG    1        7.294   2.866  -5.679  0.00  0.00    -0.180 F 
ATOM     15  F   LIG    1        6.915   0.614  -5.689  0.00  0.00    -0.180 F 
ATOM     16  F   LIG    1        8.578   1.499  -6.982  0.00  0.00    -0.170 F 
ENDBRANCH  12  13
ENDBRANCH   5   7
ENDBRANCH   2   5
BRANCH   1  17
ATOM     17  C   LIG    1        4.840   2.093  -0.033  0.00  0.00    +0.370 C 
BRANCH  17  26
ATOM     18  C   LIG    1        2.781   3.550  -0.004  0.00  0.00    +0.300 A 
ATOM     19  N   LIG    1        1.489   3.398   0.007  0.00  0.00    -0.490 NA
ATOM     20  C   LIG    1        1.185   2.075   0.002  0.00  0.00    +0.050 A 
ATOM     21  C   LIG    1       -0.017   1.362   0.009  0.00  0.00    +0.070 A 
ATOM     22  C   LIG    1        0.002  -0.004   0.002  0.00  0.00    +0.000 A 
ATOM     23  C   LIG    1        1.205  -0.695  -0.014  0.00  0.00    +0.030 A 
ATOM     24  C   LIG    1        2.403  -0.013  -0.021  0.00  0.00    +0.010 A 
ATOM     25  C   LIG    1        2.404   1.375  -0.013  0.00  0.00    +0.050 A 
ATOM     26  N   LIG    1        3.395   2.336  -0.017  0.00  0.00    -0.480 N 
BRANCH  18  28
ATOM     27  C   LIG    1        3.723   5.336  -1.444  0.00  0.00    +0.050 C 
ATOM     28  C   LIG    1        3.494   4.878  -0.002  0.00  0.00    +0.130 C 
ENDBRANCH  18  28
ENDBRANCH  17  26
ENDBRANCH   1  17
TORSDOF 6
