REMARK  Name = ZINCkj00000G1daO.0
REMARK                            x       y       z     vdW  Elec       q    Type
REMARK                         _______ _______ _______ _____ _____    ______ ____
ROOT
ATOM      1  N   LIG    1        0.122   0.017  -0.035  0.00  0.00    -0.390 N 
ATOM      2  C   LIG    1        0.564  -0.391  -1.375  0.00  0.00    +0.280 C 
ATOM      3  C   LIG    1        0.740  -1.910  -1.414  0.00  0.00    +0.230 C 
ATOM      4  N   LIG    1       -0.538  -2.557  -1.083  0.00  0.00    -0.480 N 
ATOM      5  C   LIG    1       -1.006  -2.139   0.246  0.00  0.00    +0.230 C 
ATOM      6  C   LIG    1       -1.167  -0.617   0.271  0.00  0.00    +0.280 C 
ATOM      7  H   LIG    1        0.808  -0.270   0.647  0.00  0.00    +0.430 HD
ENDROOT
BRANCH   4   8
ATOM      8  C   LIG    1       -0.431  -3.934  -1.161  0.00  0.00    +0.390 A 
ATOM      9  C   LIG    1       -1.099  -4.651  -2.164  0.00  0.00    -0.170 A 
ATOM     10  C   LIG    1       -1.978  -4.300  -3.279  0.00  0.00    -0.100 A 
ATOM     11  C   LIG    1       -2.302  -5.449  -3.895  0.00  0.00    +0.290 A 
ATOM     12  N   LIG    1       -1.697  -6.504  -3.258  0.00  0.00    -0.560 N 
ATOM     13  H   LIG    1       -1.782  -7.434  -3.520  0.00  0.00    +0.440 HD
ATOM     14 CL   LIG    1       -2.502  -2.705  -3.720  0.00  0.00    -0.020 Cl
ATOM     15  C   LIG    1       -0.958  -6.051  -2.201  0.00  0.00    +0.340 A 
ATOM     16  N   LIG    1       -0.196  -6.639  -1.280  0.00  0.00    -0.510 NA
ATOM     17  C   LIG    1        0.411  -5.926  -0.356  0.00  0.00    +0.550 A 
ATOM     18  N   LIG    1        0.312  -4.610  -0.289  0.00  0.00    -0.560 NA
ENDBRANCH   4   8
BRANCH   1  19
ATOM     19  C   LIG    1       -0.029   1.478   0.007  0.00  0.00    +0.280 C 
BRANCH  19  20
ATOM     20  C   LIG    1       -0.339   1.917   1.440  0.00  0.00    +0.200 C 
BRANCH  20  22
ATOM     21  C   LIG    1        0.582   1.971   3.652  0.00  0.00    +0.240 C 
ATOM     22  O   LIG    1        0.769   1.600   2.285  0.00  0.00    -0.400 OA
ENDBRANCH  20  22
ENDBRANCH  19  20
ENDBRANCH   1  19
TORSDOF 4
