REMARK  Name = ZINCtV000002IdIX.1
REMARK                            x       y       z     vdW  Elec       q    Type
REMARK                         _______ _______ _______ _____ _____    ______ ____
ROOT
ATOM      1  N   LIG    1       -0.084   1.008  -0.076  0.00  0.00    -0.680 N 
ATOM      2  H   LIG    1        0.708   1.378   0.344  0.00  0.00    +0.410 HD
ATOM      3  C   LIG    1       -0.020  -0.183  -0.703  0.00  0.00    +0.510 C 
ATOM      4  O   LIG    1       -1.027  -0.685  -1.155  0.00  0.00    -0.500 OA
ENDROOT
BRANCH   1   8
ATOM      5  C   LIG    1       -3.692   3.095   0.074  0.00  0.00    -0.160 A 
ATOM      6  C   LIG    1       -3.689   1.706   0.132  0.00  0.00    +0.100 A 
ATOM      7  C   LIG    1       -2.495   1.016   0.083  0.00  0.00    +0.020 A 
ATOM      8  C   LIG    1       -1.296   1.709  -0.025  0.00  0.00    +0.180 A 
ATOM      9  C   LIG    1       -1.298   3.097  -0.077  0.00  0.00    -0.020 A 
ATOM     10  C   LIG    1       -2.492   3.787  -0.033  0.00  0.00    +0.090 A 
BRANCH   5  11
ATOM     11  S   LIG    1       -5.216   3.976   0.137  0.00  0.00    -0.010 S 
BRANCH  11  16
ATOM     12  C   LIG    1       -5.757   5.341   5.992  0.00  0.00    +0.090 C 
ATOM     13  C   LIG    1       -5.622   5.000   4.530  0.00  0.00    -0.090 A 
ATOM     14  C   LIG    1       -4.577   4.202   4.101  0.00  0.00    +0.020 A 
ATOM     15  C   LIG    1       -4.450   3.888   2.763  0.00  0.00    +0.000 A 
ATOM     16  C   LIG    1       -5.374   4.374   1.846  0.00  0.00    -0.100 A 
ATOM     17  C   LIG    1       -6.420   5.180   2.280  0.00  0.00    +0.030 A 
ATOM     18  C   LIG    1       -6.544   5.485   3.620  0.00  0.00    -0.070 A 
ATOM     19  C   LIG    1       -7.681   6.354   4.093  0.00  0.00    +0.090 C 
ENDBRANCH  11  16
ENDBRANCH   5  11
ENDBRANCH   1   8
BRANCH   3  20
ATOM     20  C   LIG    1        1.303  -0.891  -0.843  0.00  0.00    +0.220 C 
BRANCH  20  21
ATOM     21  N   LIG    1        1.107  -2.159  -1.559  0.00  0.00    -0.670 NA
ATOM     22  H   LIG    1        0.420  -2.734  -1.094  0.00  0.00    +0.350 HD
BRANCH  21  23
ATOM     23  C   LIG    1        2.378  -2.878  -1.714  0.00  0.00    +0.210 C 
ATOM     24  C   LIG    1        2.652  -3.707  -0.457  0.00  0.00    +0.010 C 
BRANCH  23  25
ATOM     25  C   LIG    1        2.296  -3.792  -2.909  0.00  0.00    -0.070 A 
ATOM     26  C   LIG    1        1.135  -4.501  -3.158  0.00  0.00    +0.050 A 
ATOM     27  C   LIG    1        1.058  -5.336  -4.257  0.00  0.00    +0.020 A 
ATOM     28  C   LIG    1        2.145  -5.469  -5.102  0.00  0.00    -0.040 A 
ATOM     29  C   LIG    1        3.308  -4.764  -4.849  0.00  0.00    +0.020 A 
ATOM     30 CL   LIG    1        2.050  -6.523  -6.479  0.00  0.00    -0.070 Cl
ATOM     31  C   LIG    1        3.383  -3.926  -3.753  0.00  0.00    +0.030 A 
ENDBRANCH  23  25
ENDBRANCH  21  23
ENDBRANCH  20  21
ENDBRANCH   3  20
TORSDOF 7
