REMARK  Name = ZINCrg00000SjSsl.0
REMARK                            x       y       z     vdW  Elec       q    Type
REMARK                         _______ _______ _______ _____ _____    ______ ____
ROOT
ATOM      1  N   LIG    1       -4.025  -0.156   0.035  0.00  0.00    -0.390 N 
ATOM      2  C   LIG    1       -2.694   0.125   0.029  0.00  0.00    +0.230 A 
ATOM      3  N   LIG    1       -2.524   1.432   0.033  0.00  0.00    -0.430 NA
ATOM      4  C   LIG    1       -3.708   2.046   0.048  0.00  0.00    +0.330 A 
ATOM      5  N   LIG    1       -4.095   3.376   0.058  0.00  0.00    -0.510 N 
ATOM      6  C   LIG    1       -3.081   4.434   0.053  0.00  0.00    +0.350 C 
ATOM      7  C   LIG    1       -5.402   3.698   0.073  0.00  0.00    +0.710 A 
ATOM      8  O   LIG    1       -5.724   4.870   0.082  0.00  0.00    -0.530 OA
ATOM      9  N   LIG    1       -6.360   2.755   0.078  0.00  0.00    -0.650 N 
ATOM     10  H   LIG    1       -7.293   3.021   0.088  0.00  0.00    +0.440 HD
ATOM     11  C   LIG    1       -6.044   1.443   0.068  0.00  0.00    +0.600 A 
ATOM     12  O   LIG    1       -6.922   0.598   0.073  0.00  0.00    -0.510 OA
ATOM     13  C   LIG    1       -4.691   1.062   0.053  0.00  0.00    -0.140 A 
ENDROOT
BRANCH   1  14
ATOM     14  C   LIG    1       -4.637  -1.487   0.027  0.00  0.00    +0.370 C 
BRANCH  14  20
ATOM     15  C   LIG    1       -2.944  -3.880   4.083  0.00  0.00    +0.090 C 
ATOM     16  C   LIG    1       -4.029  -3.100   3.386  0.00  0.00    -0.090 A 
ATOM     17  C   LIG    1       -5.209  -2.816   4.047  0.00  0.00    +0.030 A 
ATOM     18  C   LIG    1       -6.204  -2.100   3.407  0.00  0.00    +0.010 A 
ATOM     19  C   LIG    1       -6.019  -1.670   2.107  0.00  0.00    +0.050 A 
ATOM     20  C   LIG    1       -4.839  -1.956   1.445  0.00  0.00    -0.120 A 
ATOM     21  C   LIG    1       -3.846  -2.675   2.083  0.00  0.00    +0.020 A 
ENDBRANCH  14  20
ENDBRANCH   1  14
BRANCH   2  22
ATOM     22  S   LIG    1       -1.400  -1.071   0.010  0.00  0.00    +0.250 S 
BRANCH  22  23
ATOM     23  C   LIG    1        0.002  -0.004   0.002  0.00  0.00    +0.110 A 
ATOM     24  N   LIG    1       -0.016   1.308   0.009  0.00  0.00    -0.210 NA
ATOM     25  N   LIG    1        1.187   1.761   0.000  0.00  0.00    -0.290 NA
ATOM     26  C   LIG    1        2.037   0.772  -0.013  0.00  0.00    +0.400 A 
ATOM     27  N   LIG    1        1.312  -0.387  -0.013  0.00  0.00    -0.470 N 
ATOM     28  C   LIG    1        1.834  -1.755  -0.026  0.00  0.00    +0.350 C 
ENDBRANCH  22  23
ENDBRANCH   2  22
TORSDOF 4
