REMARK  Name = ZINCrD000000CQJg.0
REMARK                            x       y       z     vdW  Elec       q    Type
REMARK                         _______ _______ _______ _____ _____    ______ ____
ROOT
ATOM      1  N   LIG    1        5.608   4.493  -1.584  0.00  0.00    -0.730 N 
ATOM      2  H   LIG    1        5.219   5.326  -1.274  0.00  0.00    +0.400 HD
ENDROOT
BRANCH   1   7
ATOM      3  C   LIG    1        7.074   5.553  -4.783  0.00  0.00    -0.030 A 
ATOM      4  C   LIG    1        7.627   4.365  -5.223  0.00  0.00    -0.050 A 
ATOM      5  C   LIG    1        7.511   3.219  -4.457  0.00  0.00    +0.050 A 
ATOM      6  C   LIG    1        6.842   3.258  -3.250  0.00  0.00    -0.060 A 
ATOM      7  C   LIG    1        6.285   4.450  -2.804  0.00  0.00    +0.220 A 
ATOM      8  C   LIG    1        6.399   5.598  -3.578  0.00  0.00    -0.060 A 
BRANCH   3  12
ATOM      9  O   LIG    1        7.163   7.685  -9.085  0.00  0.00    -0.530 OA
ATOM     10  C   LIG    1        7.458   7.354  -7.956  0.00  0.00    +0.520 C 
ATOM     11  C   LIG    1        6.549   6.603  -7.008  0.00  0.00    +0.070 C 
ATOM     12  C   LIG    1        7.202   6.799  -5.621  0.00  0.00    +0.040 C 
ATOM     13  C   LIG    1        8.677   7.060  -6.001  0.00  0.00    +0.270 C 
ATOM     14  N   LIG    1        8.639   7.601  -7.365  0.00  0.00    -0.730 N 
ATOM     15  H   LIG    1        9.373   8.076  -7.785  0.00  0.00    +0.410 HD
ENDBRANCH   3  12
ENDBRANCH   1   7
BRANCH   1  16
ATOM     16  C   LIG    1        5.484   3.280  -0.772  0.00  0.00    +0.250 C 
ATOM     17  C   LIG    1        5.290   3.644   0.718  0.00  0.00    +0.070 C 
ATOM     18  C   LIG    1        4.308   2.547   1.185  0.00  0.00    +0.270 C 
ATOM     19  N   LIG    1        3.584   2.129  -0.021  0.00  0.00    -0.580 N 
ATOM     20  C   LIG    1        4.228   2.518  -1.135  0.00  0.00    +0.500 C 
ATOM     21  O   LIG    1        3.856   2.293  -2.268  0.00  0.00    -0.490 OA
BRANCH  19  22
ATOM     22  C   LIG    1        2.381   1.412  -0.013  0.00  0.00    +0.110 A 
ATOM     23  C   LIG    1        1.169   2.088   0.002  0.00  0.00    +0.080 A 
ATOM     24  C   LIG    1       -0.017   1.379   0.010  0.00  0.00    +0.040 A 
ATOM     25  C   LIG    1        0.002  -0.004   0.002  0.00  0.00    -0.000 A 
ATOM     26  C   LIG    1        1.208  -0.682  -0.013  0.00  0.00    +0.010 A 
ATOM     27 CL   LIG    1       -1.490  -0.891   0.012  0.00  0.00    -0.050 Cl
ATOM     28  C   LIG    1        2.398   0.022  -0.020  0.00  0.00    +0.120 A 
ATOM     29  F   LIG    1        3.576  -0.640  -0.034  0.00  0.00    -0.120 F 
ENDBRANCH  19  22
ENDBRANCH   1  16
TORSDOF 4
