REMARK  Name = ZINCpk000000n2cM.0
REMARK                            x       y       z     vdW  Elec       q    Type
REMARK                         _______ _______ _______ _____ _____    ______ ____
ROOT
ATOM      1  N   LIG    1        1.627  -7.914  -2.499  0.00  0.00    -0.670 N 
ATOM      2  H   LIG    1        1.057  -8.551  -2.040  0.00  0.00    +0.420 HD
ATOM      3  C   LIG    1        1.534  -6.600  -2.214  0.00  0.00    +0.510 C 
ATOM      4  O   LIG    1        2.190  -5.796  -2.842  0.00  0.00    -0.500 OA
ENDROOT
BRANCH   1  10
ATOM      5  C   LIG    1        3.220  -9.574  -3.265  0.00  0.00    -0.210 A 
ATOM      6  C   LIG    1        4.131 -10.009  -4.234  0.00  0.00    +0.090 A 
ATOM      7  C   LIG    1        4.364  -9.240  -5.353  0.00  0.00    -0.020 A 
ATOM      8  C   LIG    1        3.696  -8.039  -5.528  0.00  0.00    +0.070 A 
ATOM      9  C   LIG    1        2.789  -7.598  -4.585  0.00  0.00    +0.000 A 
ATOM     10  C   LIG    1        2.540  -8.357  -3.451  0.00  0.00    +0.210 A 
BRANCH   5  12
ATOM     11  C   LIG    1        3.768 -11.641  -1.830  0.00  0.00    +0.080 C 
ATOM     12  C   LIG    1        2.972 -10.384  -2.067  0.00  0.00    +0.400 C 
ATOM     13  O   LIG    1        2.126 -10.042  -1.268  0.00  0.00    -0.470 OA
ENDBRANCH   5  12
ENDBRANCH   1  10
BRANCH   3  14
ATOM     14  C   LIG    1        0.614  -6.130  -1.117  0.00  0.00    +0.220 C 
BRANCH  14  15
ATOM     15  N   LIG    1        0.578  -4.661  -1.104  0.00  0.00    -0.520 NA
ATOM     16  C   LIG    1       -0.062  -4.140  -2.321  0.00  0.00    +0.190 C 
ATOM     17  C   LIG    1       -0.009  -2.611  -2.306  0.00  0.00    +0.220 C 
ATOM     18  N   LIG    1       -0.688  -2.111  -1.102  0.00  0.00    -0.470 N 
ATOM     19  C   LIG    1       -0.049  -2.632   0.114  0.00  0.00    +0.210 C 
ATOM     20  C   LIG    1       -0.101  -4.162   0.100  0.00  0.00    +0.200 C 
BRANCH  18  21
ATOM     21  C   LIG    1       -0.723  -0.722  -1.091  0.00  0.00    +0.270 A 
ATOM     22  C   LIG    1       -1.326  -0.047  -0.031  0.00  0.00    +0.210 A 
ATOM     23  N   LIG    1       -1.357   1.272  -0.024  0.00  0.00    -0.420 NA
ATOM     24  C   LIG    1       -0.817   1.953  -1.021  0.00  0.00    +0.180 A 
ATOM     25  C   LIG    1       -0.218   1.288  -2.074  0.00  0.00    +0.250 A 
ATOM     26  N   LIG    1       -0.183  -0.034  -2.088  0.00  0.00    -0.480 NA
ENDBRANCH  18  21
ENDBRANCH  14  15
ENDBRANCH   3  14
TORSDOF 5
