REMARK  Name = ZINCrD00000fMg4G.0
REMARK                            x       y       z     vdW  Elec       q    Type
REMARK                         _______ _______ _______ _____ _____    ______ ____
ROOT
ATOM      1  C   LIG    1        6.872  -0.751   0.880  0.00  0.00    -0.230 A 
ATOM      2  C   LIG    1        6.803  -1.348  -0.384  0.00  0.00    +0.120 A 
ATOM      3  C   LIG    1        7.844  -2.172  -0.780  0.00  0.00    -0.020 A 
ATOM      4  C   LIG    1        8.913  -2.379   0.077  0.00  0.00    +0.340 A 
ATOM      5  N   LIG    1        8.957  -1.806   1.264  0.00  0.00    -0.510 NA
ATOM      6  F   LIG    1        7.817  -2.768  -1.992  0.00  0.00    -0.130 F 
ATOM      7  C   LIG    1        7.992  -1.006   1.689  0.00  0.00    +0.440 A 
ENDROOT
BRANCH   1   9
ATOM      8  O   LIG    1        6.061   1.196   1.878  0.00  0.00    -0.520 OA
ATOM      9  C   LIG    1        5.791   0.134   1.352  0.00  0.00    +0.600 C 
ATOM     10  N   LIG    1        4.504  -0.235   1.200  0.00  0.00    -0.610 N 
ATOM     11  C   LIG    1        3.999  -1.425   0.503  0.00  0.00    +0.300 C 
ATOM     12  C   LIG    1        2.496  -1.398   0.604  0.00  0.00    +0.000 C 
ATOM     13  C   LIG    1        2.111  -0.330   1.277  0.00  0.00    -0.100 C 
ATOM     14  C   LIG    1        3.315   0.475   1.692  0.00  0.00    +0.310 C 
BRANCH  13  15
ATOM     15  C   LIG    1        0.708   0.028   1.573  0.00  0.00    -0.090 A 
ATOM     16  C   LIG    1       -0.074  -0.785   2.401  0.00  0.00    +0.080 A 
ATOM     17  C   LIG    1       -1.384  -0.409   2.642  0.00  0.00    -0.030 A 
ATOM     18  C   LIG    1       -1.871   0.751   2.070  0.00  0.00    +0.260 A 
ATOM     19  N   LIG    1       -1.111   1.498   1.292  0.00  0.00    -0.480 NA
ATOM     20  C   LIG    1        0.139   1.181   1.029  0.00  0.00    +0.280 A 
ENDBRANCH  13  15
ENDBRANCH   1   9
BRANCH   7  21
ATOM     21  N   LIG    1        8.084  -0.422   2.940  0.00  0.00    -0.690 N 
ATOM     22  H   LIG    1        7.343   0.099   3.288  0.00  0.00    +0.420 HD
BRANCH  21  23
ATOM     23  C   LIG    1        9.300  -0.590   3.740  0.00  0.00    +0.270 C 
ATOM     24  C   LIG    1        9.122  -1.535   4.940  0.00  0.00    +0.030 C 
ATOM     25  C   LIG    1        9.992  -0.552   5.742  0.00  0.00    +0.260 C 
ATOM     26  F   LIG    1        9.547  -0.352   7.053  0.00  0.00    -0.190 F 
ATOM     27  F   LIG    1       11.362  -0.826   5.667  0.00  0.00    -0.170 F 
ATOM     28  C   LIG    1        9.527   0.537   4.761  0.00  0.00    +0.050 C 
ENDBRANCH  21  23
ENDBRANCH   7  21
TORSDOF 4
