REMARK  Name = ZINCqH0000007P8p.0
REMARK                            x       y       z     vdW  Elec       q    Type
REMARK                         _______ _______ _______ _____ _____    ______ ____
ROOT
ATOM      1  C   LIG    1       -3.099   3.710  -2.926  0.00  0.00    -0.060 A 
ATOM      2  C   LIG    1       -4.222   4.412  -3.303  0.00  0.00    +0.050 A 
ATOM      3  C   LIG    1       -4.114   4.639  -4.679  0.00  0.00    +0.000 A 
ATOM      4  C   LIG    1       -2.945   4.066  -5.090  0.00  0.00    +0.030 A 
ATOM      5  O   LIG    1       -2.341   3.510  -4.026  0.00  0.00    -0.150 OA
ENDROOT
BRANCH   4   6
ATOM      6  C   LIG    1       -2.429   4.059  -6.473  0.00  0.00    +0.040 A 
ATOM      7  C   LIG    1       -3.157   4.669  -7.497  0.00  0.00    +0.060 A 
ATOM      8  C   LIG    1       -2.666   4.664  -8.786  0.00  0.00    +0.110 A 
ATOM      9  C   LIG    1       -1.461   4.045  -9.068  0.00  0.00    -0.040 A 
ATOM     10  C   LIG    1       -0.737   3.433  -8.060  0.00  0.00    +0.110 A 
ATOM     11  C   LIG    1       -1.213   3.436  -6.765  0.00  0.00    +0.050 A 
BRANCH   9  12
ATOM     12  N   LIG    1       -0.944   4.038 -10.455  0.00  0.00    +0.030 N 
ATOM     13  O   LIG    1       -1.578   4.576 -11.345  0.00  0.00    -0.150 OA
ATOM     14  O   LIG    1        0.117   3.495 -10.707  0.00  0.00    -0.150 OA
ENDBRANCH   9  12
ENDBRANCH   4   6
BRANCH   1  17
ATOM     15  N   LIG    1       -1.647   2.569  -1.336  0.00  0.00    -0.710 N 
ATOM     16  H   LIG    1       -1.038   2.376  -2.067  0.00  0.00    +0.410 HD
ATOM     17  C   LIG    1       -2.783   3.255  -1.570  0.00  0.00    +0.600 C 
ATOM     18  O   LIG    1       -3.547   3.496  -0.654  0.00  0.00    -0.510 OA
BRANCH  15  19
ATOM     19  C   LIG    1       -1.331   2.113   0.020  0.00  0.00    +0.340 C 
BRANCH  19  25
ATOM     20  C   LIG    1        1.176   2.086   0.002  0.00  0.00    +0.150 A 
ATOM     21  C   LIG    1        2.385   1.405  -0.013  0.00  0.00    -0.080 A 
ATOM     22  C   LIG    1        2.398   0.024  -0.021  0.00  0.00    +0.060 A 
ATOM     23  C   LIG    1        1.208  -0.680  -0.013  0.00  0.00    -0.030 A 
ATOM     24  C   LIG    1        0.002  -0.004   0.002  0.00  0.00    +0.070 A 
ATOM     25  C   LIG    1       -0.017   1.377   0.010  0.00  0.00    -0.150 A 
BRANCH  20  27
ATOM     26  C   LIG    1        2.426   4.108   0.001  0.00  0.00    +0.250 C 
ATOM     27  O   LIG    1        1.160   3.445   0.010  0.00  0.00    -0.310 OA
ENDBRANCH  20  27
ENDBRANCH  19  25
ENDBRANCH  15  19
ENDBRANCH   1  17
TORSDOF 6
