REMARK  Name = ZINCrD000000Ca8C.0
REMARK                            x       y       z     vdW  Elec       q    Type
REMARK                         _______ _______ _______ _____ _____    ______ ____
ROOT
ATOM      1  C   LIG    1       -0.024   5.653  -0.183  0.00  0.00    +0.010 C 
ATOM      2  C   LIG    1        0.651   6.255   1.051  0.00  0.00    +0.040 C 
ATOM      3  C   LIG    1        0.669   7.782   0.925  0.00  0.00    +0.280 C 
ATOM      4  N   LIG    1       -0.704   8.253   0.697  0.00  0.00    -0.610 N 
ATOM      5  C   LIG    1       -1.476   7.672  -0.409  0.00  0.00    +0.280 C 
ATOM      6  C   LIG    1       -1.245   9.201   1.488  0.00  0.00    +0.520 C 
ATOM      7  O   LIG    1       -2.379   9.582   1.290  0.00  0.00    -0.510 OA
ATOM      8  C   LIG    1       -1.470   6.147  -0.268  0.00  0.00    +0.050 C 
ENDROOT
BRANCH   1  10
ATOM      9  O   LIG    1       -1.058   3.534  -0.071  0.00  0.00    -0.510 OA
ATOM     10  C   LIG    1       -0.013   4.149  -0.077  0.00  0.00    +0.520 C 
ATOM     11  N   LIG    1        1.159   3.489   0.010  0.00  0.00    -0.670 N 
ATOM     12  H   LIG    1        1.991   3.983   0.070  0.00  0.00    +0.410 HD
BRANCH  11  13
ATOM     13  C   LIG    1        1.174   2.087   0.013  0.00  0.00    +0.120 A 
ATOM     14  C   LIG    1        0.148   1.382   0.624  0.00  0.00    +0.030 A 
ATOM     15  C   LIG    1        0.165   0.000   0.626  0.00  0.00    +0.020 A 
ATOM     16  C   LIG    1        1.204  -0.682   0.022  0.00  0.00    +0.010 A 
ATOM     17  C   LIG    1        2.231   0.014  -0.589  0.00  0.00    +0.000 A 
ATOM     18  C   LIG    1        2.221   1.399  -0.596  0.00  0.00    +0.080 A 
BRANCH  18  19
ATOM     19  O   LIG    1        3.230   2.085  -1.197  0.00  0.00    -0.500 OA
ATOM     20  H   LIG    1        3.073   2.276  -2.132  0.00  0.00    +0.390 HD
ENDBRANCH  18  19
ENDBRANCH  11  13
ENDBRANCH   1  10
BRANCH   6  21
ATOM     21  C   LIG    1       -0.440   9.787   2.619  0.00  0.00    +0.240 C 
BRANCH  21  22
ATOM     22  O   LIG    1       -1.224  10.764   3.307  0.00  0.00    -0.290 OA
BRANCH  22  23
ATOM     23  C   LIG    1       -0.642  11.393   4.361  0.00  0.00    +0.140 A 
ATOM     24  C   LIG    1        0.656  11.072   4.731  0.00  0.00    -0.080 A 
ATOM     25  C   LIG    1        1.248  11.716   5.800  0.00  0.00    +0.080 A 
ATOM     26  C   LIG    1        0.545  12.672   6.509  0.00  0.00    -0.010 A 
ATOM     27  C   LIG    1       -0.752  12.990   6.146  0.00  0.00    +0.010 A 
ATOM     28 CL   LIG    1       -1.633  14.191   7.038  0.00  0.00    -0.060 Cl
ATOM     29  C   LIG    1       -1.347  12.352   5.073  0.00  0.00    +0.000 A 
ENDBRANCH  22  23
ENDBRANCH  21  22
ENDBRANCH   6  21
TORSDOF 6
