REMARK  Name = ZINCrD00000F5LA9.0
REMARK                            x       y       z     vdW  Elec       q    Type
REMARK                         _______ _______ _______ _____ _____    ______ ____
ROOT
ATOM      1  C   LIG    1        0.049   1.348   2.551  0.00  0.00    -0.070 A 
ATOM      2  C   LIG    1       -0.492   0.293   3.216  0.00  0.00    +0.120 A 
ATOM      3  C   LIG    1        0.208  -0.274   4.302  0.00  0.00    +0.230 A 
ATOM      4  N   LIG    1       -0.076  -1.285   5.107  0.00  0.00    -0.460 NA
ATOM      5  C   LIG    1        0.919  -1.435   6.000  0.00  0.00    +0.100 A 
ATOM      6  C   LIG    1        1.872  -0.472   5.743  0.00  0.00    +0.130 A 
ATOM      7  N   LIG    1        1.422   0.255   4.676  0.00  0.00    -0.380 N 
ATOM      8  C   LIG    1        1.951   1.321   3.999  0.00  0.00    +0.200 A 
ATOM      9  C   LIG    1        1.292   1.867   2.957  0.00  0.00    +0.030 A 
ENDROOT
BRANCH   5  10
ATOM     10  C   LIG    1        0.980  -2.457   7.072  0.00  0.00    -0.030 A 
ATOM     11  C   LIG    1        2.205  -3.019   7.433  0.00  0.00    +0.060 A 
ATOM     12  C   LIG    1        2.259  -3.966   8.434  0.00  0.00    -0.070 A 
ATOM     13  C   LIG    1        1.095  -4.367   9.075  0.00  0.00    +0.120 A 
ATOM     14  C   LIG    1       -0.126  -3.814   8.715  0.00  0.00    +0.000 A 
ATOM     15  C   LIG    1       -0.187  -2.863   7.718  0.00  0.00    +0.090 A 
BRANCH  13  16
ATOM     16  O   LIG    1        1.151  -5.305  10.058  0.00  0.00    -0.320 OA
BRANCH  16  17
ATOM     17  C   LIG    1        2.440  -5.832  10.378  0.00  0.00    +0.430 C 
ATOM     18  F   LIG    1        3.162  -4.885  11.112  0.00  0.00    -0.210 F 
ENDBRANCH  16  17
ENDBRANCH  13  16
ENDBRANCH   5  10
BRANCH   1  20
ATOM     19  C   LIG    1        0.185   1.866   0.130  0.00  0.00    +0.030 C 
ATOM     20  C   LIG    1       -0.683   1.963   1.387  0.00  0.00    +0.170 C 
ATOM     21  C   LIG    1       -0.980   3.433   1.690  0.00  0.00    +0.030 C 
BRANCH  20  22
ATOM     22  O   LIG    1       -1.911   1.264   1.173  0.00  0.00    -0.560 OA
ATOM     23  H   LIG    1       -2.435   1.606   0.436  0.00  0.00    +0.380 HD
ENDBRANCH  20  22
ENDBRANCH   1  20
BRANCH   6  24
ATOM     24  N   LIG    1        3.066  -0.277   6.439  0.00  0.00    -0.570 N 
ATOM     25  H   LIG    1        3.677  -1.074   6.340  0.00  0.00    +0.360 HD
BRANCH  24  26
ATOM     26  C   LIG    1        3.735   0.956   6.002  0.00  0.00    +0.120 C 
ATOM     27  C   LIG    1        4.821   0.729   4.933  0.00  0.00    +0.190 C 
ATOM     28  O   LIG    1        5.610   1.661   5.700  0.00  0.00    -0.370 OA
ATOM     29  C   LIG    1        4.890   1.396   6.921  0.00  0.00    +0.240 C 
ENDBRANCH  24  26
ENDBRANCH   6  24
TORSDOF 7
