REMARK  Name = ZINCpk00001AZjcz.0
REMARK                            x       y       z     vdW  Elec       q    Type
REMARK                         _______ _______ _______ _____ _____    ______ ____
ROOT
ATOM      1  N   LIG    1       -0.070   1.753  -0.167  0.00  0.00    -0.580 N 
ATOM      2  C   LIG    1       -1.299   2.157   0.212  0.00  0.00    +0.600 C 
ATOM      3  O   LIG    1       -2.259   1.432   0.035  0.00  0.00    -0.550 OA
ENDROOT
BRANCH   2   4
ATOM      4  C   LIG    1       -1.478   3.480   0.841  0.00  0.00    -0.090 A 
ATOM      5  C   LIG    1       -2.729   3.864   1.281  0.00  0.00    +0.380 A 
ATOM      6  N   LIG    1       -2.898   5.070   1.862  0.00  0.00    -0.480 N 
ATOM      7  C   LIG    1       -1.837   5.894   1.997  0.00  0.00    +0.480 A 
ATOM      8  C   LIG    1       -0.565   5.475   1.531  0.00  0.00    +0.230 A 
ATOM      9  O   LIG    1       -1.972   6.989   2.514  0.00  0.00    -0.510 OA
ATOM     10  C   LIG    1       -4.221   5.484   2.336  0.00  0.00    +0.330 C 
ATOM     11  N   LIG    1       -0.426   4.301   0.977  0.00  0.00    -0.350 NA
ENDBRANCH   2   4
BRANCH   1  12
ATOM     12  C   LIG    1        0.094   0.491  -0.893  0.00  0.00    +0.420 C 
BRANCH  12  17
ATOM     13  N   LIG    1       -0.611  -1.485   0.542  0.00  0.00    -0.360 N 
ATOM     14  N   LIG    1        0.045  -2.352   1.430  0.00  0.00    -0.320 NA
ATOM     15  C   LIG    1        1.297  -1.976   1.470  0.00  0.00    +0.410 A 
ATOM     16  N   LIG    1        1.461  -0.932   0.658  0.00  0.00    -0.530 NA
ATOM     17  C   LIG    1        0.322  -0.628   0.090  0.00  0.00    +0.250 A 
BRANCH  13  19
ATOM     18  C   LIG    1       -2.247  -2.518  -0.955  0.00  0.00    +0.030 C 
ATOM     19  C   LIG    1       -2.029  -1.511   0.176  0.00  0.00    +0.320 C 
ENDBRANCH  13  19
ENDBRANCH  12  17
ENDBRANCH   1  12
BRANCH   1  20
ATOM     20  C   LIG    1        1.100   2.578   0.141  0.00  0.00    +0.310 C 
BRANCH  20  21
ATOM     21  C   LIG    1        1.440   3.453  -1.067  0.00  0.00    -0.070 C 
ATOM     22  C   LIG    1        0.202   4.248  -1.486  0.00  0.00    +0.020 C 
ATOM     23  C   LIG    1        1.893   2.565  -2.228  0.00  0.00    +0.020 C 
BRANCH  21  24
ATOM     24  C   LIG    1        2.566   4.420  -0.696  0.00  0.00    +0.020 C 
ATOM     25  C   LIG    1        2.906   5.294  -1.904  0.00  0.00    +0.010 C 
ENDBRANCH  21  24
ENDBRANCH  20  21
ENDBRANCH   1  20
TORSDOF 7
