REMARK  Name = ZINCvU0000000Afr.0
REMARK                            x       y       z     vdW  Elec       q    Type
REMARK                         _______ _______ _______ _____ _____    ______ ____
ROOT
ATOM      1  C   LIG    1       -3.196   5.299   1.615  0.00  0.00    +0.110 A 
ATOM      2  C   LIG    1       -4.455   5.825   1.366  0.00  0.00    +0.050 A 
ATOM      3  C   LIG    1       -4.852   6.110   0.071  0.00  0.00    -0.030 A 
ATOM      4  C   LIG    1       -4.002   5.866  -0.990  0.00  0.00    +0.120 A 
ATOM      5  C   LIG    1       -2.739   5.330  -0.751  0.00  0.00    -0.100 A 
ATOM      6  C   LIG    1       -1.815   5.019  -1.863  0.00  0.00    +0.060 C 
ATOM      7  C   LIG    1       -0.757   4.255  -1.609  0.00  0.00    -0.010 C 
ATOM      8  C   LIG    1       -0.539   3.700  -0.228  0.00  0.00    +0.390 C 
ATOM      9  N   LIG    1        0.894   3.493   0.012  0.00  0.00    -0.550 N 
ATOM     10  C   LIG    1        1.142   2.151   0.245  0.00  0.00    +0.190 A 
ATOM     11  C   LIG    1        2.370   1.538   0.516  0.00  0.00    -0.030 A 
ATOM     12  C   LIG    1        2.365   0.167   0.716  0.00  0.00    +0.040 A 
ATOM     13  C   LIG    1        1.204  -0.575   0.652  0.00  0.00    -0.040 A 
ATOM     14  C   LIG    1       -0.022   0.022   0.384  0.00  0.00    +0.080 A 
ATOM     15  C   LIG    1       -0.028   1.390   0.183  0.00  0.00    -0.150 A 
ATOM     16  C   LIG    1       -1.179   2.306  -0.114  0.00  0.00    -0.040 C 
ATOM     17  C   LIG    1       -2.197   2.273   1.028  0.00  0.00    +0.050 C 
ATOM     18  C   LIG    1       -1.845   1.916  -1.436  0.00  0.00    +0.060 C 
ATOM     19  O   LIG    1       -1.083   4.559   0.770  0.00  0.00    -0.290 OA
ATOM     20  C   LIG    1       -2.330   5.057   0.558  0.00  0.00    +0.170 A 
ENDROOT
BRANCH   9  21
ATOM     21  C   LIG    1        1.863   4.500   0.004  0.00  0.00    +0.150 A 
ATOM     22  C   LIG    1        1.858   5.478   0.991  0.00  0.00    +0.020 A 
ATOM     23  C   LIG    1        2.821   6.468   0.984  0.00  0.00    +0.020 A 
ATOM     24  C   LIG    1        3.783   6.492  -0.009  0.00  0.00    +0.010 A 
ATOM     25  C   LIG    1        3.788   5.523  -0.996  0.00  0.00    +0.020 A 
ATOM     26  C   LIG    1        2.831   4.527  -0.992  0.00  0.00    +0.010 A 
ENDBRANCH   9  21
BRANCH   3  27
ATOM     27  N   LIG    1       -6.195   6.680  -0.179  0.00  0.00    +0.030 N 
ATOM     28  O   LIG    1       -6.548   6.932  -1.317  0.00  0.00    -0.150 OA
ATOM     29  O   LIG    1       -6.947   6.897   0.754  0.00  0.00    -0.160 OA
ENDBRANCH   3  27
BRANCH   1  31
ATOM     30  C   LIG    1       -3.756   5.298   3.926  0.00  0.00    +0.250 C 
ATOM     31  O   LIG    1       -2.812   5.022   2.890  0.00  0.00    -0.290 OA
ENDBRANCH   1  31
TORSDOF 3
