REMARK  Name = ZINCvU0000000J7j.0
REMARK                            x       y       z     vdW  Elec       q    Type
REMARK                         _______ _______ _______ _____ _____    ______ ____
ROOT
ATOM      1  C   LIG    1        5.654   4.539  -2.417  0.00  0.00    +0.360 A 
ATOM      2  N   LIG    1        6.102   4.394  -1.193  0.00  0.00    -0.500 NA
ATOM      3  C   LIG    1        7.376   4.028  -0.946  0.00  0.00    +0.090 A 
ATOM      4  C   LIG    1        8.245   3.796  -2.010  0.00  0.00    -0.230 A 
ATOM      5  C   LIG    1        9.570   3.412  -1.558  0.00  0.00    -0.030 A 
ATOM      6  C   LIG    1        9.712   3.353  -0.248  0.00  0.00    -0.200 A 
ATOM      7  C   LIG    1       10.993   2.979   0.452  0.00  0.00    +0.150 C 
ATOM      8  C   LIG    1       10.695   3.104  -2.511  0.00  0.00    +0.120 C 
ATOM      9  C   LIG    1        7.742   3.958  -3.335  0.00  0.00    +0.570 A 
ATOM     10  O   LIG    1        8.462   3.767  -4.299  0.00  0.00    -0.500 OA
ATOM     11  S   LIG    1        8.220   3.767   0.574  0.00  0.00    +0.200 S 
ATOM     12  N   LIG    1        6.455   4.320  -3.503  0.00  0.00    -0.470 N 
ENDROOT
BRANCH  12  13
ATOM     13  C   LIG    1        5.938   4.480  -4.796  0.00  0.00    +0.080 A 
ATOM     14  C   LIG    1        5.350   3.404  -5.447  0.00  0.00    +0.080 A 
ATOM     15  C   LIG    1        4.836   3.565  -6.719  0.00  0.00    +0.010 A 
ATOM     16  C   LIG    1        4.916   4.795  -7.349  0.00  0.00    +0.130 A 
ATOM     17  C   LIG    1        5.507   5.868  -6.703  0.00  0.00    +0.010 A 
ATOM     18  F   LIG    1        4.417   4.949  -8.595  0.00  0.00    -0.130 F 
ATOM     19  C   LIG    1        6.018   5.713  -5.429  0.00  0.00    +0.080 A 
ENDBRANCH  12  13
BRANCH   1  20
ATOM     20  S   LIG    1        3.977   5.019  -2.668  0.00  0.00    +0.100 S 
BRANCH  20  21
ATOM     21  C   LIG    1        3.402   5.061  -0.952  0.00  0.00    +0.010 C 
BRANCH  21  24
ATOM     22  N   LIG    1        1.593   6.264   0.231  0.00  0.00    -0.710 N 
ATOM     23  H   LIG    1        2.170   6.300   1.010  0.00  0.00    +0.400 HD
ATOM     24  C   LIG    1        2.024   5.669  -0.899  0.00  0.00    +0.540 C 
ATOM     25  O   LIG    1        1.303   5.623  -1.873  0.00  0.00    -0.520 OA
BRANCH  22  26
ATOM     26  C   LIG    1        0.254   6.854   0.282  0.00  0.00    +0.230 C 
ATOM     27  C   LIG    1       -0.768   5.772   0.637  0.00  0.00    +0.020 C 
BRANCH  26  29
ATOM     28  C   LIG    1        1.151   9.095   0.929  0.00  0.00    +0.020 C 
ATOM     29  C   LIG    1        0.222   7.954   1.346  0.00  0.00    +0.020 C 
ENDBRANCH  26  29
ENDBRANCH  22  26
ENDBRANCH  21  24
BRANCH  21  30
ATOM     30  C   LIG    1        3.353   3.637  -0.396  0.00  0.00    +0.020 C 
ATOM     31  C   LIG    1        2.288   2.833  -1.145  0.00  0.00    +0.030 C 
ATOM     32  C   LIG    1        3.004   3.683   1.093  0.00  0.00    +0.040 C 
ENDBRANCH  21  30
ENDBRANCH  20  21
ENDBRANCH   1  20
TORSDOF 7
