REMARK  Name = ZINCpk00000kNbcA.1
REMARK                            x       y       z     vdW  Elec       q    Type
REMARK                         _______ _______ _______ _____ _____    ______ ____
ROOT
ATOM      1  C   LIG    1       -5.267   2.252  -2.330  0.00  0.00    -0.130 A 
ATOM      2  C   LIG    1       -4.582   1.528  -1.431  0.00  0.00    +0.060 A 
ATOM      3  C   LIG    1       -3.388   2.090  -0.999  0.00  0.00    -0.130 A 
ATOM      4  C   LIG    1       -3.108   3.281  -1.564  0.00  0.00    -0.160 A 
ATOM      5  C   LIG    1       -1.871   4.108  -1.283  0.00  0.00    +0.110 C 
ATOM      6  C   LIG    1       -1.237   3.631   0.034  0.00  0.00    +0.310 C 
ATOM      7  N   LIG    1       -1.195   2.161   0.019  0.00  0.00    -0.610 N 
ATOM      8  C   LIG    1       -0.018   1.503   0.010  0.00  0.00    +0.540 C 
ATOM      9  O   LIG    1        1.024   2.123   0.004  0.00  0.00    -0.520 OA
ATOM     10  C   LIG    1       -2.469   1.428   0.021  0.00  0.00    +0.360 C 
ATOM     11  S   LIG    1       -4.390   3.734  -2.680  0.00  0.00    +0.140 S 
ENDROOT
BRANCH   8  12
ATOM     12  C   LIG    1        0.002  -0.004   0.002  0.00  0.00    +0.030 C 
ATOM     13  C   LIG    1       -0.769  -0.521   1.233  0.00  0.00    -0.290 C 
ATOM     14  S   LIG    1        0.154  -2.046   1.683  0.00  0.00    +2.380 S 
ATOM     15  C   LIG    1        1.790  -1.361   1.204  0.00  0.00    -0.330 C 
ATOM     16  O   LIG    1        0.106  -2.241   3.090  0.00  0.00    -0.930 OA
ATOM     17  O   LIG    1       -0.203  -3.103   0.802  0.00  0.00    -0.920 OA
ATOM     18  C   LIG    1        1.450  -0.479  -0.014  0.00  0.00    +0.240 C 
BRANCH  18  19
ATOM     19  N   LIG    1        1.684  -1.254  -1.240  0.00  0.00    -0.840 NA
ATOM     20  H   LIG    1        1.031  -2.020  -1.313  0.00  0.00    +0.350 HD
ATOM     21  H   LIG    1        2.636  -1.584  -1.283  0.00  0.00    +0.360 HD
ENDBRANCH  18  19
ENDBRANCH   8  12
BRANCH   1  25
ATOM     22  C   LIG    1       -9.154  -0.723  -3.021  0.00  0.00    +0.180 C 
ATOM     23  C   LIG    1       -8.305   0.504  -3.229  0.00  0.00    +0.060 A 
ATOM     24  N   LIG    1       -7.181   0.728  -2.640  0.00  0.00    -0.460 NA
ATOM     25  C   LIG    1       -6.561   1.863  -2.933  0.00  0.00    +0.140 A 
ATOM     26  C   LIG    1       -7.212   2.628  -3.835  0.00  0.00    -0.080 A 
ATOM     27  S   LIG    1       -8.695   1.791  -4.284  0.00  0.00    +0.150 S 
ENDBRANCH   1  25
TORSDOF 3
