REMARK  Name = ZINCpk00000KfLMh.0
REMARK                            x       y       z     vdW  Elec       q    Type
REMARK                         _______ _______ _______ _____ _____    ______ ____
ROOT
ATOM      1  N   LIG    1        4.177  -0.106  -2.685  0.00  0.00    -0.540 NA
ATOM      2  C   LIG    1        4.032   1.356  -2.705  0.00  0.00    +0.190 C 
ATOM      3  C   LIG    1        3.336   1.814  -1.421  0.00  0.00    +0.180 C 
ATOM      4  N   LIG    1        2.025   1.159  -1.316  0.00  0.00    -0.530 NA
ATOM      5  C   LIG    1        2.171  -0.303  -1.296  0.00  0.00    +0.170 C 
ATOM      6  C   LIG    1        2.866  -0.762  -2.580  0.00  0.00    +0.180 C 
ENDROOT
BRANCH   1   7
ATOM      7  C   LIG    1        4.909  -0.579  -3.868  0.00  0.00    +0.210 C 
BRANCH   7   8
ATOM      8  C   LIG    1        4.956  -2.108  -3.861  0.00  0.00    +0.130 C 
BRANCH   8   9
ATOM      9  C   LIG    1        5.684  -2.571  -2.669  0.00  0.00    +0.210 C 
ATOM     10  N   LIG    1        6.246  -2.929  -1.749  0.00  0.00    -0.420 NA
ENDBRANCH   8   9
BRANCH   8  11
ATOM     11  C   LIG    1        5.672  -2.601  -5.120  0.00  0.00    +0.080 C 
BRANCH  11  12
ATOM     12  C   LIG    1        5.610  -4.129  -5.176  0.00  0.00    +0.200 C 
BRANCH  12  14
ATOM     13  N   LIG    1        6.831  -4.970  -7.322  0.00  0.00    -0.430 NA
ATOM     14  C   LIG    1        6.299  -4.604  -6.388  0.00  0.00    +0.200 C 
ENDBRANCH  12  14
ENDBRANCH  11  12
ENDBRANCH   8  11
ENDBRANCH   7   8
ENDBRANCH   1   7
BRANCH   4  15
ATOM     15  C   LIG    1        1.293   1.631  -0.133  0.00  0.00    +0.160 C 
BRANCH  15  16
ATOM     16  C   LIG    1       -0.149   1.124  -0.190  0.00  0.00    +0.230 C 
BRANCH  16  17
ATOM     17  O   LIG    1       -0.782   1.620  -1.371  0.00  0.00    -0.540 OA
ATOM     18  H   LIG    1       -0.817   2.585  -1.423  0.00  0.00    +0.370 HD
ENDBRANCH  16  17
BRANCH  16  19
ATOM     19  C   LIG    1       -0.911   1.616   1.043  0.00  0.00    +0.170 C 
BRANCH  19  20
ATOM     20  O   LIG    1       -2.223   1.048   1.050  0.00  0.00    -0.300 OA
BRANCH  20  21
ATOM     21  C   LIG    1       -3.036   1.386   2.085  0.00  0.00    +0.130 A 
ATOM     22  C   LIG    1       -2.579   2.242   3.076  0.00  0.00    -0.080 A 
ATOM     23  C   LIG    1       -3.409   2.588   4.125  0.00  0.00    +0.040 A 
ATOM     24  C   LIG    1       -4.691   2.074   4.192  0.00  0.00    -0.040 A 
ATOM     25  C   LIG    1       -5.147   1.216   3.208  0.00  0.00    +0.050 A 
ATOM     26  C   LIG    1       -4.322   0.871   2.155  0.00  0.00    -0.020 A 
ENDBRANCH  20  21
ENDBRANCH  19  20
ENDBRANCH  16  19
ENDBRANCH  15  16
ENDBRANCH   4  15
TORSDOF 12
