REMARK  Name = ZINCqH0000001LTp.0
REMARK                            x       y       z     vdW  Elec       q    Type
REMARK                         _______ _______ _______ _____ _____    ______ ____
ROOT
ATOM      1  N   LIG    1        1.143   1.898   0.001  0.00  0.00    -0.710 N 
ATOM      2  H   LIG    1        1.130   2.868   0.007  0.00  0.00    +0.400 HD
ATOM      3  C   LIG    1       -0.014   1.209   0.009  0.00  0.00    +0.540 C 
ATOM      4  O   LIG    1        0.002  -0.004   0.002  0.00  0.00    -0.520 OA
ENDROOT
BRANCH   1   5
ATOM      5  C   LIG    1        2.422   1.183  -0.015  0.00  0.00    +0.290 C 
BRANCH   5   9
ATOM      6  C   LIG    1        5.463   3.664   1.671  0.00  0.00    -0.070 A 
ATOM      7  C   LIG    1        5.437   2.312   1.958  0.00  0.00    +0.010 A 
ATOM      8  C   LIG    1        4.453   1.509   1.412  0.00  0.00    +0.020 A 
ATOM      9  C   LIG    1        3.495   2.058   0.580  0.00  0.00    -0.100 A 
ATOM     10  C   LIG    1        3.524   3.410   0.290  0.00  0.00    +0.010 A 
ATOM     11  C   LIG    1        4.506   4.213   0.839  0.00  0.00    +0.010 A 
BRANCH   6  13
ATOM     12  C   LIG    1        7.349   5.185   1.141  0.00  0.00    +0.030 C 
ATOM     13  C   LIG    1        6.536   4.540   2.266  0.00  0.00    +0.020 C 
ATOM     14  C   LIG    1        5.889   5.632   3.119  0.00  0.00    +0.030 C 
ENDBRANCH   6  13
ENDBRANCH   5   9
BRANCH   5  15
ATOM     15  C   LIG    1        2.792   0.832  -1.457  0.00  0.00    -0.030 C 
ATOM     16  C   LIG    1        1.703  -0.057  -2.061  0.00  0.00    +0.030 C 
ATOM     17  C   LIG    1        4.127   0.085  -1.474  0.00  0.00    +0.030 C 
ENDBRANCH   5  15
ENDBRANCH   1   5
BRANCH   3  18
ATOM     18  C   LIG    1       -1.330   1.944   0.019  0.00  0.00    +0.100 C 
BRANCH  18  19
ATOM     19  S   LIG    1       -2.689   0.750   0.019  0.00  0.00    +0.120 S 
BRANCH  19  20
ATOM     20  C   LIG    1       -4.064   1.851   0.031  0.00  0.00    +0.200 A 
ATOM     21  N   LIG    1       -4.013   3.165   0.038  0.00  0.00    -0.340 NA
ATOM     22  N   LIG    1       -5.197   3.662   0.046  0.00  0.00    -0.030 NA
ATOM     23  N   LIG    1       -6.078   2.720   0.046  0.00  0.00    -0.080 NA
ATOM     24  N   LIG    1       -5.373   1.504   0.030  0.00  0.00    -0.330 N 
BRANCH  24  25
ATOM     25  C   LIG    1       -5.934   0.151   0.018  0.00  0.00    +0.210 C 
ATOM     26  C   LIG    1       -7.445   0.014  -0.184  0.00  0.00    +0.090 C 
ATOM     27  C   LIG    1       -6.830  -0.253   1.191  0.00  0.00    +0.070 C 
ENDBRANCH  24  25
ENDBRANCH  19  20
ENDBRANCH  18  19
ENDBRANCH   3  18
TORSDOF 8
