REMARK  Name = ZINCpe00000Rb9CY.0
REMARK                            x       y       z     vdW  Elec       q    Type
REMARK                         _______ _______ _______ _____ _____    ______ ____
ROOT
ATOM      1  C   LIG    1       -0.562   1.816  -1.453  0.00  0.00    +0.230 C 
ATOM      2  C   LIG    1        0.001   1.106  -0.221  0.00  0.00    +0.010 C 
ATOM      3  C   LIG    1       -0.888   1.399   0.990  0.00  0.00    +0.020 C 
ATOM      4  C   LIG    1       -0.893   2.906   1.262  0.00  0.00    +0.290 C 
ATOM      5  N   LIG    1       -1.296   3.606   0.034  0.00  0.00    -0.570 N 
ATOM      6  C   LIG    1       -0.564   3.329  -1.210  0.00  0.00    +0.300 C 
ENDROOT
BRANCH   5   7
ATOM      7  C   LIG    1       -2.347   4.513   0.049  0.00  0.00    +0.350 A 
ATOM      8  N   LIG    1       -2.798   5.030  -1.074  0.00  0.00    -0.510 NA
ATOM      9  C   LIG    1       -3.810   5.897  -1.067  0.00  0.00    +0.190 A 
ATOM     10  C   LIG    1       -4.403   6.287   0.081  0.00  0.00    +0.170 A 
ATOM     11  N   LIG    1       -3.987   5.799   1.285  0.00  0.00    -0.590 N 
ATOM     12  H   LIG    1       -4.418   6.084   2.106  0.00  0.00    +0.420 HD
ATOM     13  C   LIG    1       -2.966   4.913   1.318  0.00  0.00    +0.490 A 
ATOM     14  O   LIG    1       -2.569   4.458   2.377  0.00  0.00    -0.520 OA
ENDBRANCH   5   7
BRANCH   1  17
ATOM     15  O   LIG    1       -0.838  -0.377  -2.999  0.00  0.00    -0.530 OA
ATOM     16  C   LIG    1        0.052   0.384  -3.327  0.00  0.00    +0.570 C 
ATOM     17  N   LIG    1        0.271   1.510  -2.618  0.00  0.00    -0.720 N 
ATOM     18  H   LIG    1        0.981   2.117  -2.880  0.00  0.00    +0.400 HD
BRANCH  16  19
ATOM     19  C   LIG    1        0.892   0.075  -4.500  0.00  0.00    -0.130 A 
ATOM     20  C   LIG    1        1.914   0.948  -4.879  0.00  0.00    +0.070 A 
ATOM     21  C   LIG    1        2.698   0.658  -5.974  0.00  0.00    +0.030 A 
ATOM     22  C   LIG    1        2.475  -0.501  -6.706  0.00  0.00    +0.060 A 
ATOM     23  O   LIG    1        3.099  -1.005  -7.808  0.00  0.00    -0.300 OA
ATOM     24  C   LIG    1        2.723  -2.393  -7.864  0.00  0.00    +0.440 C 
ATOM     25  O   LIG    1        1.443  -2.428  -7.205  0.00  0.00    -0.300 OA
ATOM     26  C   LIG    1        1.454  -1.377  -6.333  0.00  0.00    +0.020 A 
ATOM     27  C   LIG    1        0.669  -1.094  -5.233  0.00  0.00    +0.110 A 
ENDBRANCH  16  19
ENDBRANCH   1  17
TORSDOF 3
