REMARK  Name = ZINCvU0000000AfD.0
REMARK                            x       y       z     vdW  Elec       q    Type
REMARK                         _______ _______ _______ _____ _____    ______ ____
ROOT
ATOM      1  C   LIG    1       -7.292   3.851  -0.341  0.00  0.00    +0.140 A 
ATOM      2  C   LIG    1       -7.292   5.241  -0.321  0.00  0.00    +0.020 A 
ATOM      3  C   LIG    1       -6.100   5.935  -0.230  0.00  0.00    +0.040 A 
ATOM      4  C   LIG    1       -4.902   5.254  -0.158  0.00  0.00    +0.030 A 
ATOM      5  C   LIG    1       -4.891   3.857  -0.178  0.00  0.00    -0.120 A 
ATOM      6  C   LIG    1       -6.093   3.157  -0.276  0.00  0.00    +0.100 A 
ENDROOT
BRANCH   1   8
ATOM      7  C   LIG    1       -8.655   1.984   0.220  0.00  0.00    +0.560 C 
ATOM      8  N   LIG    1       -8.500   3.153  -0.433  0.00  0.00    -0.670 N 
ATOM      9  H   LIG    1       -9.227   3.510  -0.966  0.00  0.00    +0.410 HD
ATOM     10  O   LIG    1       -7.718   1.494   0.820  0.00  0.00    -0.510 OA
BRANCH   7  14
ATOM     11  C   LIG    1      -12.416   0.012   0.183  0.00  0.00    -0.060 A 
ATOM     12  C   LIG    1      -11.352  -0.548   0.867  0.00  0.00    +0.030 A 
ATOM     13  C   LIG    1      -10.127   0.087   0.882  0.00  0.00    +0.080 A 
ATOM     14  C   LIG    1       -9.964   1.298   0.207  0.00  0.00    -0.130 A 
ATOM     15  C   LIG    1      -11.044   1.860  -0.475  0.00  0.00    +0.040 A 
ATOM     16  C   LIG    1      -12.261   1.212  -0.488  0.00  0.00    +0.030 A 
BRANCH  11  17
ATOM     17  C   LIG    1      -13.751  -0.688   0.170  0.00  0.00    +0.220 C 
BRANCH  17  19
ATOM     18  C   LIG    1      -15.826  -0.846   1.359  0.00  0.00    +0.200 C 
ATOM     19  O   LIG    1      -14.535  -0.240   1.278  0.00  0.00    -0.380 OA
ENDBRANCH  17  19
ENDBRANCH  11  17
ENDBRANCH   7  14
ENDBRANCH   1   8
BRANCH   5  20
ATOM     20  C   LIG    1       -3.610   3.125  -0.101  0.00  0.00    +0.560 C 
ATOM     21  N   LIG    1       -2.449   3.804  -0.012  0.00  0.00    -0.670 N 
ATOM     22  H   LIG    1       -2.458   4.770   0.076  0.00  0.00    +0.410 HD
ATOM     23  O   LIG    1       -3.603   1.909  -0.118  0.00  0.00    -0.500 OA
BRANCH  21  24
ATOM     24  C   LIG    1       -1.232   3.116  -0.047  0.00  0.00    +0.150 A 
ATOM     25  C   LIG    1       -0.150   3.580   0.689  0.00  0.00    +0.030 A 
ATOM     26  C   LIG    1        1.053   2.901   0.648  0.00  0.00    +0.040 A 
ATOM     27  C   LIG    1        1.176   1.756  -0.116  0.00  0.00    +0.050 A 
ATOM     28  C   LIG    1        0.099   1.289  -0.847  0.00  0.00    -0.160 A 
ATOM     29  C   LIG    1       -1.105   1.966  -0.815  0.00  0.00    +0.080 A 
BRANCH  28  30
ATOM     30  C   LIG    1        0.238   0.041  -1.679  0.00  0.00    +0.510 C 
ATOM     31  F   LIG    1       -0.015   0.344  -3.022  0.00  0.00    -0.180 F 
ATOM     32  F   LIG    1       -0.678  -0.919  -1.237  0.00  0.00    -0.170 F 
ATOM     33  F   LIG    1        1.538  -0.462  -1.552  0.00  0.00    -0.180 F 
ENDBRANCH  28  30
ENDBRANCH  21  24
ENDBRANCH   5  20
TORSDOF 7
