REMARK  Name = ZINCpe00000VVGqQ.0
REMARK                            x       y       z     vdW  Elec       q    Type
REMARK                         _______ _______ _______ _____ _____    ______ ____
ROOT
ATOM      1  N   LIG    1        0.526   2.310   1.072  0.00  0.00    -0.750 N 
ATOM      2  H   LIG    1        1.284   2.914   1.112  0.00  0.00    +0.400 HD
ATOM      3  C   LIG    1       -0.716   2.799   0.887  0.00  0.00    +0.710 C 
ATOM      4  N   LIG    1       -0.905   4.128   0.762  0.00  0.00    -0.740 N 
ATOM      5  H   LIG    1       -0.148   4.732   0.805  0.00  0.00    +0.400 HD
ATOM      6  O   LIG    1       -1.665   2.042   0.832  0.00  0.00    -0.590 OA
ENDROOT
BRANCH   4   7
ATOM      7  C   LIG    1       -2.256   4.659   0.560  0.00  0.00    +0.260 C 
ATOM      8  C   LIG    1       -2.603   4.617  -0.930  0.00  0.00    +0.010 C 
ATOM      9  C   LIG    1       -4.028   5.141  -1.133  0.00  0.00    +0.290 C 
ATOM     10  N   LIG    1       -4.132   6.475  -0.527  0.00  0.00    -1.000 NA
ATOM     11  C   LIG    1       -3.736   6.646   0.878  0.00  0.00    +0.290 C 
ATOM     12  C   LIG    1       -2.314   6.105   1.058  0.00  0.00    +0.020 C 
BRANCH  10  13
ATOM     13  S   LIG    1       -4.686   7.762  -1.410  0.00  0.00    +2.610 S 
ATOM     14  O   LIG    1       -4.505   7.363  -2.761  0.00  0.00    -0.950 OA
ATOM     15  O   LIG    1       -3.988   8.879  -0.876  0.00  0.00    -0.950 OA
BRANCH  13  16
ATOM     16  C   LIG    1       -6.451   7.862  -1.006  0.00  0.00    -0.460 C 
ATOM     17  C   LIG    1       -7.138   6.551  -1.394  0.00  0.00    +0.080 C 
ATOM     18  C   LIG    1       -7.087   9.020  -1.779  0.00  0.00    +0.070 C 
ENDBRANCH  13  16
ENDBRANCH  10  13
ENDBRANCH   4   7
BRANCH   1  19
ATOM     19  C   LIG    1        0.732   0.866   1.208  0.00  0.00    +0.290 C 
BRANCH  19  20
ATOM     20  C   LIG    1        2.223   0.580   1.401  0.00  0.00    +0.100 C 
BRANCH  20  26
ATOM     21  C   LIG    1        2.755  -3.382   4.233  0.00  0.00    +0.140 C 
ATOM     22  C   LIG    1        2.684  -2.757   2.863  0.00  0.00    +0.090 A 
ATOM     23  C   LIG    1        2.813  -3.546   1.735  0.00  0.00    +0.220 A 
ATOM     24  N   LIG    1        2.751  -2.998   0.534  0.00  0.00    -0.430 NA
ATOM     25  C   LIG    1        2.564  -1.696   0.411  0.00  0.00    +0.220 A 
ATOM     26  C   LIG    1        2.435  -0.906   1.540  0.00  0.00    +0.090 A 
ATOM     27  N   LIG    1        2.502  -1.454   2.741  0.00  0.00    -0.440 NA
ENDBRANCH  20  26
ENDBRANCH  19  20
ENDBRANCH   1  19
TORSDOF 6
