REMARK  Name = ZINCqH00000512uF.0
REMARK                            x       y       z     vdW  Elec       q    Type
REMARK                         _______ _______ _______ _____ _____    ______ ____
ROOT
ATOM      1  C   LIG    1        2.147  -5.938   0.098  0.00  0.00    +0.480 C 
ATOM      2  O   LIG    1        3.352  -5.843   0.085  0.00  0.00    -0.490 OA
ENDROOT
BRANCH   1   3
ATOM      3  C   LIG    1        1.497  -7.289  -0.052  0.00  0.00    -0.010 C 
ATOM      4  C   LIG    1        0.685  -7.627   1.211  0.00  0.00    +0.060 C 
ATOM      5  C   LIG    1        1.302  -8.916   1.797  0.00  0.00    +0.010 C 
ATOM      6  C   LIG    1        2.750  -8.928   1.249  0.00  0.00    +0.020 C 
ATOM      7  C   LIG    1        2.576  -8.383  -0.190  0.00  0.00    +0.070 C 
BRANCH   3   8
ATOM      8  C   LIG    1        0.597  -7.296  -1.261  0.00  0.00    -0.050 A 
ATOM      9  C   LIG    1       -0.200  -8.395  -1.523  0.00  0.00    +0.020 A 
ATOM     10  C   LIG    1       -1.031  -8.400  -2.628  0.00  0.00    +0.060 A 
ATOM     11  C   LIG    1       -1.056  -7.312  -3.479  0.00  0.00    -0.010 A 
ATOM     12  C   LIG    1       -0.254  -6.213  -3.221  0.00  0.00    +0.110 A 
ATOM     13  F   LIG    1       -0.278  -5.148  -4.052  0.00  0.00    -0.140 F 
ATOM     14  C   LIG    1        0.573  -6.206  -2.111  0.00  0.00    -0.020 A 
ENDBRANCH   3   8
ENDBRANCH   1   3
BRANCH   1  15
ATOM     15  O   LIG    1        1.389  -4.841   0.248  0.00  0.00    -0.330 OA
BRANCH  15  16
ATOM     16  C   LIG    1        2.084  -3.574   0.388  0.00  0.00    +0.270 C 
BRANCH  16  19
ATOM     17  N   LIG    1        1.495  -1.190   0.690  0.00  0.00    -0.630 N 
ATOM     18  H   LIG    1        2.443  -0.989   0.695  0.00  0.00    +0.420 HD
ATOM     19  C   LIG    1        1.077  -2.463   0.544  0.00  0.00    +0.510 C 
ATOM     20  O   LIG    1       -0.110  -2.715   0.538  0.00  0.00    -0.470 OA
BRANCH  17  22
ATOM     21  C   LIG    1        0.885   1.156   0.988  0.00  0.00    -0.120 A 
ATOM     22  C   LIG    1        0.567  -0.168   0.834  0.00  0.00    +0.050 A 
ATOM     23  S   LIG    1       -1.123  -0.387   0.842  0.00  0.00    +0.320 S 
ATOM     24  C   LIG    1       -1.422   1.329   1.057  0.00  0.00    -0.100 A 
ATOM     25  C   LIG    1       -0.281   2.002   1.115  0.00  0.00    +0.080 A 
BRANCH  21  27
ATOM     26  N   LIG    1        3.295   2.041   1.046  0.00  0.00    -0.420 NA
ATOM     27  C   LIG    1        2.229   1.649   1.020  0.00  0.00    +0.270 C 
ENDBRANCH  21  27
ENDBRANCH  17  22
ENDBRANCH  16  19
ENDBRANCH  15  16
ENDBRANCH   1  15
TORSDOF 7
