REMARK  Name = ZINCrH000004q4NF.1
REMARK                            x       y       z     vdW  Elec       q    Type
REMARK                         _______ _______ _______ _____ _____    ______ ____
ROOT
ATOM      1  C   LIG    1       -0.013   1.086   0.008  0.00  0.00    +0.180 C 
ATOM      2  C   LIG    1       -0.718   1.572   1.248  0.00  0.00    +0.200 A 
ATOM      3  C   LIG    1       -0.135   1.836   2.434  0.00  0.00    -0.310 A 
ATOM      4  C   LIG    1       -1.139   2.268   3.332  0.00  0.00    +0.540 A 
ATOM      5  N   LIG    1       -2.313   2.255   2.667  0.00  0.00    -0.360 N 
ATOM      6  O   LIG    1       -0.975   2.591   4.494  0.00  0.00    -0.520 OA
ATOM      7  N   LIG    1       -2.056   1.825   1.358  0.00  0.00    -0.500 N 
ATOM      8  H   LIG    1       -2.715   1.723   0.653  0.00  0.00    +0.440 HD
ENDROOT
BRANCH   5   9
ATOM      9  C   LIG    1       -3.562   2.613   3.189  0.00  0.00    +0.160 A 
ATOM     10  C   LIG    1       -3.671   3.023   4.511  0.00  0.00    +0.060 A 
ATOM     11  C   LIG    1       -4.903   3.380   5.022  0.00  0.00    +0.030 A 
ATOM     12  C   LIG    1       -6.030   3.320   4.221  0.00  0.00    +0.080 A 
ATOM     13  C   LIG    1       -5.925   2.905   2.903  0.00  0.00    +0.020 A 
ATOM     14  F   LIG    1       -7.236   3.664   4.724  0.00  0.00    -0.140 F 
ATOM     15  C   LIG    1       -4.693   2.552   2.386  0.00  0.00    +0.000 A 
ENDBRANCH   5   9
BRANCH   3  16
ATOM     16  C   LIG    1        1.332   1.696   2.750  0.00  0.00    +0.150 C 
BRANCH  16  17
ATOM     17  C   LIG    1        2.025   3.047   2.564  0.00  0.00    +0.040 C 
BRANCH  17  18
ATOM     18  C   LIG    1        3.492   2.907   2.880  0.00  0.00    +0.510 C 
ATOM     19  N   LIG    1        4.307   3.977   2.784  0.00  0.00    -0.730 N 
ATOM     20  H   LIG    1        3.949   4.836   2.512  0.00  0.00    +0.400 HD
ATOM     21  O   LIG    1        3.939   1.833   3.219  0.00  0.00    -0.540 OA
BRANCH  19  22
ATOM     22  C   LIG    1        5.733   3.841   3.091  0.00  0.00    +0.240 C 
ATOM     23  C   LIG    1        5.948   3.996   4.598  0.00  0.00    +0.000 C 
ATOM     24  C   LIG    1        7.335   3.470   4.971  0.00  0.00    +0.010 C 
ATOM     25  C   LIG    1        7.591   2.145   4.252  0.00  0.00    +0.010 C 
ATOM     26  C   LIG    1        8.710   2.329   3.224  0.00  0.00    +0.000 C 
ATOM     27  C   LIG    1        8.162   3.072   2.004  0.00  0.00    +0.000 C 
ATOM     28  C   LIG    1        8.005   4.557   2.338  0.00  0.00    +0.020 C 
ATOM     29  C   LIG    1        6.520   4.923   2.349  0.00  0.00    +0.010 C 
ENDBRANCH  19  22
ENDBRANCH  17  18
ENDBRANCH  16  17
ENDBRANCH   3  16
TORSDOF 5
