REMARK  Name = ZINCtV00000L6jj2.0
REMARK                            x       y       z     vdW  Elec       q    Type
REMARK                         _______ _______ _______ _____ _____    ______ ____
ROOT
ATOM      1  C   LIG    1        3.732   1.454  -0.695  0.00  0.00    +0.020 C 
ATOM      2  C   LIG    1        4.472   0.948   0.544  0.00  0.00    +0.090 C 
ENDROOT
BRANCH   1   3
ATOM      3  C   LIG    1        2.318   0.933  -0.685  0.00  0.00    +0.540 C 
ATOM      4  N   LIG    1        1.362   1.593  -0.002  0.00  0.00    -0.720 N 
ATOM      5  H   LIG    1        1.583   2.404   0.482  0.00  0.00    +0.400 HD
ATOM      6  O   LIG    1        2.042  -0.081  -1.290  0.00  0.00    -0.520 OA
BRANCH   4   7
ATOM      7  C   LIG    1       -0.013   1.086   0.008  0.00  0.00    +0.290 C 
ATOM      8  C   LIG    1       -0.753   1.593  -1.232  0.00  0.00    +0.040 C 
BRANCH   7   9
ATOM      9  C   LIG    1       -0.718   1.572   1.248  0.00  0.00    -0.080 A 
ATOM     10  C   LIG    1       -0.292   2.726   1.878  0.00  0.00    +0.050 A 
ATOM     11  C   LIG    1       -0.942   3.175   3.012  0.00  0.00    +0.040 A 
ATOM     12  C   LIG    1       -2.013   2.464   3.524  0.00  0.00    -0.020 A 
ATOM     13  C   LIG    1       -2.436   1.306   2.897  0.00  0.00    +0.050 A 
ATOM     14 CL   LIG    1       -2.825   3.025   4.952  0.00  0.00    -0.050 Cl
ATOM     15  C   LIG    1       -1.789   0.859   1.759  0.00  0.00    -0.020 A 
ATOM     16 CL   LIG    1       -2.320  -0.594   0.971  0.00  0.00    -0.040 Cl
ENDBRANCH   7   9
ENDBRANCH   4   7
ENDBRANCH   1   3
BRANCH   1  17
ATOM     17  S   LIG    1        4.579   0.871  -2.184  0.00  0.00    +0.020 S 
BRANCH  17  24
ATOM     18  C   LIG    1       11.127   5.318  -0.316  0.00  0.00    +0.090 C 
ATOM     19  C   LIG    1        9.838   4.561  -0.505  0.00  0.00    -0.080 A 
ATOM     20  C   LIG    1        9.684   3.757  -1.594  0.00  0.00    +0.030 A 
ATOM     21  C   LIG    1        8.484   3.051  -1.772  0.00  0.00    -0.100 A 
ATOM     22  C   LIG    1        8.289   2.210  -2.886  0.00  0.00    -0.010 A 
ATOM     23  C   LIG    1        7.100   1.554  -3.000  0.00  0.00    -0.020 A 
ATOM     24  C   LIG    1        6.111   1.727  -2.021  0.00  0.00    +0.140 A 
ATOM     25  N   LIG    1        6.298   2.519  -0.984  0.00  0.00    -0.480 NA
ATOM     26  C   LIG    1        9.367   2.040  -3.925  0.00  0.00    +0.120 C 
ATOM     27  C   LIG    1        7.446   3.184  -0.818  0.00  0.00    +0.140 A 
ATOM     28  C   LIG    1        7.642   4.023   0.293  0.00  0.00    -0.060 A 
ATOM     29  C   LIG    1        6.553   4.181   1.323  0.00  0.00    +0.110 C 
ATOM     30  C   LIG    1        8.819   4.693   0.435  0.00  0.00    +0.030 A 
ENDBRANCH  17  24
ENDBRANCH   1  17
TORSDOF 5
