REMARK  Name = ZINCvU0000000C2Z.0
REMARK                            x       y       z     vdW  Elec       q    Type
REMARK                         _______ _______ _______ _____ _____    ______ ____
ROOT
ATOM      1  C   LIG    1        1.888   3.831   0.890  0.00  0.00    -0.360 A 
ATOM      2  C   LIG    1        0.887   3.260   0.130  0.00  0.00    +0.260 A 
ATOM      3  N   LIG    1        0.222   4.129  -0.603  0.00  0.00    -0.530 NA
ATOM      4  C   LIG    1        0.584   5.374  -0.525  0.00  0.00    +0.330 A 
ATOM      5  S   LIG    1        1.890   5.561   0.560  0.00  0.00    +0.180 S 
ENDROOT
BRANCH   2   6
ATOM      6  C   LIG    1        0.586   1.810   0.143  0.00  0.00    -0.040 A 
ATOM      7  C   LIG    1        0.482   1.127   1.355  0.00  0.00    +0.080 A 
ATOM      8  C   LIG    1        0.201  -0.224   1.360  0.00  0.00    -0.010 A 
ATOM      9  C   LIG    1        0.022  -0.901   0.167  0.00  0.00    +0.020 A 
ATOM     10  C   LIG    1        0.124  -0.229  -1.038  0.00  0.00    -0.010 A 
ATOM     11  C   LIG    1        0.405   1.122  -1.056  0.00  0.00    +0.040 A 
ENDBRANCH   2   6
BRANCH   1  13
ATOM     12  O   LIG    1        2.745   1.930   1.823  0.00  0.00    -0.500 OA
ATOM     13  C   LIG    1        2.759   3.147   1.773  0.00  0.00    +0.600 C 
ATOM     14  N   LIG    1        3.604   3.844   2.559  0.00  0.00    -0.670 N 
ATOM     15  H   LIG    1        3.563   4.813   2.576  0.00  0.00    +0.410 HD
BRANCH  14  16
ATOM     16  C   LIG    1        4.541   3.168   3.351  0.00  0.00    +0.160 A 
ATOM     17  C   LIG    1        4.919   3.693   4.580  0.00  0.00    +0.000 A 
ATOM     18  C   LIG    1        5.840   3.025   5.364  0.00  0.00    +0.050 A 
ATOM     19  C   LIG    1        6.397   1.835   4.921  0.00  0.00    +0.030 A 
ATOM     20  O   LIG    1        7.310   1.195   5.704  0.00  0.00    -0.310 OA
ATOM     21  C   LIG    1        7.566  -0.181   5.400  0.00  0.00    +0.220 C 
ATOM     22  C   LIG    1        7.755  -0.310   3.883  0.00  0.00    +0.220 C 
ATOM     23  O   LIG    1        6.556   0.139   3.242  0.00  0.00    -0.300 OA
ATOM     24  C   LIG    1        6.024   1.308   3.690  0.00  0.00    +0.070 A 
ATOM     25  C   LIG    1        5.096   1.976   2.906  0.00  0.00    +0.040 A 
ENDBRANCH  14  16
ENDBRANCH   1  13
BRANCH   4  26
ATOM     26  N   LIG    1       -0.007   6.406  -1.224  0.00  0.00    -0.620 N 
ATOM     27  H   LIG    1       -0.810   6.244  -1.742  0.00  0.00    +0.430 HD
BRANCH  26  28
ATOM     28  C   LIG    1        0.553   7.687  -1.186  0.00  0.00    +0.140 A 
ATOM     29  C   LIG    1       -0.271   8.806  -1.153  0.00  0.00    +0.000 A 
ATOM     30  C   LIG    1        0.285  10.069  -1.111  0.00  0.00    +0.040 A 
ATOM     31  C   LIG    1        1.660  10.222  -1.111  0.00  0.00    +0.000 A 
ATOM     32  C   LIG    1        2.482   9.110  -1.148  0.00  0.00    +0.050 A 
ATOM     33  C   LIG    1        1.933   7.844  -1.186  0.00  0.00    -0.030 A 
ENDBRANCH  26  28
ENDBRANCH   4  26
TORSDOF 5
