REMARK  Name = ZINCrg00000fSEbY.0
REMARK                            x       y       z     vdW  Elec       q    Type
REMARK                         _______ _______ _______ _____ _____    ______ ____
ROOT
ATOM      1  O   LIG    1       -3.437   3.582   0.744  0.00  0.00    -0.530 OA
ATOM      2  C   LIG    1       -2.776   3.141   1.660  0.00  0.00    +0.530 C 
ATOM      3  N   LIG    1       -1.672   2.410   1.405  0.00  0.00    -0.720 N 
ATOM      4  H   LIG    1       -1.143   2.058   2.137  0.00  0.00    +0.410 HD
ENDROOT
BRANCH   2   5
ATOM      5  C   LIG    1       -3.187   3.411   3.085  0.00  0.00    +0.000 C 
ATOM      6  C   LIG    1       -2.168   4.336   3.790  0.00  0.00    +0.080 C 
ATOM      7  C   LIG    1       -3.019   5.222   4.672  0.00  0.00    +0.520 C 
ATOM      8  N   LIG    1       -4.306   5.158   4.287  0.00  0.00    -0.620 N 
ATOM      9  O   LIG    1       -2.602   5.891   5.593  0.00  0.00    -0.520 OA
ATOM     10  C   LIG    1       -4.474   4.264   3.136  0.00  0.00    +0.310 C 
BRANCH   8  11
ATOM     11  C   LIG    1       -5.399   5.887   4.934  0.00  0.00    +0.310 C 
BRANCH  11  12
ATOM     12  C   LIG    1       -5.992   5.030   6.054  0.00  0.00    +0.160 C 
BRANCH  12  13
ATOM     13  N   LIG    1       -7.088   5.761   6.703  0.00  0.00    -0.530 NA
ATOM     14  C   LIG    1       -6.584   6.947   7.410  0.00  0.00    +0.150 C 
ATOM     15  C   LIG    1       -7.763   7.711   8.020  0.00  0.00    +0.220 C 
ATOM     16  O   LIG    1       -8.495   6.836   8.883  0.00  0.00    -0.390 OA
ATOM     17  C   LIG    1       -9.001   5.670   8.227  0.00  0.00    +0.220 C 
ATOM     18  C   LIG    1       -7.835   4.887   7.620  0.00  0.00    +0.150 C 
ENDBRANCH  12  13
ENDBRANCH  11  12
ENDBRANCH   8  11
ENDBRANCH   2   5
BRANCH   3  19
ATOM     19  C   LIG    1       -1.272   2.148   0.020  0.00  0.00    +0.380 C 
BRANCH  19  20
ATOM     20  C   LIG    1       -0.016   1.316   0.009  0.00  0.00    -0.180 A 
ATOM     21  C   LIG    1        0.002  -0.004   0.002  0.00  0.00    +0.080 A 
ATOM     22  C   LIG    1        1.327  -0.599  -0.014  0.00  0.00    +0.120 A 
ATOM     23  N   LIG    1        1.673  -1.899  -0.025  0.00  0.00    -0.460 NA
ATOM     24  C   LIG    1        2.923  -2.288  -0.040  0.00  0.00    +0.290 A 
ATOM     25  C   LIG    1        3.964  -1.371  -0.045  0.00  0.00    -0.010 A 
ATOM     26  C   LIG    1        3.672  -0.022  -0.034  0.00  0.00    +0.100 A 
ATOM     27  C   LIG    1        2.331   0.375  -0.018  0.00  0.00    -0.190 A 
ATOM     28  S   LIG    1        1.608   1.977  -0.003  0.00  0.00    +0.130 S 
ENDBRANCH  19  20
ENDBRANCH   3  19
TORSDOF 6
