REMARK  Name = ZINCvU000000084U.0
REMARK                            x       y       z     vdW  Elec       q    Type
REMARK                         _______ _______ _______ _____ _____    ______ ____
ROOT
ATOM      1  C   LIG    1        2.370  -2.831   0.491  0.00  0.00    +0.290 C 
ENDROOT
BRANCH   1   2
ATOM      2  N   LIG    1        2.535  -3.350  -0.873  0.00  0.00    -0.530 NA
ATOM      3  C   LIG    1        1.411  -4.220  -1.244  0.00  0.00    +0.170 C 
ATOM      4  C   LIG    1        1.541  -4.623  -2.715  0.00  0.00    +0.030 C 
ATOM      5  C   LIG    1        2.869  -5.357  -2.922  0.00  0.00    +0.030 C 
ATOM      6  C   LIG    1        4.020  -4.447  -2.482  0.00  0.00    +0.090 C 
ATOM      7  C   LIG    1        3.818  -4.049  -1.019  0.00  0.00    +0.200 C 
BRANCH   6   8
ATOM      8  C   LIG    1        5.327  -5.184  -2.628  0.00  0.00    +0.100 A 
ATOM      9  N   LIG    1        5.612  -6.271  -2.018  0.00  0.00    -0.460 NA
ATOM     10  C   LIG    1        6.819  -6.823  -2.246  0.00  0.00    +0.080 A 
ATOM     11  C   LIG    1        7.385  -8.001  -1.719  0.00  0.00    +0.070 A 
ATOM     12  C   LIG    1        8.640  -8.385  -2.080  0.00  0.00    +0.030 A 
ATOM     13  C   LIG    1        9.386  -7.626  -2.971  0.00  0.00    +0.040 A 
ATOM     14  C   LIG    1        8.859  -6.470  -3.502  0.00  0.00    +0.060 A 
ATOM     15  C   LIG    1        7.576  -6.062  -3.144  0.00  0.00    -0.190 A 
ATOM     16  S   LIG    1        6.614  -4.667  -3.622  0.00  0.00    +0.110 S 
ENDBRANCH   6   8
ENDBRANCH   1   2
BRANCH   1  19
ATOM     17  C   LIG    1        0.136   0.041   0.302  0.00  0.00    +0.270 A 
ATOM     18  N   LIG    1        1.234  -0.641   0.215  0.00  0.00    -0.450 NA
ATOM     19  C   LIG    1        1.172  -1.918   0.541  0.00  0.00    +0.110 A 
ATOM     20  C   LIG    1       -0.040  -2.338   0.912  0.00  0.00    -0.100 A 
ATOM     21  S   LIG    1       -1.141  -0.966   0.830  0.00  0.00    +0.140 S 
BRANCH  17  24
ATOM     22  C   LIG    1        0.989   3.606  -0.519  0.00  0.00    +0.120 C 
ATOM     23  C   LIG    1        1.106   2.119  -0.306  0.00  0.00    +0.510 C 
ATOM     24  N   LIG    1        0.012   1.395   0.004  0.00  0.00    -0.480 N 
ATOM     25  O   LIG    1        2.184   1.573  -0.414  0.00  0.00    -0.460 OA
BRANCH  24  26
ATOM     26  C   LIG    1       -1.249   2.003   0.022  0.00  0.00    +0.100 A 
ATOM     27  C   LIG    1       -1.569   2.914   1.020  0.00  0.00    +0.030 A 
ATOM     28  C   LIG    1       -2.811   3.517   1.031  0.00  0.00    +0.020 A 
ATOM     29  C   LIG    1       -3.741   3.205   0.056  0.00  0.00    +0.030 A 
ATOM     30  C   LIG    1       -3.428   2.295  -0.937  0.00  0.00    +0.030 A 
ATOM     31  C   LIG    1       -2.185   1.694  -0.957  0.00  0.00    +0.020 A 
ENDBRANCH  24  26
ENDBRANCH  17  24
ENDBRANCH   1  19
TORSDOF 5
