REMARK  Name = ZINCpk00000xP0ad.0
REMARK                            x       y       z     vdW  Elec       q    Type
REMARK                         _______ _______ _______ _____ _____    ______ ____
ROOT
ATOM      1  C   LIG    1       -2.644   1.403   0.229  0.00  0.00    +0.160 C 
ATOM      2  C   LIG    1       -1.767   1.243   1.474  0.00  0.00    +0.000 C 
ATOM      3  C   LIG    1       -0.454   2.001   1.265  0.00  0.00    +0.040 C 
ATOM      4  C   LIG    1        0.244   1.466   0.012  0.00  0.00    +0.190 C 
ATOM      5  N   LIG    1       -0.635   1.643  -1.152  0.00  0.00    -0.460 N 
ATOM      6  C   LIG    1       -1.883   0.886  -0.994  0.00  0.00    +0.230 C 
ENDROOT
BRANCH   5   7
ATOM      7  C   LIG    1        0.017   1.289  -2.325  0.00  0.00    +0.270 A 
ATOM      8  N   LIG    1        0.842   0.260  -2.331  0.00  0.00    -0.450 NA
ATOM      9  C   LIG    1        1.469  -0.081  -3.464  0.00  0.00    +0.060 A 
ATOM     10  C   LIG    1        2.353  -1.172  -3.500  0.00  0.00    +0.100 A 
ATOM     11  C   LIG    1        2.978  -1.498  -4.664  0.00  0.00    -0.030 A 
ATOM     12  C   LIG    1        2.753  -0.760  -5.830  0.00  0.00    +0.150 A 
ATOM     13  C   LIG    1        1.899   0.306  -5.829  0.00  0.00    +0.020 A 
ATOM     14  C   LIG    1        1.239   0.669  -4.644  0.00  0.00    +0.120 A 
ATOM     15  N   LIG    1        0.397   1.710  -4.617  0.00  0.00    -0.430 NA
ATOM     16  C   LIG    1       -0.213   2.026  -3.500  0.00  0.00    +0.150 A 
ATOM     17  C   LIG    1       -1.164   3.195  -3.474  0.00  0.00    +0.170 C 
BRANCH  12  18
ATOM     18  O   LIG    1        3.390  -1.109  -6.978  0.00  0.00    -0.310 OA
ATOM     19  C   LIG    1        4.270  -2.234  -6.916  0.00  0.00    +0.250 C 
ENDBRANCH  12  18
ENDBRANCH   5   7
BRANCH   1  20
ATOM     20  O   LIG    1       -2.963   2.784   0.044  0.00  0.00    -0.540 OA
ATOM     21  H   LIG    1       -3.447   3.178   0.782  0.00  0.00    +0.380 HD
ENDBRANCH   1  20
BRANCH   1  22
ATOM     22  C   LIG    1       -3.934   0.600   0.406  0.00  0.00    +0.030 C 
BRANCH  22  26
ATOM     23  C   LIG    1       -6.583   1.044   3.133  0.00  0.00    +0.280 C 
ATOM     24  N   LIG    1       -5.856   0.548   1.962  0.00  0.00    -0.730 N 
ATOM     25  H   LIG    1       -6.219  -0.184   1.440  0.00  0.00    +0.400 HD
ATOM     26  C   LIG    1       -4.682   1.110   1.610  0.00  0.00    +0.520 C 
ATOM     27  O   LIG    1       -4.229   2.026   2.263  0.00  0.00    -0.540 OA
ENDBRANCH  22  26
ENDBRANCH   1  22
TORSDOF 5
