REMARK  Name = ZINCqH0000004GTt.0
REMARK                            x       y       z     vdW  Elec       q    Type
REMARK                         _______ _______ _______ _____ _____    ______ ____
ROOT
ATOM      1  C   LIG    1       -6.084   9.826   3.593  0.00  0.00    -0.020 A 
ATOM      2  C   LIG    1       -5.178   8.776   3.620  0.00  0.00    +0.000 A 
ATOM      3  C   LIG    1       -4.944   8.032   2.497  0.00  0.00    +0.090 A 
ATOM      4  C   LIG    1       -5.625   8.331   1.313  0.00  0.00    -0.160 A 
ATOM      5  C   LIG    1       -5.396   7.553   0.092  0.00  0.00    +0.040 A 
ATOM      6  C   LIG    1       -6.084   7.898  -1.026  0.00  0.00    -0.050 A 
ATOM      7  C   LIG    1       -6.995   8.975  -0.984  0.00  0.00    +0.510 A 
ATOM      8  O   LIG    1       -7.199   9.683   0.137  0.00  0.00    -0.270 OA
ATOM      9  O   LIG    1       -7.609   9.272  -1.993  0.00  0.00    -0.450 OA
ATOM     10  C   LIG    1       -6.544   9.395   1.282  0.00  0.00    +0.150 A 
ATOM     11  C   LIG    1       -6.765  10.137   2.434  0.00  0.00    +0.020 A 
ENDROOT
BRANCH   1  13
ATOM     12  C   LIG    1       -7.469  10.003   5.643  0.00  0.00    +0.030 C 
ATOM     13  C   LIG    1       -6.328  10.633   4.841  0.00  0.00    +0.070 C 
ENDBRANCH   1  13
BRANCH   5  14
ATOM     14  C   LIG    1       -4.421   6.404   0.078  0.00  0.00    +0.150 C 
BRANCH  14  15
ATOM     15  S   LIG    1       -2.726   7.050   0.065  0.00  0.00    +0.070 S 
BRANCH  15  16
ATOM     16  C   LIG    1       -1.744   5.587   0.049  0.00  0.00    +0.240 A 
ATOM     17  N   LIG    1       -0.427   5.554   0.036  0.00  0.00    -0.310 NA
ATOM     18  N   LIG    1       -0.051   4.205   0.025  0.00  0.00    -0.320 N 
ATOM     19  C   LIG    1        1.153   3.574   0.010  0.00  0.00    +0.210 A 
ATOM     20  C   LIG    1        1.186   2.216   0.003  0.00  0.00    -0.040 A 
ATOM     21  C   LIG    1       -0.018   1.503   0.010  0.00  0.00    +0.240 A 
ATOM     22  N   LIG    1       -1.167   2.142   0.019  0.00  0.00    -0.470 NA
ATOM     23  C   LIG    1        0.002  -0.004   0.002  0.00  0.00    +0.170 C 
ATOM     24  C   LIG    1        2.432   4.370   0.002  0.00  0.00    +0.160 C 
ATOM     25  C   LIG    1       -1.209   3.479   0.032  0.00  0.00    +0.460 A 
ATOM     26  N   LIG    1       -2.218   4.343   0.046  0.00  0.00    -0.530 NA
ENDBRANCH  15  16
ENDBRANCH  14  15
ENDBRANCH   5  14
TORSDOF 4
