REMARK  Name = ZINCrD000000Cz1w.1
REMARK                            x       y       z     vdW  Elec       q    Type
REMARK                         _______ _______ _______ _____ _____    ______ ____
ROOT
ATOM      1  O   LIG    1        0.097   1.224   2.510  0.00  0.00    -0.500 OA
ATOM      2  C   LIG    1        0.025   0.010   2.496  0.00  0.00    +0.560 C 
ATOM      3  N   LIG    1       -0.057  -0.674   3.654  0.00  0.00    -0.610 N 
ATOM      4  C   LIG    1       -0.037  -2.143   3.659  0.00  0.00    +0.270 C 
ATOM      5  C   LIG    1        1.066  -2.618   4.609  0.00  0.00    +0.040 C 
ATOM      6  C   LIG    1        0.854  -1.988   5.988  0.00  0.00    +0.040 C 
ATOM      7  C   LIG    1        0.940  -0.464   5.872  0.00  0.00    +0.110 C 
ATOM      8  C   LIG    1       -0.160   0.036   4.937  0.00  0.00    +0.290 C 
ENDROOT
BRANCH   2   9
ATOM      9  C   LIG    1        0.026  -0.714   1.210  0.00  0.00    -0.140 A 
ATOM     10  C   LIG    1       -0.782  -1.840   1.038  0.00  0.00    +0.040 A 
ATOM     11  C   LIG    1       -0.776  -2.513  -0.168  0.00  0.00    +0.090 A 
ATOM     12  C   LIG    1        0.029  -2.075  -1.208  0.00  0.00    +0.040 A 
ATOM     13  C   LIG    1        0.828  -0.959  -1.051  0.00  0.00    +0.030 A 
ATOM     14  F   LIG    1       -1.558  -3.602  -0.334  0.00  0.00    -0.130 F 
ATOM     15  C   LIG    1        0.838  -0.276   0.156  0.00  0.00    +0.160 A 
BRANCH  15  16
ATOM     16  O   LIG    1        1.627   0.817   0.312  0.00  0.00    -0.480 OA
ATOM     17  H   LIG    1        2.512   0.619   0.648  0.00  0.00    +0.400 HD
ENDBRANCH  15  16
ENDBRANCH   2   9
BRANCH   7  18
ATOM     18  C   LIG    1        0.763   0.154   7.235  0.00  0.00    +0.200 A 
ATOM     19  N   LIG    1        1.718   0.509   8.052  0.00  0.00    -0.280 NA
ATOM     20  N   LIG    1        1.216   1.003   9.128  0.00  0.00    -0.270 NA
ATOM     21  C   LIG    1       -0.096   0.989   9.053  0.00  0.00    +0.230 A 
ATOM     22  N   LIG    1       -0.421   0.451   7.837  0.00  0.00    -0.580 N 
ATOM     23  H   LIG    1       -1.311   0.309   7.479  0.00  0.00    +0.430 HD
BRANCH  21  24
ATOM     24  C   LIG    1       -1.042   1.470  10.084  0.00  0.00    -0.020 A 
ATOM     25  C   LIG    1       -2.417   1.398   9.861  0.00  0.00    +0.010 A 
ATOM     26  C   LIG    1       -3.294   1.844  10.828  0.00  0.00    +0.010 A 
ATOM     27  C   LIG    1       -2.812   2.372  12.012  0.00  0.00    +0.030 A 
ATOM     28  C   LIG    1       -1.449   2.451  12.237  0.00  0.00    +0.010 A 
ATOM     29  C   LIG    1       -0.562   2.004  11.280  0.00  0.00    +0.070 A 
ENDBRANCH  21  24
ENDBRANCH   7  18
TORSDOF 4
