REMARK  Name = ZINCrD000000Cz1w.0
REMARK                            x       y       z     vdW  Elec       q    Type
REMARK                         _______ _______ _______ _____ _____    ______ ____
ROOT
ATOM      1  O   LIG    1       -1.784  -0.172  -0.929  0.00  0.00    -0.510 OA
ATOM      2  C   LIG    1       -0.686  -0.695  -0.928  0.00  0.00    +0.570 C 
ATOM      3  N   LIG    1        0.424   0.068  -0.870  0.00  0.00    -0.610 N 
ATOM      4  C   LIG    1        1.754  -0.551  -0.780  0.00  0.00    +0.270 C 
ATOM      5  C   LIG    1        2.634   0.007  -1.902  0.00  0.00    +0.030 C 
ATOM      6  C   LIG    1        2.645   1.536  -1.824  0.00  0.00    +0.040 C 
ATOM      7  C   LIG    1        1.223   2.068  -2.015  0.00  0.00    +0.100 C 
ATOM      8  C   LIG    1        0.327   1.533  -0.894  0.00  0.00    +0.290 C 
ENDROOT
BRANCH   2   9
ATOM      9  C   LIG    1       -0.569  -2.164  -0.993  0.00  0.00    -0.130 A 
ATOM     10  C   LIG    1        0.170  -2.853  -0.028  0.00  0.00    +0.040 A 
ATOM     11  C   LIG    1        0.276  -4.227  -0.093  0.00  0.00    +0.090 A 
ATOM     12  C   LIG    1       -0.349  -4.928  -1.114  0.00  0.00    +0.040 A 
ATOM     13  C   LIG    1       -1.083  -4.258  -2.073  0.00  0.00    +0.030 A 
ATOM     14  F   LIG    1        0.991  -4.893   0.840  0.00  0.00    -0.130 F 
ATOM     15  C   LIG    1       -1.203  -2.878  -2.019  0.00  0.00    +0.150 A 
BRANCH  15  16
ATOM     16  O   LIG    1       -1.928  -2.220  -2.958  0.00  0.00    -0.480 OA
ATOM     17  H   LIG    1       -1.416  -1.949  -3.732  0.00  0.00    +0.400 HD
ENDBRANCH  15  16
ENDBRANCH   2   9
BRANCH   7  18
ATOM     18  C   LIG    1        1.240   3.575  -1.970  0.00  0.00    +0.300 A 
ATOM     19  N   LIG    1        1.306   4.371  -3.004  0.00  0.00    -0.520 NA
ATOM     20  C   LIG    1        1.300   5.646  -2.596  0.00  0.00    +0.270 A 
ATOM     21  N   LIG    1        1.230   5.668  -1.283  0.00  0.00    -0.300 NA
ATOM     22  N   LIG    1        1.185   4.330  -0.859  0.00  0.00    -0.480 N 
ATOM     23  H   LIG    1        1.128   4.013   0.056  0.00  0.00    +0.440 HD
BRANCH  20  24
ATOM     24  C   LIG    1        1.362   6.838  -3.478  0.00  0.00    -0.020 A 
ATOM     25  C   LIG    1        1.440   6.681  -4.861  0.00  0.00    +0.070 A 
ATOM     26  C   LIG    1        1.491   7.792  -5.677  0.00  0.00    +0.000 A 
ATOM     27  C   LIG    1        1.477   9.060  -5.125  0.00  0.00    +0.030 A 
ATOM     28  C   LIG    1        1.407   9.222  -3.753  0.00  0.00    +0.010 A 
ATOM     29  C   LIG    1        1.349   8.118  -2.928  0.00  0.00    +0.050 A 
ENDBRANCH  20  24
ENDBRANCH   7  18
TORSDOF 4
