REMARK  Name = ZINCvU0000000A3I.0
REMARK                            x       y       z     vdW  Elec       q    Type
REMARK                         _______ _______ _______ _____ _____    ______ ____
ROOT
ATOM      1  N   LIG    1       -2.461  -0.477  -2.784  0.00  0.00    -0.470 N 
ATOM      2  C   LIG    1       -1.411  -0.348  -1.949  0.00  0.00    +0.520 C 
ATOM      3  O   LIG    1       -0.405   0.217  -2.323  0.00  0.00    -0.460 OA
ENDROOT
BRANCH   1   4
ATOM      4  C   LIG    1       -3.567  -1.219  -2.397  0.00  0.00    +0.320 A 
ATOM      5  N   LIG    1       -4.563  -1.507  -3.160  0.00  0.00    -0.480 NA
ATOM      6  C   LIG    1       -5.565  -2.243  -2.640  0.00  0.00    +0.110 A 
ATOM      7  C   LIG    1       -6.750  -2.688  -3.264  0.00  0.00    +0.070 A 
ATOM      8  C   LIG    1       -7.667  -3.430  -2.564  0.00  0.00    +0.040 A 
ATOM      9  C   LIG    1       -7.446  -3.756  -1.234  0.00  0.00    +0.040 A 
ATOM     10  C   LIG    1       -6.296  -3.332  -0.605  0.00  0.00    +0.060 A 
ATOM     11  C   LIG    1       -5.354  -2.578  -1.299  0.00  0.00    -0.200 A 
ATOM     12  S   LIG    1       -3.811  -1.895  -0.792  0.00  0.00    +0.100 S 
ENDBRANCH   1   4
BRANCH   1  16
ATOM     13  C   LIG    1       -2.388   1.355  -6.527  0.00  0.00    -0.070 A 
ATOM     14  C   LIG    1       -2.530  -0.018  -6.433  0.00  0.00    +0.020 A 
ATOM     15  C   LIG    1       -2.555  -0.628  -5.194  0.00  0.00    +0.050 A 
ATOM     16  C   LIG    1       -2.436   0.139  -4.042  0.00  0.00    +0.120 A 
ATOM     17  C   LIG    1       -2.299   1.517  -4.139  0.00  0.00    +0.030 A 
ATOM     18  C   LIG    1       -2.271   2.120  -5.381  0.00  0.00    +0.020 A 
BRANCH  13  20
ATOM     19  C   LIG    1       -3.787   2.393  -8.291  0.00  0.00    +0.030 C 
ATOM     20  C   LIG    1       -2.362   2.017  -7.880  0.00  0.00    +0.050 C 
ENDBRANCH  13  20
ENDBRANCH   1  16
BRANCH   2  21
ATOM     21  C   LIG    1       -1.486  -0.906  -0.551  0.00  0.00    +0.080 C 
BRANCH  21  22
ATOM     22  C   LIG    1       -0.172  -0.627   0.181  0.00  0.00    +0.370 C 
BRANCH  22  23
ATOM     23  C   LIG    1       -0.199  -1.290   1.534  0.00  0.00    -0.200 A 
ATOM     24  C   LIG    1        0.386  -2.450   1.833  0.00  0.00    +0.030 A 
ATOM     25  C   LIG    1        0.225  -2.863   3.145  0.00  0.00    +0.010 A 
ATOM     26  C   LIG    1       -0.490  -2.038   3.910  0.00  0.00    -0.040 A 
ATOM     27  S   LIG    1       -1.002  -0.648   2.961  0.00  0.00    +0.110 S 
ENDBRANCH  22  23
BRANCH  22  28
ATOM     28  N   LIG    1       -0.004   0.819   0.349  0.00  0.00    -0.720 N 
ATOM     29  H   LIG    1       -0.780   1.400   0.356  0.00  0.00    +0.400 HD
ATOM     30  C   LIG    1        1.231   1.342   0.487  0.00  0.00    +0.520 C 
ATOM     31  O   LIG    1        2.202   0.616   0.472  0.00  0.00    -0.530 OA
ATOM     32  C   LIG    1        1.404   2.829   0.660  0.00  0.00    +0.100 C 
ENDBRANCH  22  28
ENDBRANCH  21  22
ENDBRANCH   2  21
TORSDOF 7
