REMARK  Name = ZINCqH0000036LfU.0
REMARK                            x       y       z     vdW  Elec       q    Type
REMARK                         _______ _______ _______ _____ _____    ______ ____
ROOT
ATOM      1  C   LIG    1       -0.753   1.593  -1.232  0.00  0.00    +0.080 C 
ATOM      2  C   LIG    1       -0.013   1.086   0.008  0.00  0.00    +0.270 C 
ENDROOT
BRANCH   2   3
ATOM      3  C   LIG    1       -0.718   1.572   1.248  0.00  0.00    +0.170 A 
ATOM      4  N   LIG    1       -1.479   0.859   2.043  0.00  0.00    -0.470 NA
ATOM      5  C   LIG    1       -1.885   1.704   3.008  0.00  0.00    +0.180 A 
ATOM      6  N   LIG    1       -1.366   2.867   2.751  0.00  0.00    -0.380 NA
ATOM      7  O   LIG    1       -0.692   2.813   1.744  0.00  0.00    +0.100 OA
BRANCH   5   8
ATOM      8  C   LIG    1       -2.782   1.365   4.171  0.00  0.00    +0.220 C 
BRANCH   8   9
ATOM      9  C   LIG    1       -4.220   1.587   3.778  0.00  0.00    -0.090 A 
ATOM     10  C   LIG    1       -4.811   2.818   3.987  0.00  0.00    +0.010 A 
ATOM     11  C   LIG    1       -6.129   3.023   3.622  0.00  0.00    +0.000 A 
ATOM     12  C   LIG    1       -6.858   1.993   3.058  0.00  0.00    +0.000 A 
ATOM     13  C   LIG    1       -6.268   0.760   2.854  0.00  0.00    +0.000 A 
ATOM     14  C   LIG    1       -4.949   0.556   3.214  0.00  0.00    +0.030 A 
ENDBRANCH   8   9
ENDBRANCH   5   8
ENDBRANCH   2   3
BRANCH   2  15
ATOM     15  N   LIG    1        1.365   1.594  -0.002  0.00  0.00    -0.670 NA
ATOM     16  H   LIG    1        1.720   1.698   0.937  0.00  0.00    +0.350 HD
BRANCH  15  17
ATOM     17  C   LIG    1        2.241   0.727  -0.802  0.00  0.00    +0.150 C 
ATOM     18  C   LIG    1        3.366   1.571  -1.381  0.00  0.00    +0.060 C 
ATOM     19  C   LIG    1        4.183   0.768  -2.394  0.00  0.00    +0.080 C 
ATOM     20  C   LIG    1        5.214  -0.055  -1.645  0.00  0.00    -0.110 A 
ATOM     21  C   LIG    1        6.556   0.233  -1.775  0.00  0.00    +0.030 A 
ATOM     22  C   LIG    1        7.490  -0.543  -1.111  0.00  0.00    +0.010 A 
ATOM     23  C   LIG    1        7.077  -1.601  -0.323  0.00  0.00    +0.020 A 
ATOM     24  C   LIG    1        5.731  -1.883  -0.186  0.00  0.00    +0.000 A 
ATOM     25  C   LIG    1        4.793  -1.099  -0.846  0.00  0.00    +0.090 A 
ATOM     26  O   LIG    1        3.467  -1.365  -0.697  0.00  0.00    -0.320 OA
ATOM     27  C   LIG    1        2.727  -0.410   0.072  0.00  0.00    +0.190 C 
ENDBRANCH  15  17
ENDBRANCH   2  15
TORSDOF 5
