REMARK  Name = ZINCqH00000009dg.0
REMARK                            x       y       z     vdW  Elec       q    Type
REMARK                         _______ _______ _______ _____ _____    ______ ____
ROOT
ATOM      1  C   LIG    1        4.226   6.159  -3.680  0.00  0.00    -0.140 A 
ATOM      2  C   LIG    1        3.084   6.635  -4.326  0.00  0.00    +0.150 A 
ATOM      3  C   LIG    1        1.885   6.698  -3.646  0.00  0.00    +0.000 A 
ATOM      4  C   LIG    1        1.814   6.291  -2.325  0.00  0.00    +0.170 A 
ATOM      5  C   LIG    1        2.942   5.817  -1.679  0.00  0.00    -0.690 A 
ATOM      6  C   LIG    1        4.148   5.753  -2.346  0.00  0.00    +0.200 A 
ENDROOT
BRANCH   5   7
ATOM      7  S   LIG    1        2.840   5.300   0.003  0.00  0.00    +2.700 S 
ATOM      8  O   LIG    1        4.153   5.406   0.535  0.00  0.00    -0.930 OA
ATOM      9  O   LIG    1        1.718   5.971   0.561  0.00  0.00    -0.930 OA
BRANCH   7  10
ATOM     10  N   LIG    1        2.465   3.687  -0.002  0.00  0.00    -0.930 N 
ATOM     11  C   LIG    1        1.170   3.167   0.007  0.00  0.00    +0.160 A 
ATOM     12  C   LIG    1       -0.054   3.840   0.022  0.00  0.00    -0.010 A 
ATOM     13  C   LIG    1       -1.237   3.132   0.030  0.00  0.00    +0.040 A 
ATOM     14  C   LIG    1       -1.220   1.749   0.017  0.00  0.00    -0.010 A 
ATOM     15  C   LIG    1       -0.013   1.076   0.008  0.00  0.00    +0.050 A 
ATOM     16  C   LIG    1        1.175   1.781   0.000  0.00  0.00    -0.130 A 
ATOM     17  C   LIG    1        2.611   1.306  -0.015  0.00  0.00    +0.100 C 
ATOM     18  C   LIG    1        3.445   2.598  -0.017  0.00  0.00    +0.240 C 
ATOM     19  C   LIG    1        4.304   2.674  -1.280  0.00  0.00    +0.040 C 
ENDBRANCH   7  10
ENDBRANCH   5   7
BRANCH   1  20
ATOM     20  C   LIG    1        5.512   6.088  -4.403  0.00  0.00    +0.510 C 
ATOM     21  O   LIG    1        6.504   5.673  -3.838  0.00  0.00    -0.490 OA
BRANCH  20  22
ATOM     22  O   LIG    1        5.585   6.484  -5.688  0.00  0.00    -0.340 OA
BRANCH  22  23
ATOM     23  C   LIG    1        6.882   6.387  -6.335  0.00  0.00    +0.300 C 
BRANCH  23  25
ATOM     24  C   LIG    1        7.414   7.949  -8.137  0.00  0.00    +0.110 C 
ATOM     25  C   LIG    1        6.770   6.871  -7.758  0.00  0.00    -0.090 C 
ATOM     26 CL   LIG    1        5.790   6.001  -8.896  0.00  0.00    -0.070 Cl
ENDBRANCH  23  25
ENDBRANCH  22  23
ENDBRANCH  20  22
ENDBRANCH   1  20
TORSDOF 6
