REMARK  Name = ZINCvU0000000HFh.0
REMARK                            x       y       z     vdW  Elec       q    Type
REMARK                         _______ _______ _______ _____ _____    ______ ____
ROOT
ATOM      1  C   LIG    1        1.198  -0.712   2.003  0.00  0.00    +0.540 C 
ATOM      2  N   LIG    1        0.022  -0.500   1.381  0.00  0.00    -0.610 N 
ATOM      3  C   LIG    1       -1.237  -0.765   2.082  0.00  0.00    +0.300 C 
ATOM      4  O   LIG    1        2.240  -0.492   1.423  0.00  0.00    -0.520 OA
ENDROOT
BRANCH   1   5
ATOM      5  C   LIG    1        1.218  -1.222   3.421  0.00  0.00    +0.110 C 
BRANCH   5   6
ATOM      6  S   LIG    1        2.933  -1.403   3.973  0.00  0.00    +0.090 S 
BRANCH   6  11
ATOM      7  C   LIG    1        3.570  -3.184   8.943  0.00  0.00    +0.200 C 
ATOM      8  C   LIG    1        2.955  -2.724   7.647  0.00  0.00    +0.200 A 
ATOM      9  N   LIG    1        1.681  -2.641   7.382  0.00  0.00    -0.280 NA
ATOM     10  N   LIG    1        1.505  -2.207   6.186  0.00  0.00    -0.290 NA
ATOM     11  C   LIG    1        2.666  -1.995   5.611  0.00  0.00    +0.140 A 
ATOM     12  N   LIG    1        3.630  -2.315   6.527  0.00  0.00    -0.420 N 
BRANCH  12  13
ATOM     13  C   LIG    1        5.020  -2.239   6.357  0.00  0.00    +0.100 A 
ATOM     14  C   LIG    1        5.788  -3.396   6.383  0.00  0.00    +0.030 A 
ATOM     15  C   LIG    1        7.156  -3.319   6.208  0.00  0.00    +0.040 A 
ATOM     16  C   LIG    1        7.763  -2.091   6.020  0.00  0.00    +0.030 A 
ATOM     17  C   LIG    1        7.001  -0.937   5.999  0.00  0.00    +0.040 A 
ATOM     18  C   LIG    1        5.632  -1.008   6.167  0.00  0.00    +0.030 A 
ENDBRANCH  12  13
ENDBRANCH   6  11
ENDBRANCH   5   6
ENDBRANCH   1   5
BRANCH   2  19
ATOM     19  C   LIG    1        0.002  -0.004   0.002  0.00  0.00    +0.420 C 
BRANCH  19  20
ATOM     20  C   LIG    1       -0.018   1.503   0.010  0.00  0.00    -0.030 A 
ATOM     21  C   LIG    1        1.065   2.303   0.004  0.00  0.00    -0.010 A 
ATOM     22  C   LIG    1        0.597   3.632   0.015  0.00  0.00    -0.040 A 
ATOM     23  C   LIG    1       -0.761   3.569   0.028  0.00  0.00    +0.030 A 
ATOM     24  O   LIG    1       -1.120   2.271   0.019  0.00  0.00    -0.170 OA
BRANCH  23  25
ATOM     25  C   LIG    1       -1.683   4.724   0.042  0.00  0.00    -0.010 A 
ATOM     26  C   LIG    1       -1.177   6.025   0.049  0.00  0.00    +0.050 A 
ATOM     27  C   LIG    1       -2.042   7.099   0.058  0.00  0.00    +0.040 A 
ATOM     28  C   LIG    1       -3.411   6.888   0.069  0.00  0.00    -0.030 A 
ATOM     29  C   LIG    1       -3.919   5.600   0.067  0.00  0.00    +0.030 A 
ATOM     30 CL   LIG    1       -4.494   8.245   0.086  0.00  0.00    -0.060 Cl
ATOM     31  C   LIG    1       -3.063   4.518   0.054  0.00  0.00    +0.050 A 
ENDBRANCH  23  25
ENDBRANCH  19  20
ENDBRANCH   2  19
TORSDOF 7
