REMARK  Name = ZINCpe000027pH9k.0
REMARK                            x       y       z     vdW  Elec       q    Type
REMARK                         _______ _______ _______ _____ _____    ______ ____
ROOT
ATOM      1  C   LIG    1       -0.501   1.748  -0.044  0.00  0.00    +0.250 C 
ATOM      2  C   LIG    1        0.967   2.166  -0.141  0.00  0.00    +0.060 C 
ENDROOT
BRANCH   1   4
ATOM      3  C   LIG    1       -1.378   2.047  -2.298  0.00  0.00    +0.550 C 
ATOM      4  N   LIG    1       -1.287   2.495  -1.030  0.00  0.00    -0.710 N 
ATOM      5  H   LIG    1       -1.743   3.311  -0.769  0.00  0.00    +0.410 HD
ATOM      6  O   LIG    1       -0.806   1.023  -2.624  0.00  0.00    -0.540 OA
BRANCH   3   8
ATOM      7  C   LIG    1       -2.253   2.344  -4.552  0.00  0.00    +0.140 C 
ATOM      8  C   LIG    1       -2.163   2.792  -3.282  0.00  0.00    -0.100 C 
BRANCH   7  12
ATOM      9  C   LIG    1       -4.530   4.504  -7.405  0.00  0.00    +0.140 A 
ATOM     10  C   LIG    1       -3.878   3.335  -7.780  0.00  0.00    -0.020 A 
ATOM     11  C   LIG    1       -3.138   2.630  -6.858  0.00  0.00    +0.090 A 
ATOM     12  C   LIG    1       -3.042   3.093  -5.541  0.00  0.00    -0.120 A 
ATOM     13  C   LIG    1       -3.705   4.267  -5.166  0.00  0.00    +0.070 A 
ATOM     14  C   LIG    1       -4.438   4.968  -6.098  0.00  0.00    -0.080 A 
BRANCH   9  16
ATOM     15  C   LIG    1       -5.903   6.388  -7.866  0.00  0.00    +0.240 C 
ATOM     16  O   LIG    1       -5.259   5.195  -8.318  0.00  0.00    -0.310 OA
ENDBRANCH   9  16
ENDBRANCH   7  12
ENDBRANCH   3   8
ENDBRANCH   1   4
BRANCH   1  17
ATOM     17  C   LIG    1       -1.018   2.046   1.340  0.00  0.00    +0.520 C 
ATOM     18  N   LIG    1       -0.443   1.467   2.413  0.00  0.00    -0.700 N 
ATOM     19  H   LIG    1        0.303   0.859   2.294  0.00  0.00    +0.410 HD
ATOM     20  O   LIG    1       -1.951   2.807   1.489  0.00  0.00    -0.530 OA
BRANCH  18  21
ATOM     21  C   LIG    1       -0.945   1.757   3.759  0.00  0.00    +0.240 C 
BRANCH  21  22
ATOM     22  C   LIG    1       -2.105   0.845   4.069  0.00  0.00    +0.510 C 
ATOM     23  O   LIG    1       -2.232  -0.200   3.467  0.00  0.00    -0.530 OA
ATOM     24  N   LIG    1       -3.000   1.192   5.014  0.00  0.00    -0.850 N 
ATOM     25  H   LIG    1       -3.785   0.642   5.164  0.00  0.00    +0.400 HD
ATOM     26  H   LIG    1       -2.859   1.991   5.546  0.00  0.00    +0.400 HD
ENDBRANCH  21  22
BRANCH  21  27
ATOM     27  C   LIG    1        0.171   1.528   4.780  0.00  0.00    -0.010 C 
ATOM     28  C   LIG    1        1.310   2.515   4.520  0.00  0.00    +0.040 C 
ATOM     29  C   LIG    1        0.697   0.097   4.648  0.00  0.00    +0.030 C 
ENDBRANCH  21  27
ENDBRANCH  18  21
ENDBRANCH   1  17
TORSDOF 8
