REMARK  Name = ZINCpe00000gNavM.0
REMARK                            x       y       z     vdW  Elec       q    Type
REMARK                         _______ _______ _______ _____ _____    ______ ____
ROOT
ATOM      1  O   LIG    1        2.122   1.536  -2.353  0.00  0.00    -0.520 OA
ATOM      2  C   LIG    1        2.854   1.219  -1.439  0.00  0.00    +0.500 C 
ATOM      3  N   LIG    1        4.067   0.694  -1.700  0.00  0.00    -0.610 N 
ATOM      4  C   LIG    1        4.967   0.310  -0.603  0.00  0.00    +0.270 C 
ATOM      5  C   LIG    1        5.358  -1.166  -0.789  0.00  0.00    +0.300 C 
ATOM      6  N   LIG    1        5.808  -1.359  -2.175  0.00  0.00    -1.000 NA
ATOM      7  C   LIG    1        4.910  -0.971  -3.272  0.00  0.00    +0.300 C 
ATOM      8  C   LIG    1        4.517   0.500  -3.085  0.00  0.00    +0.290 C 
ENDROOT
BRANCH   6   9
ATOM      9  S   LIG    1        7.300  -2.004  -2.495  0.00  0.00    +2.690 S 
ATOM     10  O   LIG    1        7.224  -2.563  -3.799  0.00  0.00    -0.940 OA
ATOM     11  O   LIG    1        7.666  -2.756  -1.347  0.00  0.00    -0.940 OA
BRANCH   9  12
ATOM     12  C   LIG    1        8.437  -0.662  -2.595  0.00  0.00    -0.650 A 
ATOM     13  C   LIG    1        9.095  -0.228  -1.459  0.00  0.00    +0.120 A 
ATOM     14  C   LIG    1        9.988   0.825  -1.536  0.00  0.00    +0.040 A 
ATOM     15  C   LIG    1       10.224   1.444  -2.748  0.00  0.00    +0.050 A 
ATOM     16  C   LIG    1        9.565   1.011  -3.886  0.00  0.00    +0.080 A 
ATOM     17  F   LIG    1        9.795   1.616  -5.072  0.00  0.00    -0.130 F 
ATOM     18  C   LIG    1        8.675  -0.047  -3.809  0.00  0.00    +0.090 A 
ENDBRANCH   9  12
ENDBRANCH   6   9
BRANCH   2  19
ATOM     19  C   LIG    1        2.406   1.411  -0.013  0.00  0.00    +0.340 C 
BRANCH  19  20
ATOM     20  N   LIG    1        1.062   1.993   0.003  0.00  0.00    -0.600 N 
ATOM     21  C   LIG    1        0.880   3.427   0.011  0.00  0.00    +0.280 C 
ATOM     22  C   LIG    1       -0.605   3.812   0.027  0.00  0.00    +0.140 C 
ATOM     23  S   LIG    1       -1.472   2.211   0.020  0.00  0.00    -0.160 S 
ATOM     24  C   LIG    1       -0.014   1.212   0.009  0.00  0.00    +0.550 C 
ATOM     25  O   LIG    1        0.002  -0.004   0.002  0.00  0.00    -0.480 OA
ENDBRANCH  19  20
ENDBRANCH   2  19
TORSDOF 4
