REMARK  Name = ZINCvU0000000Jpl.0
REMARK                            x       y       z     vdW  Elec       q    Type
REMARK                         _______ _______ _______ _____ _____    ______ ____
ROOT
ATOM      1  C   LIG    1        0.413   0.046  -5.153  0.00  0.00    +0.130 C 
ATOM      2  C   LIG    1       -0.772   0.939  -4.891  0.00  0.00    +0.020 A 
ATOM      3  C   LIG    1       -1.180   1.239  -3.651  0.00  0.00    -0.230 A 
ATOM      4  S   LIG    1       -2.583   2.291  -3.698  0.00  0.00    +0.270 S 
ATOM      5  C   LIG    1       -2.577   2.306  -5.459  0.00  0.00    +0.070 A 
ATOM      6  N   LIG    1       -3.388   2.924  -6.317  0.00  0.00    -0.430 NA
ATOM      7  C   LIG    1       -3.233   2.815  -7.627  0.00  0.00    +0.260 A 
ATOM      8  C   LIG    1       -2.198   2.037  -8.165  0.00  0.00    +0.040 A 
ATOM      9  C   LIG    1       -1.343   1.387  -7.331  0.00  0.00    -0.070 A 
ATOM     10  C   LIG    1       -1.520   1.511  -5.928  0.00  0.00    -0.110 A 
ENDROOT
BRANCH   7  11
ATOM     11  C   LIG    1       -4.160   3.520  -8.532  0.00  0.00    -0.180 A 
ATOM     12  C   LIG    1       -5.196   4.292  -8.139  0.00  0.00    +0.080 A 
ATOM     13  C   LIG    1       -5.920   4.851  -9.169  0.00  0.00    +0.010 A 
ATOM     14  C   LIG    1       -5.494   4.537 -10.398  0.00  0.00    -0.020 A 
ATOM     15  S   LIG    1       -4.093   3.479 -10.289  0.00  0.00    +0.150 S 
ENDBRANCH   7  11
BRANCH   9  16
ATOM     16  C   LIG    1       -0.223   0.545  -7.888  0.00  0.00    +0.510 C 
ATOM     17  F   LIG    1       -0.273  -0.732  -7.320  0.00  0.00    -0.160 F 
ATOM     18  F   LIG    1        1.005   1.143  -7.585  0.00  0.00    -0.160 F 
ATOM     19  F   LIG    1       -0.362   0.444  -9.276  0.00  0.00    -0.170 F 
ENDBRANCH   9  16
BRANCH   3  20
ATOM     20  C   LIG    1       -0.544   0.749  -2.423  0.00  0.00    +0.550 C 
ATOM     21  O   LIG    1        0.424   0.017  -2.490  0.00  0.00    -0.480 OA
BRANCH  20  22
ATOM     22  O   LIG    1       -1.035   1.111  -1.220  0.00  0.00    -0.330 OA
BRANCH  22  23
ATOM     23  C   LIG    1       -0.356   0.589  -0.048  0.00  0.00    +0.270 C 
BRANCH  23  24
ATOM     24  C   LIG    1       -1.039   1.097   1.196  0.00  0.00    +0.520 C 
ATOM     25  N   LIG    1       -0.579   0.740   2.411  0.00  0.00    -0.610 N 
ATOM     26  C   LIG    1        0.585  -0.148   2.540  0.00  0.00    +0.260 C 
ATOM     27  C   LIG    1        1.621   0.532   3.447  0.00  0.00    +0.010 C 
ATOM     28  C   LIG    1        0.962   0.900   4.778  0.00  0.00    +0.020 C 
ATOM     29  C   LIG    1       -0.181   1.887   4.528  0.00  0.00    +0.010 C 
ATOM     30  C   LIG    1       -1.234   1.226   3.633  0.00  0.00    +0.280 C 
ATOM     31  O   LIG    1       -2.003   1.827   1.103  0.00  0.00    -0.510 OA
ENDBRANCH  23  24
ENDBRANCH  22  23
ENDBRANCH  20  22
ENDBRANCH   3  20
TORSDOF 6
