REMARK  Name = ZINCqH0000032nQN.0
REMARK                            x       y       z     vdW  Elec       q    Type
REMARK                         _______ _______ _______ _____ _____    ______ ____
ROOT
ATOM      1  C   LIG    1       -4.631   1.102  -0.361  0.00  0.00    +0.520 C 
ATOM      2  N   LIG    1       -5.816   1.679  -0.646  0.00  0.00    -0.660 N 
ATOM      3  H   LIG    1       -5.940   2.630  -0.501  0.00  0.00    +0.420 HD
ATOM      4  O   LIG    1       -4.442  -0.064  -0.637  0.00  0.00    -0.490 OA
ENDROOT
BRANCH   2   5
ATOM      5  C   LIG    1       -6.868   0.904  -1.152  0.00  0.00    +0.170 A 
ATOM      6  C   LIG    1       -6.987  -0.431  -0.790  0.00  0.00    +0.030 A 
ATOM      7  C   LIG    1       -8.026  -1.196  -1.288  0.00  0.00    +0.060 A 
ATOM      8  C   LIG    1       -8.953  -0.637  -2.148  0.00  0.00    +0.000 A 
ATOM      9  C   LIG    1       -8.841   0.695  -2.514  0.00  0.00    +0.110 A 
ATOM     10  N   LIG    1       -9.773   1.278  -3.385  0.00  0.00    -0.660 N 
ATOM     11  H   LIG    1      -10.619   0.840  -3.566  0.00  0.00    +0.420 HD
ATOM     12  C   LIG    1       -9.475   2.460  -3.968  0.00  0.00    +0.490 C 
ATOM     13  O   LIG    1      -10.277   2.997  -4.701  0.00  0.00    -0.510 OA
ATOM     14  C   LIG    1       -8.139   3.108  -3.703  0.00  0.00    +0.300 C 
ATOM     15  O   LIG    1       -7.698   2.776  -2.384  0.00  0.00    -0.310 OA
ATOM     16  C   LIG    1       -7.801   1.471  -2.012  0.00  0.00    +0.050 A 
ENDBRANCH   2   5
BRANCH   1  17
ATOM     17  C   LIG    1       -3.542   1.906   0.301  0.00  0.00    +0.180 C 
BRANCH  17  19
ATOM     18  C   LIG    1       -2.763   2.879   2.466  0.00  0.00    +0.040 C 
ATOM     19  C   LIG    1       -3.927   2.187   1.755  0.00  0.00    -0.020 C 
ATOM     20  C   LIG    1       -5.158   3.094   1.791  0.00  0.00    +0.040 C 
ENDBRANCH  17  19
BRANCH  17  21
ATOM     21  O   LIG    1       -2.318   1.169   0.266  0.00  0.00    -0.280 OA
BRANCH  21  22
ATOM     22  C   LIG    1       -1.174   1.881   0.087  0.00  0.00    +0.140 A 
ATOM     23  C   LIG    1       -1.233   3.254  -0.100  0.00  0.00    -0.070 A 
ATOM     24  C   LIG    1       -0.069   3.977  -0.276  0.00  0.00    +0.080 A 
ATOM     25  C   LIG    1        1.154   3.333  -0.271  0.00  0.00    -0.010 A 
ATOM     26  C   LIG    1        1.216   1.962  -0.090  0.00  0.00    +0.010 A 
ATOM     27 CL   LIG    1        2.753   1.156  -0.084  0.00  0.00    -0.060 Cl
ATOM     28  C   LIG    1        0.053   1.235   0.086  0.00  0.00    +0.000 A 
ENDBRANCH  21  22
ENDBRANCH  17  21
ENDBRANCH   1  17
TORSDOF 5
