REMARK  Name = ZINCpk00000KfLTU.0
REMARK                            x       y       z     vdW  Elec       q    Type
REMARK                         _______ _______ _______ _____ _____    ______ ____
ROOT
ATOM      1  N   LIG    1       -0.085   9.597   3.201  0.00  0.00    -0.480 N 
ATOM      2  C   LIG    1       -1.484   9.594   2.753  0.00  0.00    +0.190 C 
ATOM      3  C   LIG    1       -2.099   8.216   3.019  0.00  0.00    +0.280 C 
ATOM      4  N   LIG    1       -1.244   7.195   2.394  0.00  0.00    -0.630 N 
ATOM      5  C   LIG    1        0.196   7.216   2.693  0.00  0.00    +0.310 C 
ATOM      6  C   LIG    1       -1.767   6.261   1.574  0.00  0.00    +0.710 C 
ATOM      7  N   LIG    1       -3.071   6.315   1.237  0.00  0.00    -0.740 N 
ATOM      8  H   LIG    1       -3.649   6.981   1.642  0.00  0.00    +0.410 HD
ATOM      9  O   LIG    1       -1.062   5.371   1.139  0.00  0.00    -0.590 OA
ATOM     10  C   LIG    1        0.721   8.637   2.435  0.00  0.00    +0.190 C 
ENDROOT
BRANCH   1  14
ATOM     11  C   LIG    1        1.545  13.427   2.980  0.00  0.00    +0.100 A 
ATOM     12  C   LIG    1        2.319  12.370   3.433  0.00  0.00    +0.000 A 
ATOM     13  C   LIG    1        1.780  11.100   3.506  0.00  0.00    +0.030 A 
ATOM     14  C   LIG    1        0.462  10.883   3.127  0.00  0.00    +0.070 A 
ATOM     15  C   LIG    1       -0.311  11.942   2.668  0.00  0.00    +0.000 A 
ATOM     16  C   LIG    1        0.228  13.211   2.600  0.00  0.00    -0.050 A 
BRANCH  11  18
ATOM     17  C   LIG    1        1.222  15.719   2.433  0.00  0.00    +0.240 C 
ATOM     18  O   LIG    1        2.076  14.677   2.908  0.00  0.00    -0.320 OA
ENDBRANCH  11  18
ENDBRANCH   1  14
BRANCH   7  19
ATOM     19  C   LIG    1       -3.614   5.369   0.260  0.00  0.00    +0.360 C 
ATOM     20  C   LIG    1       -4.002   4.070   0.970  0.00  0.00    +0.060 C 
BRANCH  19  21
ATOM     21  C   LIG    1       -4.833   5.966  -0.395  0.00  0.00    +0.160 A 
ATOM     22  N   LIG    1       -5.808   6.589   0.209  0.00  0.00    -0.280 NA
ATOM     23  N   LIG    1       -6.681   6.967  -0.656  0.00  0.00    -0.290 NA
ATOM     24  C   LIG    1       -6.303   6.603  -1.851  0.00  0.00    +0.380 A 
ATOM     25  N   LIG    1       -5.121   5.953  -1.718  0.00  0.00    -0.470 N 
ATOM     26  C   LIG    1       -4.318   5.358  -2.789  0.00  0.00    +0.350 C 
ENDBRANCH  19  21
ENDBRANCH   7  19
TORSDOF 4
