REMARK  Name = ZINCnE000008JhHe.0
REMARK                            x       y       z     vdW  Elec       q    Type
REMARK                         _______ _______ _______ _____ _____    ______ ____
ROOT
ATOM      1  C   LIG    1       -0.155   0.832   2.404  0.00  0.00    +0.240 C 
ATOM      2  C   LIG    1       -1.181   1.064   3.515  0.00  0.00    +0.050 C 
ATOM      3  C   LIG    1       -1.402   2.569   3.692  0.00  0.00    +0.000 C 
ATOM      4  C   LIG    1       -1.864   3.170   2.361  0.00  0.00    +0.010 C 
ATOM      5  C   LIG    1       -0.818   2.876   1.284  0.00  0.00    +0.170 C 
ATOM      6  N   LIG    1       -0.644   1.424   1.152  0.00  0.00    -0.520 NA
ENDROOT
BRANCH   1  10
ATOM      7  O   LIG    1        0.819  -3.793   3.214  0.00  0.00    -0.650 OA
ATOM      8  C   LIG    1        0.509  -2.765   2.640  0.00  0.00    +0.580 A 
ATOM      9  N   LIG    1        0.431  -1.536   3.189  0.00  0.00    -0.680 NA
ATOM     10  C   LIG    1        0.051  -0.649   2.212  0.00  0.00    +0.230 A 
ATOM     11  N   LIG    1       -0.107  -1.294   1.101  0.00  0.00    -0.380 NA
ATOM     12  N   LIG    1        0.181  -2.645   1.337  0.00  0.00    -0.600 N 
ATOM     13  H   LIG    1        0.148  -3.362   0.684  0.00  0.00    +0.400 HD
ENDBRANCH   1  10
BRANCH   6  14
ATOM     14  C   LIG    1        0.251   1.100   0.032  0.00  0.00    +0.220 C 
BRANCH  14  15
ATOM     15  C   LIG    1       -0.486   1.325  -1.290  0.00  0.00    +0.210 C 
BRANCH  15  16
ATOM     16  O   LIG    1       -0.736   2.721  -1.464  0.00  0.00    -0.290 OA
BRANCH  16  17
ATOM     17  C   LIG    1       -1.387   3.095  -2.598  0.00  0.00    +0.160 A 
ATOM     18  C   LIG    1       -1.777   2.138  -3.522  0.00  0.00    -0.040 A 
ATOM     19  C   LIG    1       -2.440   2.519  -4.673  0.00  0.00    +0.080 A 
ATOM     20  C   LIG    1       -2.714   3.855  -4.904  0.00  0.00    -0.070 A 
ATOM     21  C   LIG    1       -2.326   4.812  -3.984  0.00  0.00    +0.090 A 
ATOM     22 CL   LIG    1       -3.547   4.331  -6.351  0.00  0.00    -0.070 Cl
ATOM     23  C   LIG    1       -1.668   4.435  -2.829  0.00  0.00    -0.070 A 
ATOM     24 CL   LIG    1       -1.188   5.635  -1.670  0.00  0.00    -0.050 Cl
ENDBRANCH  16  17
ENDBRANCH  15  16
ENDBRANCH  14  15
ENDBRANCH   6  14
TORSDOF 5
