REMARK  Name = ZINCqH00000029Sk.0
REMARK                            x       y       z     vdW  Elec       q    Type
REMARK                         _______ _______ _______ _____ _____    ______ ____
ROOT
ATOM      1  C   LIG    1       -1.482   3.014   0.507  0.00  0.00    +0.230 A 
ATOM      2  N   LIG    1       -1.011   3.772  -0.436  0.00  0.00    -0.280 NA
ATOM      3  N   LIG    1       -1.466   4.945  -0.531  0.00  0.00    -0.250 NA
ATOM      4  C   LIG    1       -2.375   5.312   0.325  0.00  0.00    -0.060 A 
ATOM      5  S   LIG    1       -2.688   3.946   1.397  0.00  0.00    +0.230 S 
ENDROOT
BRANCH   1   7
ATOM      6  C   LIG    1       -1.571   1.069   1.864  0.00  0.00    +0.510 C 
ATOM      7  N   LIG    1       -1.105   1.699   0.767  0.00  0.00    -0.480 N 
ATOM      8  O   LIG    1       -2.318   1.647   2.624  0.00  0.00    -0.500 OA
BRANCH   7   9
ATOM      9  C   LIG    1       -0.203   1.000  -0.151  0.00  0.00    +0.190 C 
ATOM     10  C   LIG    1       -0.003   1.605  -1.542  0.00  0.00    +0.070 C 
ATOM     11  C   LIG    1        1.118   1.687  -0.503  0.00  0.00    +0.040 C 
ENDBRANCH   7   9
BRANCH   6  13
ATOM     12  C   LIG    1       -1.827  -0.829   3.440  0.00  0.00    +0.070 C 
ATOM     13  C   LIG    1       -1.164  -0.355   2.145  0.00  0.00    +0.080 C 
ENDBRANCH   6  13
ENDBRANCH   1   7
BRANCH   4  14
ATOM     14  S   LIG    1       -3.158   6.889   0.396  0.00  0.00    +0.030 S 
BRANCH  14  15
ATOM     15  C   LIG    1       -2.384   7.791  -0.975  0.00  0.00    +0.170 C 
BRANCH  15  16
ATOM     16  C   LIG    1       -2.958   9.182  -1.048  0.00  0.00    -0.080 A 
ATOM     17  C   LIG    1       -2.366  10.211  -0.342  0.00  0.00    +0.050 A 
ATOM     18  C   LIG    1       -2.892  11.490  -0.409  0.00  0.00    +0.070 A 
ATOM     19  C   LIG    1       -4.013  11.738  -1.183  0.00  0.00    +0.050 A 
ATOM     20  C   LIG    1       -4.608  10.710  -1.890  0.00  0.00    -0.180 A 
ATOM     21  C   LIG    1       -5.833  10.990  -2.723  0.00  0.00    +0.300 C 
ATOM     22  O   LIG    1       -6.035   9.910  -3.644  0.00  0.00    -0.380 OA
ATOM     23  C   LIG    1       -5.976   8.625  -3.013  0.00  0.00    +0.440 C 
ATOM     24  O   LIG    1       -4.646   8.413  -2.531  0.00  0.00    -0.320 OA
ATOM     25  F   LIG    1       -2.312  12.496   0.281  0.00  0.00    -0.130 F 
ATOM     26  C   LIG    1       -4.078   9.431  -1.830  0.00  0.00    +0.150 A 
ENDBRANCH  15  16
ENDBRANCH  14  15
ENDBRANCH   4  14
TORSDOF 6
