REMARK  Name = ZINCtV000002LPgI.0
REMARK                            x       y       z     vdW  Elec       q    Type
REMARK                         _______ _______ _______ _____ _____    ______ ____
ROOT
ATOM      1  C   LIG    1        2.393  -0.013  -0.049  0.00  0.00    -0.100 A 
ATOM      2  C   LIG    1        2.194   1.362  -0.073  0.00  0.00    +0.070 A 
ATOM      3  C   LIG    1        0.914   1.875  -0.100  0.00  0.00    +0.040 A 
ATOM      4  C   LIG    1       -0.182   1.028  -0.105  0.00  0.00    +0.050 A 
ATOM      5  C   LIG    1       -0.006  -0.339  -0.082  0.00  0.00    +0.040 A 
ATOM      6  C   LIG    1        1.284  -0.875  -0.054  0.00  0.00    -0.100 A 
ENDROOT
BRANCH   6   7
ATOM      7  C   LIG    1        1.479  -2.335  -0.028  0.00  0.00    +0.550 C 
ATOM      8  N   LIG    1        0.412  -3.159  -0.032  0.00  0.00    -0.670 N 
ATOM      9  H   LIG    1       -0.482  -2.792  -0.113  0.00  0.00    +0.410 HD
ATOM     10  O   LIG    1        2.604  -2.798  -0.004  0.00  0.00    -0.470 OA
BRANCH   8  11
ATOM     11  C   LIG    1        0.594  -4.539   0.080  0.00  0.00    +0.160 A 
ATOM     12  C   LIG    1        1.697  -5.144  -0.512  0.00  0.00    +0.030 A 
ATOM     13  C   LIG    1        1.883  -6.504  -0.399  0.00  0.00    +0.090 A 
ATOM     14  C   LIG    1        0.955  -7.277   0.302  0.00  0.00    -0.050 A 
ATOM     15  C   LIG    1       -0.154  -6.668   0.891  0.00  0.00    +0.050 A 
ATOM     16  C   LIG    1       -0.331  -5.306   0.779  0.00  0.00    -0.010 A 
BRANCH  14  17
ATOM     17  C   LIG    1        1.148  -8.738   0.421  0.00  0.00    +0.120 A 
ATOM     18  N   LIG    1        2.140  -9.413  -0.085  0.00  0.00    -0.470 NA
ATOM     19  C   LIG    1        2.147 -10.710   0.122  0.00  0.00    +0.220 A 
ATOM     20  C   LIG    1        1.124 -11.192   0.836  0.00  0.00    -0.070 A 
ATOM     21  S   LIG    1        0.076  -9.845   1.275  0.00  0.00    +0.090 S 
ENDBRANCH  14  17
ENDBRANCH   8  11
ENDBRANCH   6   7
BRANCH   1  22
ATOM     22  S   LIG    1        4.026  -0.672  -0.013  0.00  0.00    +0.060 S 
BRANCH  22  28
ATOM     23  C   LIG    1        5.479  -1.593   2.133  0.00  0.00    -0.020 A 
ATOM     24  C   LIG    1        5.636  -1.930   3.480  0.00  0.00    +0.090 A 
ATOM     25  C   LIG    1        4.575  -1.798   4.350  0.00  0.00    +0.010 A 
ATOM     26  C   LIG    1        3.353  -1.327   3.898  0.00  0.00    +0.060 A 
ATOM     27  C   LIG    1        3.183  -0.984   2.572  0.00  0.00    +0.000 A 
ATOM     28  C   LIG    1        4.240  -1.109   1.680  0.00  0.00    -0.040 A 
BRANCH  23  30
ATOM     29  N   LIG    1        7.444  -1.844   0.500  0.00  0.00    -0.400 NA
ATOM     30  C   LIG    1        6.574  -1.733   1.222  0.00  0.00    +0.250 C 
ENDBRANCH  23  30
ENDBRANCH  22  28
ENDBRANCH   1  22
TORSDOF 6
