REMARK  Name = ZINCtV00000L6l25.0
REMARK                            x       y       z     vdW  Elec       q    Type
REMARK                         _______ _______ _______ _____ _____    ______ ____
ROOT
ATOM      1  C   LIG    1       -2.292   3.118   1.894  0.00  0.00    +0.240 C 
ATOM      2  N   LIG    1       -2.871   1.974   1.672  0.00  0.00    -0.220 NA
ATOM      3  N   LIG    1       -2.291   1.309   0.581  0.00  0.00    -0.470 N 
ATOM      4  C   LIG    1       -1.213   2.183   0.089  0.00  0.00    +0.510 C 
ATOM      5  N   LIG    1       -1.257   3.353   0.982  0.00  0.00    -0.580 N 
ENDROOT
BRANCH   4   6
ATOM      6  C   LIG    1        0.119   1.488   0.195  0.00  0.00    -0.130 A 
ATOM      7  C   LIG    1        0.884   1.283  -0.938  0.00  0.00    +0.060 A 
ATOM      8  C   LIG    1        2.104   0.640  -0.842  0.00  0.00    +0.030 A 
ATOM      9  C   LIG    1        2.560   0.202   0.389  0.00  0.00    -0.020 A 
ATOM     10  C   LIG    1        1.794   0.407   1.522  0.00  0.00    +0.030 A 
ATOM     11 CL   LIG    1        4.091  -0.607   0.510  0.00  0.00    -0.060 Cl
ATOM     12  C   LIG    1        0.574   1.050   1.425  0.00  0.00    +0.050 A 
ENDBRANCH   4   6
BRANCH   3  13
ATOM     13  C   LIG    1       -2.660   0.067   0.065  0.00  0.00    +0.240 A 
ATOM     14  C   LIG    1       -2.082  -0.399  -1.110  0.00  0.00    -0.030 A 
ATOM     15  C   LIG    1       -2.447  -1.631  -1.616  0.00  0.00    +0.070 A 
ATOM     16  C   LIG    1       -3.394  -2.397  -0.960  0.00  0.00    -0.070 A 
ATOM     17  C   LIG    1       -3.975  -1.934   0.208  0.00  0.00    +0.070 A 
ATOM     18 CL   LIG    1       -3.855  -3.942  -1.603  0.00  0.00    -0.070 Cl
ATOM     19  C   LIG    1       -3.612  -0.706   0.722  0.00  0.00    +0.000 A 
ENDBRANCH   3  13
BRANCH   5  20
ATOM     20  C   LIG    1       -0.428   4.476   0.929  0.00  0.00    +0.180 A 
ATOM     21  C   LIG    1       -0.504   5.347  -0.151  0.00  0.00    +0.020 A 
ATOM     22  C   LIG    1        0.312   6.460  -0.198  0.00  0.00    +0.040 A 
ATOM     23  C   LIG    1        1.213   6.702   0.825  0.00  0.00    -0.030 A 
ATOM     24  C   LIG    1        1.295   5.833   1.899  0.00  0.00    +0.050 A 
ATOM     25 CL   LIG    1        2.242   8.098   0.760  0.00  0.00    -0.060 Cl
ATOM     26  C   LIG    1        0.477   4.722   1.954  0.00  0.00    +0.040 A 
ENDBRANCH   5  20
BRANCH   1  28
ATOM     27  C   LIG    1       -3.700   3.604   3.941  0.00  0.00    +0.110 C 
ATOM     28  C   LIG    1       -2.661   4.011   2.928  0.00  0.00    +0.420 C 
ATOM     29  O   LIG    1       -2.140   5.106   3.000  0.00  0.00    -0.420 OA
ENDBRANCH   1  28
TORSDOF 4
