REMARK  Name = ZINCrg000000qN3p.0
REMARK                            x       y       z     vdW  Elec       q    Type
REMARK                         _______ _______ _______ _____ _____    ______ ____
ROOT
ATOM      1  C   LIG    1       -7.095   5.333   2.144  0.00  0.00    +0.590 C 
ATOM      2  N   LIG    1       -6.770   4.253   2.881  0.00  0.00    -0.600 N 
ATOM      3  C   LIG    1       -7.483   3.788   4.085  0.00  0.00    +0.240 C 
ATOM      4  C   LIG    1       -7.158   2.276   4.179  0.00  0.00    +0.040 C 
ATOM      5  C   LIG    1       -5.681   2.245   3.703  0.00  0.00    +0.060 C 
ATOM      6  C   LIG    1       -5.645   3.344   2.619  0.00  0.00    +0.220 C 
ATOM      7  O   LIG    1       -6.489   5.574   1.118  0.00  0.00    -0.500 OA
ENDROOT
BRANCH   6   8
ATOM      8  C   LIG    1       -4.344   4.100   2.701  0.00  0.00    +0.510 C 
ATOM      9  N   LIG    1       -3.176   3.456   2.508  0.00  0.00    -0.610 N 
ATOM     10  C   LIG    1       -1.896   4.176   2.583  0.00  0.00    +0.290 C 
ATOM     11  C   LIG    1       -1.087   3.863   1.319  0.00  0.00    +0.170 C 
ATOM     12  N   LIG    1       -0.973   2.407   1.162  0.00  0.00    -0.530 NA
ATOM     13  C   LIG    1       -2.291   1.787   0.967  0.00  0.00    +0.170 C 
ATOM     14  C   LIG    1       -3.148   2.015   2.216  0.00  0.00    +0.280 C 
ATOM     15  O   LIG    1       -4.348   5.289   2.940  0.00  0.00    -0.520 OA
BRANCH  12  16
ATOM     16  C   LIG    1       -0.062   2.066   0.061  0.00  0.00    +0.180 C 
BRANCH  16  17
ATOM     17  C   LIG    1        1.384   2.278   0.512  0.00  0.00    +0.170 C 
BRANCH  17  18
ATOM     18  O   LIG    1        1.693   1.367   1.569  0.00  0.00    -0.560 OA
ATOM     19  H   LIG    1        2.596   1.446   1.905  0.00  0.00    +0.380 HD
ENDBRANCH  17  18
ENDBRANCH  16  17
ENDBRANCH  12  16
ENDBRANCH   6   8
BRANCH   1  26
ATOM     20  C   LIG    1       -9.040   6.810   1.639  0.00  0.00    +0.190 A 
ATOM     21  C   LIG    1      -10.062   7.647   2.062  0.00  0.00    -0.050 A 
ATOM     22  C   LIG    1      -10.235   7.902   3.408  0.00  0.00    +0.100 A 
ATOM     23  C   LIG    1       -9.392   7.326   4.345  0.00  0.00    -0.080 A 
ATOM     24  C   LIG    1       -8.374   6.487   3.942  0.00  0.00    +0.110 A 
ATOM     25 CL   LIG    1       -9.623   7.656   6.034  0.00  0.00    -0.060 Cl
ATOM     26  C   LIG    1       -8.185   6.225   2.583  0.00  0.00    -0.150 A 
BRANCH  20  28
ATOM     27  C   LIG    1       -9.778   7.189  -0.587  0.00  0.00    +0.250 C 
ATOM     28  O   LIG    1       -8.869   6.558   0.317  0.00  0.00    -0.290 OA
ENDBRANCH  20  28
ENDBRANCH   1  26
TORSDOF 6
