REMARK  Name = ZINCrD0000072k6E.0
REMARK                            x       y       z     vdW  Elec       q    Type
REMARK                         _______ _______ _______ _____ _____    ______ ____
ROOT
ATOM      1  C   LIG    1        5.662   1.766   2.204  0.00  0.00    +0.530 C 
ATOM      2  N   LIG    1        4.396   1.341   2.023  0.00  0.00    -0.720 N 
ATOM      3  H   LIG    1        4.058   0.590   2.536  0.00  0.00    +0.410 HD
ATOM      4  O   LIG    1        6.084   2.704   1.561  0.00  0.00    -0.520 OA
ENDROOT
BRANCH   1   5
ATOM      5  C   LIG    1        6.553   1.075   3.204  0.00  0.00    +0.110 C 
BRANCH   5   6
ATOM      6  S   LIG    1        8.178   1.872   3.215  0.00  0.00    +0.060 S 
BRANCH   6  10
ATOM      7  C   LIG    1       12.456   2.136   4.859  0.00  0.00    -0.150 A 
ATOM      8  C   LIG    1       11.259   2.168   4.307  0.00  0.00    +0.050 A 
ATOM      9  C   LIG    1       10.339   1.155   4.789  0.00  0.00    -0.160 A 
ATOM     10  C   LIG    1        8.989   0.893   4.436  0.00  0.00    +0.190 A 
ATOM     11  N   LIG    1        8.351  -0.102   5.034  0.00  0.00    -0.530 NA
ATOM     12  C   LIG    1        8.948  -0.844   5.950  0.00  0.00    +0.540 A 
ATOM     13  N   LIG    1       10.192  -0.639   6.314  0.00  0.00    -0.490 NA
ATOM     14  C   LIG    1       10.919   0.343   5.767  0.00  0.00    +0.100 A 
ATOM     15  S   LIG    1       12.579   0.851   6.046  0.00  0.00    +0.180 S 
BRANCH   7  17
ATOM     16  C   LIG    1       13.505   4.311   5.426  0.00  0.00    +0.040 C 
ATOM     17  C   LIG    1       13.576   3.084   4.515  0.00  0.00    +0.110 C 
ENDBRANCH   7  17
ENDBRANCH   6  10
ENDBRANCH   5   6
ENDBRANCH   1   5
BRANCH   2  18
ATOM     18  C   LIG    1        3.530   2.012   1.050  0.00  0.00    +0.320 C 
BRANCH  18  19
ATOM     19  C   LIG    1        2.156   1.338   1.040  0.00  0.00    +0.140 C 
ATOM     20  C   LIG    1        1.254   2.018   0.001  0.00  0.00    +0.240 C 
ATOM     21  O   LIG    1       -0.016   1.357   0.009  0.00  0.00    -0.300 OA
ATOM     22  C   LIG    1        0.002  -0.004   0.002  0.00  0.00    +0.050 A 
ATOM     23  C   LIG    1       -1.147  -0.699  -0.346  0.00  0.00    +0.030 A 
ATOM     24  C   LIG    1       -1.144  -2.081  -0.356  0.00  0.00    +0.020 A 
ATOM     25  C   LIG    1        0.003  -2.775  -0.019  0.00  0.00    +0.020 A 
ATOM     26  C   LIG    1        1.152  -2.088   0.329  0.00  0.00    +0.020 A 
ATOM     27  C   LIG    1        1.156  -0.702   0.339  0.00  0.00    +0.050 A 
ATOM     28  O   LIG    1        2.296  -0.040   0.679  0.00  0.00    -0.300 OA
ENDBRANCH  18  19
ENDBRANCH   2  18
TORSDOF 6
