REMARK  Name = ZINCvU0000000FfP.0
REMARK                            x       y       z     vdW  Elec       q    Type
REMARK                         _______ _______ _______ _____ _____    ______ ____
ROOT
ATOM      1  C   LIG    1       -1.206   1.589   0.017  0.00  0.00    +0.610 C 
ATOM      2  N   LIG    1       -0.011   0.966   0.007  0.00  0.00    -0.660 N 
ATOM      3  H   LIG    1        0.031  -0.003   0.007  0.00  0.00    +0.410 HD
ATOM      4  O   LIG    1       -1.261   2.801  -0.067  0.00  0.00    -0.510 OA
ENDROOT
BRANCH   2   5
ATOM      5  C   LIG    1        1.170   1.718  -0.008  0.00  0.00    +0.160 A 
ATOM      6  C   LIG    1        1.222   2.915  -0.709  0.00  0.00    +0.040 A 
ATOM      7  C   LIG    1        2.385   3.662  -0.721  0.00  0.00    +0.060 A 
ATOM      8  C   LIG    1        3.504   3.212  -0.044  0.00  0.00    +0.020 A 
ATOM      9  O   LIG    1        4.761   3.744   0.098  0.00  0.00    -0.290 OA
ATOM     10  C   LIG    1        5.272   3.103   1.276  0.00  0.00    +0.250 C 
ATOM     11  O   LIG    1        4.683   1.795   1.232  0.00  0.00    -0.290 OA
ATOM     12  C   LIG    1        6.802   3.025   1.247  0.00  0.00    +0.080 C 
ATOM     13  C   LIG    1        7.254   4.207   2.144  0.00  0.00    +0.040 C 
ATOM     14  C   LIG    1        6.187   4.215   3.268  0.00  0.00    +0.030 C 
ATOM     15  C   LIG    1        4.870   3.857   2.543  0.00  0.00    +0.020 C 
ATOM     16  C   LIG    1        3.457   2.007   0.657  0.00  0.00    +0.050 A 
ATOM     17  C   LIG    1        2.292   1.263   0.673  0.00  0.00    +0.010 A 
ENDBRANCH   2   5
BRANCH   1  24
ATOM     18  C   LIG    1       -2.645   0.768   2.724  0.00  0.00    +0.160 C 
ATOM     19  C   LIG    1       -3.098   0.428   1.328  0.00  0.00    +0.120 A 
ATOM     20  N   LIG    1       -4.162  -0.258   1.012  0.00  0.00    -0.270 NA
ATOM     21  N   LIG    1       -4.236  -0.364  -0.381  0.00  0.00    -0.350 N 
ATOM     22  C   LIG    1       -3.187   0.283  -0.914  0.00  0.00    +0.140 A 
ATOM     23  C   LIG    1       -2.876   0.420  -2.382  0.00  0.00    +0.160 C 
ATOM     24  C   LIG    1       -2.447   0.801   0.130  0.00  0.00    -0.290 A 
BRANCH  21  25
ATOM     25  C   LIG    1       -5.281  -1.065  -1.131  0.00  0.00    +0.390 C 
BRANCH  25  26
ATOM     26  C   LIG    1       -4.874  -2.501  -1.338  0.00  0.00    -0.120 A 
ATOM     27  C   LIG    1       -4.247  -2.880  -2.509  0.00  0.00    +0.040 A 
ATOM     28  C   LIG    1       -3.869  -4.197  -2.697  0.00  0.00    +0.010 A 
ATOM     29  C   LIG    1       -4.129  -5.137  -1.717  0.00  0.00    +0.050 A 
ATOM     30  C   LIG    1       -4.761  -4.760  -0.547  0.00  0.00    +0.030 A 
ATOM     31  C   LIG    1       -5.134  -3.442  -0.357  0.00  0.00    -0.010 A 
ATOM     32 CL   LIG    1       -5.927  -2.967   1.113  0.00  0.00    -0.050 Cl
ENDBRANCH  25  26
ENDBRANCH  21  25
ENDBRANCH   1  24
TORSDOF 4
