REMARK  Name = ZINCvU0000000G5H.0
REMARK                            x       y       z     vdW  Elec       q    Type
REMARK                         _______ _______ _______ _____ _____    ______ ____
ROOT
ATOM      1  C   LIG    1       -1.884   7.623  -0.040  0.00  0.00    +0.160 C 
ENDROOT
BRANCH   1   2
ATOM      2  C   LIG    1       -1.401   8.343   1.193  0.00  0.00    -0.080 A 
ATOM      3  C   LIG    1       -1.589   7.780   2.441  0.00  0.00    +0.060 A 
ATOM      4  C   LIG    1       -1.141   8.438   3.571  0.00  0.00    +0.000 A 
ATOM      5  C   LIG    1       -0.515   9.665   3.454  0.00  0.00    +0.010 A 
ATOM      6  C   LIG    1       -0.332  10.231   2.206  0.00  0.00    +0.000 A 
ATOM      7  C   LIG    1       -0.776   9.570   1.075  0.00  0.00    +0.010 A 
ENDBRANCH   1   2
BRANCH   1   9
ATOM      8  C   LIG    1       -0.295   5.837   0.344  0.00  0.00    +0.210 C 
ATOM      9  N   LIG    1       -1.710   6.176   0.139  0.00  0.00    -0.500 NA
BRANCH   9  10
ATOM     10  C   LIG    1       -2.269   5.433  -0.998  0.00  0.00    +0.220 C 
BRANCH  10  11
ATOM     11  C   LIG    1       -2.296   3.962  -0.674  0.00  0.00    +0.520 C 
ATOM     12  N   LIG    1       -2.772   3.081  -1.576  0.00  0.00    -0.670 N 
ATOM     13  H   LIG    1       -3.020   3.383  -2.464  0.00  0.00    +0.410 HD
ATOM     14  O   LIG    1       -1.889   3.570   0.399  0.00  0.00    -0.490 OA
BRANCH  12  15
ATOM     15  C   LIG    1       -2.909   1.731  -1.232  0.00  0.00    +0.160 A 
ATOM     16  C   LIG    1       -3.062   1.365   0.098  0.00  0.00    +0.040 A 
ATOM     17  C   LIG    1       -3.198   0.032   0.435  0.00  0.00    +0.040 A 
ATOM     18  C   LIG    1       -3.181  -0.937  -0.551  0.00  0.00    +0.000 A 
ATOM     19  C   LIG    1       -3.029  -0.577  -1.877  0.00  0.00    +0.050 A 
ATOM     20  C   LIG    1       -2.894   0.755  -2.221  0.00  0.00    -0.070 A 
ATOM     21 CL   LIG    1       -2.704   1.208  -3.886  0.00  0.00    -0.070 Cl
ENDBRANCH  12  15
ENDBRANCH  10  11
ENDBRANCH   9  10
ENDBRANCH   1   9
BRANCH   1  22
ATOM     22  C   LIG    1       -3.343   7.929  -0.261  0.00  0.00    +0.430 C 
ATOM     23  O   LIG    1       -4.193   7.174   0.163  0.00  0.00    -0.440 OA
BRANCH  22  24
ATOM     24  C   LIG    1       -3.723   9.100  -0.965  0.00  0.00    -0.270 A 
ATOM     25  C   LIG    1       -2.882  10.050  -1.505  0.00  0.00    +0.320 A 
ATOM     26  N   LIG    1       -3.612  11.015  -2.096  0.00  0.00    -0.570 N 
ATOM     27  H   LIG    1       -3.240  11.790  -2.546  0.00  0.00    +0.420 HD
ATOM     28  C   LIG    1       -4.961  10.750  -1.976  0.00  0.00    +0.070 A 
ATOM     29  C   LIG    1       -6.102  11.421  -2.404  0.00  0.00    +0.000 A 
ATOM     30  C   LIG    1       -7.349  10.901  -2.130  0.00  0.00    +0.030 A 
ATOM     31  C   LIG    1       -7.480   9.712  -1.429  0.00  0.00    +0.000 A 
ATOM     32  C   LIG    1       -6.361   9.033  -0.996  0.00  0.00    +0.060 A 
ATOM     33  C   LIG    1       -5.096   9.543  -1.272  0.00  0.00    -0.060 A 
ENDBRANCH  22  24
ENDBRANCH   1  22
TORSDOF 7
