REMARK  Name = ZINCpk00000xI7p3.0
REMARK                            x       y       z     vdW  Elec       q    Type
REMARK                         _______ _______ _______ _____ _____    ______ ____
ROOT
ATOM      1  C   LIG    1        3.561  -1.599  -0.803  0.00  0.00    +0.500 C 
ATOM      2  O   LIG    1        4.492  -0.849  -1.024  0.00  0.00    -0.550 OA
ENDROOT
BRANCH   1   9
ATOM      3  N   LIG    1        0.851   0.629  -1.632  0.00  0.00    -0.370 N 
ATOM      4  N   LIG    1        1.071   1.944  -2.064  0.00  0.00    -0.490 N 
ATOM      5  H   LIG    1        0.384   2.586  -2.303  0.00  0.00    +0.450 HD
ATOM      6  C   LIG    1        2.416   2.164  -2.095  0.00  0.00    +0.350 A 
ATOM      7  C   LIG    1        3.053   1.040  -1.700  0.00  0.00    -0.110 A 
ATOM      8  C   LIG    1        2.081   0.063  -1.404  0.00  0.00    +0.490 A 
ATOM      9  N   LIG    1        2.313  -1.180  -0.982  0.00  0.00    -0.690 NA
BRANCH   3  11
ATOM     10  C   LIG    1       -1.196  -0.038  -2.792  0.00  0.00    +0.040 C 
ATOM     11  C   LIG    1       -0.450  -0.021  -1.456  0.00  0.00    +0.330 C 
BRANCH  11  12
ATOM     12  C   LIG    1       -1.271   0.752  -0.422  0.00  0.00    -0.080 C 
ATOM     13  C   LIG    1       -1.537   0.071   0.922  0.00  0.00    +0.030 C 
ATOM     14  C   LIG    1       -2.671   0.227  -0.095  0.00  0.00    +0.030 C 
ENDBRANCH  11  12
ENDBRANCH   3  11
ENDBRANCH   1   9
BRANCH   1  15
ATOM     15  C   LIG    1        3.823  -3.004  -0.326  0.00  0.00    +0.220 C 
BRANCH  15  16
ATOM     16  N   LIG    1        5.272  -3.219  -0.209  0.00  0.00    -0.500 NA
ATOM     17  C   LIG    1        5.809  -2.550   0.983  0.00  0.00    +0.170 C 
ATOM     18  C   LIG    1        7.334  -2.671   0.994  0.00  0.00    +0.020 C 
ATOM     19  C   LIG    1        7.723  -4.152   1.000  0.00  0.00    +0.000 C 
ATOM     20  C   LIG    1        7.111  -4.837  -0.226  0.00  0.00    +0.040 C 
ATOM     21  C   LIG    1        5.592  -4.652  -0.202  0.00  0.00    +0.130 C 
BRANCH  21  22
ATOM     22  C   LIG    1        4.979  -5.318  -1.435  0.00  0.00    +0.320 C 
ATOM     23  O   LIG    1        5.421  -6.683  -1.518  0.00  0.00    -0.380 OA
ATOM     24  C   LIG    1        5.569  -6.941  -2.933  0.00  0.00    +0.210 C 
ATOM     25  C   LIG    1        6.098  -5.579  -3.446  0.00  0.00    +0.200 C 
ATOM     26  O   LIG    1        5.402  -4.626  -2.617  0.00  0.00    -0.360 OA
ENDBRANCH  21  22
ENDBRANCH  15  16
ENDBRANCH   1  15
TORSDOF 6
