REMARK  Name = ZINCvU0000000AWk.0
REMARK                            x       y       z     vdW  Elec       q    Type
REMARK                         _______ _______ _______ _____ _____    ______ ____
ROOT
ATOM      1  C   LIG    1       -1.262   7.657  -0.159  0.00  0.00    -0.150 A 
ATOM      2  C   LIG    1       -0.062   8.371  -0.161  0.00  0.00    +0.170 A 
ATOM      3  C   LIG    1       -0.083   9.747  -0.264  0.00  0.00    -0.690 A 
ATOM      4  C   LIG    1       -1.289  10.420  -0.353  0.00  0.00    +0.180 A 
ATOM      5  C   LIG    1       -2.482   9.720  -0.346  0.00  0.00    +0.020 A 
ATOM      6  C   LIG    1       -2.476   8.342  -0.249  0.00  0.00    +0.070 A 
ATOM      7 CL   LIG    1       -3.974   7.464  -0.239  0.00  0.00    -0.010 Cl
ENDROOT
BRANCH   1  10
ATOM      8  N   LIG    1       -0.074   5.525   0.032  0.00  0.00    -0.670 N 
ATOM      9  H   LIG    1        0.756   6.021   0.104  0.00  0.00    +0.410 HD
ATOM     10  C   LIG    1       -1.247   6.183  -0.055  0.00  0.00    +0.560 C 
ATOM     11  O   LIG    1       -2.293   5.564  -0.048  0.00  0.00    -0.490 OA
BRANCH   8  15
ATOM     12  C   LIG    1       -0.013   1.356  -0.006  0.00  0.00    +0.130 A 
ATOM     13  C   LIG    1        0.921   2.056   0.743  0.00  0.00    -0.040 A 
ATOM     14  C   LIG    1        0.905   3.437   0.751  0.00  0.00    +0.040 A 
ATOM     15  C   LIG    1       -0.054   4.125   0.019  0.00  0.00    +0.120 A 
ATOM     16  C   LIG    1       -0.992   3.424  -0.727  0.00  0.00    +0.080 A 
ATOM     17  C   LIG    1       -0.972   2.042  -0.739  0.00  0.00    -0.050 A 
ATOM     18 CL   LIG    1       -2.145   1.165  -1.670  0.00  0.00    -0.050 Cl
BRANCH  12  20
ATOM     19  C   LIG    1        1.021  -0.645   0.759  0.00  0.00    +0.240 C 
ATOM     20  O   LIG    1        0.007  -0.004  -0.018  0.00  0.00    -0.300 OA
ENDBRANCH  12  20
ENDBRANCH   8  15
ENDBRANCH   1  10
BRANCH   3  21
ATOM     21  S   LIG    1        1.430  10.650  -0.274  0.00  0.00    +2.690 S 
ATOM     22  O   LIG    1        1.155  11.887  -0.917  0.00  0.00    -0.940 OA
ATOM     23  O   LIG    1        2.433   9.748  -0.722  0.00  0.00    -0.940 OA
BRANCH  21  24
ATOM     24  N   LIG    1        1.796  11.011   1.300  0.00  0.00    -0.990 NA
ATOM     25  C   LIG    1        1.309  12.257   1.897  0.00  0.00    +0.310 C 
BRANCH  24  26
ATOM     26  C   LIG    1        2.607  10.085   2.095  0.00  0.00    +0.340 C 
BRANCH  26  27
ATOM     27  C   LIG    1        4.052  10.508   2.039  0.00  0.00    -0.120 A 
ATOM     28  C   LIG    1        4.880  10.010   1.050  0.00  0.00    +0.040 A 
ATOM     29  C   LIG    1        6.205  10.401   0.995  0.00  0.00    +0.000 A 
ATOM     30  C   LIG    1        6.704  11.282   1.936  0.00  0.00    +0.010 A 
ATOM     31  C   LIG    1        5.878  11.776   2.929  0.00  0.00    -0.010 A 
ATOM     32  C   LIG    1        4.552  11.389   2.980  0.00  0.00    +0.020 A 
ENDBRANCH  26  27
ENDBRANCH  24  26
ENDBRANCH  21  24
ENDBRANCH   3  21
TORSDOF 7
