REMARK  Name = ZINCrD000000C9th.0
REMARK                            x       y       z     vdW  Elec       q    Type
REMARK                         _______ _______ _______ _____ _____    ______ ____
ROOT
ATOM      1  O   LIG    1       -1.644  -0.341  -2.044  0.00  0.00    -0.490 OA
ATOM      2  C   LIG    1       -2.659   0.070  -1.516  0.00  0.00    +0.600 C 
ATOM      3  N   LIG    1       -2.606   1.132  -0.688  0.00  0.00    -0.640 N 
ATOM      4  H   LIG    1       -3.426   1.514  -0.337  0.00  0.00    +0.420 HD
ENDROOT
BRANCH   3   5
ATOM      5  C   LIG    1       -1.377   1.681  -0.338  0.00  0.00    +0.200 A 
ATOM      6  C   LIG    1       -0.216   0.929  -0.465  0.00  0.00    +0.020 A 
ATOM      7  C   LIG    1        1.004   1.478  -0.122  0.00  0.00    +0.060 A 
ATOM      8  C   LIG    1        1.080   2.776   0.355  0.00  0.00    -0.010 A 
ATOM      9  C   LIG    1       -0.063   3.535   0.494  0.00  0.00    +0.060 A 
ATOM     10  C   LIG    1       -1.304   2.994   0.151  0.00  0.00    -0.160 A 
BRANCH  10  11
ATOM     11  C   LIG    1       -2.530   3.800   0.297  0.00  0.00    +0.570 C 
ATOM     12  N   LIG    1       -2.756   4.484   1.436  0.00  0.00    -0.610 N 
ATOM     13  C   LIG    1       -1.826   4.591   2.570  0.00  0.00    +0.230 C 
ATOM     14  C   LIG    1       -2.518   5.447   3.651  0.00  0.00    +0.040 C 
ATOM     15  C   LIG    1       -4.022   5.295   3.302  0.00  0.00    +0.040 C 
ATOM     16  C   LIG    1       -3.978   5.245   1.754  0.00  0.00    +0.250 C 
ATOM     17  O   LIG    1       -3.338   3.848  -0.611  0.00  0.00    -0.530 OA
ENDBRANCH  10  11
ENDBRANCH   3   5
BRANCH   2  18
ATOM     18  C   LIG    1       -3.949  -0.596  -1.782  0.00  0.00    +0.050 C 
ATOM     19  N   LIG    1       -5.090  -0.260  -1.280  0.00  0.00    -0.230 NA
ATOM     20  O   LIG    1       -6.150  -1.080  -1.730  0.00  0.00    -0.170 OA
ATOM     21  C   LIG    1       -5.569  -2.284  -2.271  0.00  0.00    +0.200 C 
ATOM     22  C   LIG    1       -4.161  -1.795  -2.686  0.00  0.00    +0.110 C 
BRANCH  21  23
ATOM     23  C   LIG    1       -6.346  -2.768  -3.468  0.00  0.00    -0.100 A 
ATOM     24  C   LIG    1       -6.972  -1.858  -4.299  0.00  0.00    +0.040 A 
ATOM     25  C   LIG    1       -7.681  -2.301  -5.400  0.00  0.00    +0.010 A 
ATOM     26  C   LIG    1       -7.773  -3.655  -5.663  0.00  0.00    +0.020 A 
ATOM     27  C   LIG    1       -7.152  -4.565  -4.829  0.00  0.00    +0.010 A 
ATOM     28  C   LIG    1       -6.439  -4.122  -3.731  0.00  0.00    +0.030 A 
ENDBRANCH  21  23
ENDBRANCH   2  18
TORSDOF 4
