REMARK  Name = ZINCpk00000ebLl4.0
REMARK                            x       y       z     vdW  Elec       q    Type
REMARK                         _______ _______ _______ _____ _____    ______ ____
ROOT
ATOM      1  C   LIG    1       -2.300  -4.278   0.000  0.00  0.00    +0.400 C 
ATOM      2  O   LIG    1       -1.172  -4.724  -0.013  0.00  0.00    -0.420 OA
ENDROOT
BRANCH   1  10
ATOM      3  O   LIG    1       -5.074 -10.820  -0.299  0.00  0.00    -0.500 OA
ATOM      4  C   LIG    1       -5.199  -9.614  -0.316  0.00  0.00    +0.490 C 
ATOM      5  C   LIG    1       -6.524  -8.995  -0.682  0.00  0.00    +0.310 C 
ATOM      6  O   LIG    1       -6.689  -7.760   0.021  0.00  0.00    -0.300 OA
ATOM      7  C   LIG    1       -5.631  -6.909   0.017  0.00  0.00    +0.120 A 
ATOM      8  C   LIG    1       -5.832  -5.536   0.026  0.00  0.00    +0.030 A 
ATOM      9  C   LIG    1       -4.753  -4.679   0.021  0.00  0.00    +0.090 A 
ATOM     10  C   LIG    1       -3.450  -5.192   0.006  0.00  0.00    -0.160 A 
ATOM     11  C   LIG    1       -3.247  -6.578  -0.009  0.00  0.00    +0.090 A 
ATOM     12  C   LIG    1       -4.333  -7.428   0.002  0.00  0.00    +0.080 A 
ATOM     13  N   LIG    1       -4.152  -8.819  -0.005  0.00  0.00    -0.660 N 
ATOM     14  H   LIG    1       -3.287  -9.204   0.208  0.00  0.00    +0.420 HD
ENDBRANCH   1  10
BRANCH   1  15
ATOM     15  C   LIG    1       -2.522  -2.788   0.010  0.00  0.00    +0.240 C 
BRANCH  15  16
ATOM     16  O   LIG    1       -1.239  -2.108   0.002  0.00  0.00    -0.340 OA
BRANCH  16  17
ATOM     17  C   LIG    1       -1.260  -0.760   0.009  0.00  0.00    +0.510 C 
ATOM     18  O   LIG    1       -2.322  -0.170   0.022  0.00  0.00    -0.490 OA
BRANCH  17  19
ATOM     19  C   LIG    1        0.002  -0.004   0.002  0.00  0.00    -0.170 A 
ATOM     20  C   LIG    1        1.226  -0.681  -0.013  0.00  0.00    +0.120 A 
ATOM     21  C   LIG    1        2.404   0.030  -0.021  0.00  0.00    -0.030 A 
ATOM     22  C   LIG    1        2.383   1.421  -0.013  0.00  0.00    +0.170 A 
ATOM     23  C   LIG    1        1.175   2.103   0.002  0.00  0.00    -0.040 A 
ATOM     24  C   LIG    1       -0.017   1.400   0.010  0.00  0.00    +0.200 A 
BRANCH  22  25
ATOM     25  O   LIG    1        3.550   2.114  -0.021  0.00  0.00    -0.490 OA
ATOM     26  H   LIG    1        3.879   2.320  -0.907  0.00  0.00    +0.400 HD
ENDBRANCH  22  25
BRANCH  24  27
ATOM     27  O   LIG    1       -1.199   2.064   0.019  0.00  0.00    -0.480 OA
ATOM     28  H   LIG    1       -1.538   2.252   0.905  0.00  0.00    +0.400 HD
ENDBRANCH  24  27
ENDBRANCH  17  19
ENDBRANCH  16  17
ENDBRANCH  15  16
ENDBRANCH   1  15
TORSDOF 7
