REMARK  Name = ZINCrg00000ShUOd.0
REMARK                            x       y       z     vdW  Elec       q    Type
REMARK                         _______ _______ _______ _____ _____    ______ ____
ROOT
ATOM      1  N   LIG    1        0.671  -4.151  -3.954  0.00  0.00    -0.670 N 
ATOM      2  H   LIG    1        0.586  -3.818  -4.862  0.00  0.00    +0.420 HD
ATOM      3  C   LIG    1        0.257  -3.395  -2.918  0.00  0.00    +0.500 C 
ATOM      4  O   LIG    1        0.274  -3.847  -1.793  0.00  0.00    -0.500 OA
ENDROOT
BRANCH   1   9
ATOM      5  C   LIG    1        2.517  -6.907  -2.348  0.00  0.00    -0.120 A 
ATOM      6  C   LIG    1        2.312  -7.930  -3.276  0.00  0.00    +0.030 A 
ATOM      7  C   LIG    1        1.568  -7.691  -4.413  0.00  0.00    +0.040 A 
ATOM      8  C   LIG    1        1.025  -6.440  -4.639  0.00  0.00    +0.010 A 
ATOM      9  C   LIG    1        1.223  -5.415  -3.721  0.00  0.00    +0.140 A 
ATOM     10  C   LIG    1        1.973  -5.644  -2.578  0.00  0.00    +0.090 A 
BRANCH   5  14
ATOM     11  C   LIG    1        4.633  -8.632   0.297  0.00  0.00    +0.290 C 
ATOM     12  N   LIG    1        3.843  -8.381  -0.911  0.00  0.00    -0.730 N 
ATOM     13  H   LIG    1        3.701  -9.093  -1.554  0.00  0.00    +0.400 HD
ATOM     14  C   LIG    1        3.314  -7.161  -1.129  0.00  0.00    +0.560 C 
ATOM     15  O   LIG    1        3.492  -6.269  -0.322  0.00  0.00    -0.530 OA
ENDBRANCH   5  14
ENDBRANCH   1   9
BRANCH   3  16
ATOM     16  C   LIG    1       -0.228  -1.988  -3.158  0.00  0.00    +0.370 C 
BRANCH  16  17
ATOM     17  N   LIG    1       -0.618  -1.382  -1.882  0.00  0.00    -0.560 N 
ATOM     18  C   LIG    1       -1.850  -1.449  -1.365  0.00  0.00    +0.710 C 
ATOM     19  N   LIG    1       -1.948  -0.810  -0.180  0.00  0.00    -0.710 N 
ATOM     20  H   LIG    1       -2.739  -0.730   0.374  0.00  0.00    +0.440 HD
ATOM     21  C   LIG    1       -0.613  -0.257   0.106  0.00  0.00    +0.210 C 
ATOM     22  C   LIG    1       -0.671   1.269   0.198  0.00  0.00    +0.120 C 
ATOM     23  O   LIG    1       -2.778  -2.022  -1.900  0.00  0.00    -0.530 OA
ATOM     24  C   LIG    1        0.219  -0.688  -1.086  0.00  0.00    +0.540 C 
ATOM     25  O   LIG    1        1.392  -0.456  -1.283  0.00  0.00    -0.440 OA
BRANCH  21  26
ATOM     26  C   LIG    1       -0.058  -0.842   1.379  0.00  0.00    -0.040 A 
ATOM     27  C   LIG    1       -0.775  -1.194   2.461  0.00  0.00    -0.020 A 
ATOM     28  C   LIG    1        0.140  -1.696   3.414  0.00  0.00    -0.070 A 
ATOM     29  C   LIG    1        1.363  -1.614   2.860  0.00  0.00    +0.190 A 
ATOM     30  O   LIG    1        1.237  -1.096   1.627  0.00  0.00    -0.160 OA
ENDBRANCH  21  26
ENDBRANCH  16  17
ENDBRANCH   3  16
TORSDOF 5
