REMARK  Name = ZINCrm000000KBXf.0
REMARK                            x       y       z     vdW  Elec       q    Type
REMARK                         _______ _______ _______ _____ _____    ______ ____
ROOT
ATOM      1  C   LIG    1       -2.937  -2.145  -4.707  0.00  0.00    +0.330 C 
ENDROOT
BRANCH   1   2
ATOM      2  C   LIG    1       -2.416  -2.846  -5.936  0.00  0.00    -0.080 A 
ATOM      3  C   LIG    1       -1.856  -2.112  -6.965  0.00  0.00    +0.050 A 
ATOM      4  C   LIG    1       -1.375  -2.754  -8.090  0.00  0.00    +0.050 A 
ATOM      5  C   LIG    1       -1.461  -4.130  -8.190  0.00  0.00    -0.150 A 
ATOM      6  C   LIG    1       -2.026  -4.864  -7.163  0.00  0.00    +0.040 A 
ATOM      7  C   LIG    1       -2.504  -4.222  -6.036  0.00  0.00    +0.050 A 
BRANCH   5   8
ATOM      8  C   LIG    1       -0.940  -4.831  -9.418  0.00  0.00    +0.320 C 
BRANCH   8   9
ATOM      9  N   LIG    1       -2.015  -4.936 -10.415  0.00  0.00    -0.380 N 
ATOM     10  C   LIG    1       -3.081  -5.804  -9.896  0.00  0.00    +0.240 C 
ATOM     11  C   LIG    1       -4.199  -5.913 -10.935  0.00  0.00    +0.220 C 
ATOM     12  O   LIG    1       -3.658  -6.419 -12.159  0.00  0.00    -0.350 OA
ATOM     13  C   LIG    1       -2.599  -5.620 -12.692  0.00  0.00    +0.160 C 
ATOM     14  C   LIG    1       -2.056  -6.272 -13.965  0.00  0.00    +0.110 C 
ATOM     15  C   LIG    1       -4.807  -4.530 -11.179  0.00  0.00    +0.040 C 
ATOM     16  C   LIG    1       -1.477  -5.511 -11.656  0.00  0.00    +0.240 C 
ATOM     17  H   LIG    1       -2.390  -4.019 -10.603  0.00  0.00    +0.420 HD
ENDBRANCH   8   9
ENDBRANCH   5   8
ENDBRANCH   1   2
BRANCH   1  19
ATOM     18  C   LIG    1       -2.102  -1.447  -2.527  0.00  0.00    +0.520 C 
ATOM     19  N   LIG    1       -1.865  -2.041  -3.714  0.00  0.00    -0.730 N 
ATOM     20  H   LIG    1       -0.985  -2.399  -3.910  0.00  0.00    +0.400 HD
ATOM     21  O   LIG    1       -3.202  -0.999  -2.282  0.00  0.00    -0.520 OA
BRANCH  18  24
ATOM     22  C   LIG    1       -0.056   0.054  -0.218  0.00  0.00    +0.050 C 
ATOM     23  C   LIG    1       -0.053  -0.151  -1.742  0.00  0.00    +0.080 C 
ATOM     24  C   LIG    1       -0.999  -1.340  -1.505  0.00  0.00    -0.020 C 
ATOM     25  C   LIG    1       -1.429  -0.637  -0.207  0.00  0.00    +0.110 C 
BRANCH  22  27
ATOM     26  C   LIG    1        1.152   2.104   0.068  0.00  0.00    +0.220 C 
ATOM     27  O   LIG    1       -0.102   1.427   0.175  0.00  0.00    -0.360 OA
ENDBRANCH  22  27
BRANCH  22  28
ATOM     28  C   LIG    1        1.034  -0.736   0.510  0.00  0.00    +0.270 C 
BRANCH  28  29
ATOM     29  N   LIG    1        0.777  -0.705   1.956  0.00  0.00    -0.630 N 
ATOM     30  H   LIG    1        1.464  -1.271   2.432  0.00  0.00    +0.440 HD
ATOM     31  H   LIG    1       -0.146  -1.067   2.142  0.00  0.00    +0.440 HD
ATOM     32  H   LIG    1        0.838   0.246   2.288  0.00  0.00    +0.440 HD
ENDBRANCH  28  29
ENDBRANCH  22  28
ENDBRANCH  18  24
ENDBRANCH   1  19
TORSDOF 8
