REMARK  Name = ZINCkj000005k0I2.1
REMARK                            x       y       z     vdW  Elec       q    Type
REMARK                         _______ _______ _______ _____ _____    ______ ____
ROOT
ATOM      1  C   LIG    1        3.326   3.597  -1.486  0.00  0.00    +0.110 C 
ATOM      2  C   LIG    1        2.767   3.969  -0.111  0.00  0.00    +0.220 C 
ATOM      3  C   LIG    1        2.790   5.467   0.045  0.00  0.00    -0.110 A 
ATOM      4  C   LIG    1        3.897   6.163  -0.413  0.00  0.00    +0.020 A 
ATOM      5  C   LIG    1        3.960   7.541  -0.282  0.00  0.00    +0.130 A 
ATOM      6  C   LIG    1        2.909   8.225   0.311  0.00  0.00    +0.020 A 
ATOM      7  C   LIG    1        1.807   7.529   0.764  0.00  0.00    +0.050 A 
ATOM      8  C   LIG    1        1.745   6.151   0.632  0.00  0.00    -0.100 A 
ATOM      9  C   LIG    1        0.521   5.431   1.139  0.00  0.00    +0.140 C 
ATOM     10  C   LIG    1        0.817   3.937   1.272  0.00  0.00    +0.260 C 
ATOM     11  N   LIG    1        1.398   3.459   0.007  0.00  0.00    -0.380 N 
ATOM     12  H   LIG    1        0.843   3.794  -0.766  0.00  0.00    +0.430 HD
ENDROOT
BRANCH   5  13
ATOM     13  O   LIG    1        5.048   8.220  -0.733  0.00  0.00    -0.490 OA
ATOM     14  H   LIG    1        4.977   8.508  -1.653  0.00  0.00    +0.400 HD
ENDBRANCH   5  13
BRANCH  11  15
ATOM     15  C   LIG    1        1.418   1.990  -0.001  0.00  0.00    +0.230 C 
BRANCH  15  16
ATOM     16  C   LIG    1       -0.018   1.461   0.010  0.00  0.00    +0.340 C 
BRANCH  16  17
ATOM     17  N   LIG    1        0.002  -0.004   0.002  0.00  0.00    -0.630 N 
ATOM     18  C   LIG    1        0.025  -0.863   1.196  0.00  0.00    +0.270 C 
ATOM     19  C   LIG    1        0.039  -2.293   0.622  0.00  0.00    +0.270 C 
ATOM     20  N   LIG    1        0.022  -2.088  -0.834  0.00  0.00    -0.730 N 
ATOM     21  H   LIG    1        0.026  -2.793  -1.501  0.00  0.00    +0.440 HD
ATOM     22  C   LIG    1       -0.004  -0.774  -1.094  0.00  0.00    +0.700 C 
ATOM     23  O   LIG    1       -0.026  -0.322  -2.222  0.00  0.00    -0.580 OA
ENDBRANCH  16  17
ENDBRANCH  15  16
ENDBRANCH  11  15
TORSDOF 4
