REMARK  Name = ZINCkj000005k0I2.0
REMARK                            x       y       z     vdW  Elec       q    Type
REMARK                         _______ _______ _______ _____ _____    ______ ____
ROOT
ATOM      1  C   LIG    1        3.068   1.630  -1.439  0.00  0.00    +0.100 C 
ATOM      2  C   LIG    1        2.502   1.575  -0.018  0.00  0.00    +0.230 C 
ATOM      3  C   LIG    1        1.149   2.238   0.003  0.00  0.00    -0.110 A 
ATOM      4  C   LIG    1        1.091   3.623   0.014  0.00  0.00    +0.020 A 
ATOM      5  C   LIG    1       -0.134   4.271   0.030  0.00  0.00    +0.130 A 
ATOM      6  C   LIG    1       -1.306   3.529   0.035  0.00  0.00    +0.020 A 
ATOM      7  C   LIG    1       -1.244   2.150   0.031  0.00  0.00    +0.050 A 
ATOM      8  C   LIG    1       -0.018   1.503   0.010  0.00  0.00    -0.100 A 
ATOM      9  C   LIG    1        0.002  -0.004   0.002  0.00  0.00    +0.130 C 
ATOM     10  C   LIG    1        1.386  -0.500  -0.419  0.00  0.00    +0.260 C 
ATOM     11  N   LIG    1        2.398   0.177   0.407  0.00  0.00    -0.380 N 
ATOM     12  H   LIG    1        2.123   0.138   1.377  0.00  0.00    +0.430 HD
ENDROOT
BRANCH   5  13
ATOM     13  O   LIG    1       -0.186   5.629   0.039  0.00  0.00    -0.490 OA
ATOM     14  H   LIG    1       -0.209   6.028  -0.841  0.00  0.00    +0.400 HD
ENDBRANCH   5  13
BRANCH  11  15
ATOM     15  C   LIG    1        3.697  -0.487   0.235  0.00  0.00    +0.240 C 
BRANCH  15  16
ATOM     16  C   LIG    1        3.617  -1.913   0.783  0.00  0.00    +0.340 C 
BRANCH  16  17
ATOM     17  N   LIG    1        4.913  -2.575   0.612  0.00  0.00    -0.630 N 
ATOM     18  C   LIG    1        5.320  -3.360  -0.563  0.00  0.00    +0.270 C 
ATOM     19  C   LIG    1        6.752  -3.817  -0.224  0.00  0.00    +0.270 C 
ATOM     20  N   LIG    1        6.997  -3.248   1.110  0.00  0.00    -0.730 N 
ATOM     21  H   LIG    1        7.813  -3.350   1.623  0.00  0.00    +0.440 HD
ATOM     22  C   LIG    1        5.912  -2.567   1.504  0.00  0.00    +0.700 C 
ATOM     23  O   LIG    1        5.842  -1.993   2.573  0.00  0.00    -0.580 OA
ENDBRANCH  16  17
ENDBRANCH  15  16
ENDBRANCH  11  15
TORSDOF 4
