REMARK  Name = ZINCpe00000VVGeQ.0
REMARK                            x       y       z     vdW  Elec       q    Type
REMARK                         _______ _______ _______ _____ _____    ______ ____
ROOT
ATOM      1  O   LIG    1       -3.393   3.718   0.038  0.00  0.00    -0.530 OA
ATOM      2  C   LIG    1       -2.351   4.339   0.037  0.00  0.00    +0.520 C 
ATOM      3  N   LIG    1       -2.370   5.686   0.044  0.00  0.00    -0.730 N 
ATOM      4  H   LIG    1       -1.536   6.183   0.043  0.00  0.00    +0.400 HD
ENDROOT
BRANCH   3   5
ATOM      5  C   LIG    1       -3.648   6.401   0.054  0.00  0.00    +0.320 C 
BRANCH   5   6
ATOM      6  C   LIG    1       -3.393   7.887   0.061  0.00  0.00    -0.040 A 
ATOM      7  C   LIG    1       -3.278   8.593  -1.129  0.00  0.00    -0.040 A 
ATOM      8  C   LIG    1       -3.044   9.953  -1.089  0.00  0.00    +0.290 A 
ATOM      9  N   LIG    1       -2.929  10.586   0.064  0.00  0.00    -0.510 NA
ATOM     10  C   LIG    1       -3.033   9.948   1.220  0.00  0.00    +0.310 A 
ATOM     11  C   LIG    1       -3.273   8.578   1.253  0.00  0.00    -0.030 A 
BRANCH  10  12
ATOM     12  N   LIG    1       -2.905  10.654   2.410  0.00  0.00    -0.480 N 
ATOM     13  C   LIG    1       -4.091  10.473   3.260  0.00  0.00    +0.180 C 
ATOM     14  C   LIG    1       -3.883  11.217   4.582  0.00  0.00    +0.230 C 
ATOM     15  O   LIG    1       -3.617  12.596   4.310  0.00  0.00    -0.380 OA
ATOM     16  C   LIG    1       -2.468  12.809   3.485  0.00  0.00    +0.230 C 
ATOM     17  C   LIG    1       -2.661  12.081   2.152  0.00  0.00    +0.190 C 
ENDBRANCH  10  12
ENDBRANCH   5   6
ENDBRANCH   3   5
BRANCH   2  18
ATOM     18  C   LIG    1       -1.036   3.603   0.026  0.00  0.00    +0.040 C 
BRANCH  18  19
ATOM     19  C   LIG    1       -1.295   2.095   0.020  0.00  0.00    +0.310 C 
BRANCH  19  20
ATOM     20  N   LIG    1       -0.017   1.380   0.010  0.00  0.00    -0.700 N 
ATOM     21  H   LIG    1        0.817   1.876   0.004  0.00  0.00    +0.410 HD
BRANCH  20  22
ATOM     22  C   LIG    1        0.002  -0.004   0.002  0.00  0.00    +0.560 A 
ATOM     23  N   LIG    1       -1.145  -0.666   0.015  0.00  0.00    -0.570 NA
ATOM     24  C   LIG    1       -1.163  -1.989   0.003  0.00  0.00    +0.360 A 
ATOM     25  C   LIG    1        0.038  -2.681  -0.013  0.00  0.00    -0.150 A 
ATOM     26  C   LIG    1        1.220  -1.957  -0.020  0.00  0.00    +0.360 A 
ATOM     27  N   LIG    1        1.167  -0.635  -0.013  0.00  0.00    -0.570 NA
ENDBRANCH  20  22
ENDBRANCH  19  20
ENDBRANCH  18  19
ENDBRANCH   2  18
TORSDOF 7
