REMARK  Name = ZINCvU0000000A6P.1
REMARK                            x       y       z     vdW  Elec       q    Type
REMARK                         _______ _______ _______ _____ _____    ______ ____
ROOT
ATOM      1  N   LIG    1       -0.860  -6.499   0.166  0.00  0.00    -0.710 N 
ATOM      2  H   LIG    1       -0.037  -7.013   0.169  0.00  0.00    +0.410 HD
ATOM      3  C   LIG    1       -0.814  -5.153   0.209  0.00  0.00    +0.570 C 
ATOM      4  O   LIG    1       -1.845  -4.509   0.206  0.00  0.00    -0.530 OA
ENDROOT
BRANCH   3   5
ATOM      5  C   LIG    1        0.493  -4.457   0.261  0.00  0.00    +0.080 A 
ATOM      6  C   LIG    1        0.532  -3.068   0.306  0.00  0.00    +0.040 A 
ATOM      7  C   LIG    1        1.774  -2.428   0.354  0.00  0.00    +0.020 A 
ATOM      8  C   LIG    1        2.926  -3.219   0.351  0.00  0.00    -0.010 A 
ATOM      9  C   LIG    1        2.800  -4.596   0.310  0.00  0.00    +0.280 A 
ATOM     10  N   LIG    1        1.616  -5.167   0.265  0.00  0.00    -0.460 NA
BRANCH   7  11
ATOM     11  C   LIG    1        1.867  -0.949   0.403  0.00  0.00    -0.140 A 
ATOM     12  C   LIG    1        0.709  -0.167   0.400  0.00  0.00    +0.330 A 
ATOM     13  N   LIG    1        0.768   1.146   0.442  0.00  0.00    -0.490 NA
ATOM     14  C   LIG    1        1.926   1.793   0.489  0.00  0.00    +0.290 A 
ATOM     15  N   LIG    1        2.252   3.127   0.540  0.00  0.00    -0.580 N 
ATOM     16  H   LIG    1        1.613   3.856   0.548  0.00  0.00    +0.420 HD
ATOM     17  C   LIG    1        3.613   3.276   0.578  0.00  0.00    +0.250 A 
ATOM     18  C   LIG    1        4.206   2.073   0.553  0.00  0.00    -0.040 A 
ATOM     19  C   LIG    1        3.137   1.073   0.496  0.00  0.00    -0.150 A 
ATOM     20  C   LIG    1        3.110  -0.320   0.452  0.00  0.00    +0.140 A 
ENDBRANCH   7  11
ENDBRANCH   3   5
BRANCH   1  21
ATOM     21  C   LIG    1       -2.153  -7.186   0.115  0.00  0.00    +0.260 C 
BRANCH  21  26
ATOM     22  C   LIG    1       -3.209 -10.948   2.098  0.00  0.00    +0.040 C 
ATOM     23  C   LIG    1       -2.659 -11.628   0.843  0.00  0.00    +0.030 C 
ATOM     24  C   LIG    1       -3.144 -10.886  -0.405  0.00  0.00    +0.020 C 
ATOM     25  C   LIG    1       -3.253  -9.397  -0.140  0.00  0.00    +0.030 C 
ATOM     26  C   LIG    1       -1.925  -8.699   0.073  0.00  0.00    -0.010 C 
ATOM     27  C   LIG    1       -1.276  -9.146   1.385  0.00  0.00    +0.070 C 
ATOM     28  C   LIG    1       -0.489 -10.414   1.122  0.00  0.00    -0.070 A 
ATOM     29  C   LIG    1        0.893 -10.375   1.145  0.00  0.00    +0.000 A 
ATOM     30  C   LIG    1        1.614 -11.532   0.905  0.00  0.00    +0.000 A 
ATOM     31  C   LIG    1        0.953 -12.717   0.645  0.00  0.00    +0.000 A 
ATOM     32  C   LIG    1       -0.430 -12.750   0.624  0.00  0.00    +0.000 A 
ATOM     33  C   LIG    1       -1.145 -11.590   0.865  0.00  0.00    -0.070 A 
ENDBRANCH  21  26
ENDBRANCH   1  21
TORSDOF 4
