REMARK  Name = ZINCvU0000000A6P.0
REMARK                            x       y       z     vdW  Elec       q    Type
REMARK                         _______ _______ _______ _____ _____    ______ ____
ROOT
ATOM      1  N   LIG    1        3.509   2.727  -0.208  0.00  0.00    -0.710 N 
ATOM      2  H   LIG    1        3.533   1.758  -0.228  0.00  0.00    +0.410 HD
ATOM      3  C   LIG    1        2.326   3.373  -0.229  0.00  0.00    +0.570 C 
ATOM      4  O   LIG    1        2.296   4.587  -0.205  0.00  0.00    -0.530 OA
ENDROOT
BRANCH   3   5
ATOM      5  C   LIG    1        1.062   2.602  -0.283  0.00  0.00    +0.080 A 
ATOM      6  C   LIG    1       -0.154   3.275  -0.304  0.00  0.00    +0.050 A 
ATOM      7  C   LIG    1       -1.337   2.532  -0.355  0.00  0.00    +0.010 A 
ATOM      8  C   LIG    1       -1.242   1.139  -0.387  0.00  0.00    +0.020 A 
ATOM      9  C   LIG    1        0.007   0.546  -0.357  0.00  0.00    +0.280 A 
ATOM     10  N   LIG    1        1.102   1.274  -0.309  0.00  0.00    -0.460 NA
BRANCH   7  11
ATOM     11  C   LIG    1       -2.659   3.206  -0.379  0.00  0.00    -0.160 A 
ATOM     12  C   LIG    1       -3.005   3.996  -1.459  0.00  0.00    +0.340 A 
ATOM     13  N   LIG    1       -4.188   4.622  -1.533  0.00  0.00    -0.490 N 
ATOM     14  H   LIG    1       -4.396   5.165  -2.309  0.00  0.00    +0.430 HD
ATOM     15  C   LIG    1       -5.105   4.507  -0.520  0.00  0.00    +0.240 A 
ATOM     16  N   LIG    1       -6.316   4.991  -0.308  0.00  0.00    -0.530 NA
ATOM     17  C   LIG    1       -6.798   4.570   0.862  0.00  0.00    +0.220 A 
ATOM     18  C   LIG    1       -5.903   3.766   1.493  0.00  0.00    -0.090 A 
ATOM     19  C   LIG    1       -4.775   3.681   0.647  0.00  0.00    -0.160 A 
ATOM     20  C   LIG    1       -3.543   3.039   0.695  0.00  0.00    +0.190 A 
ENDBRANCH   7  11
ENDBRANCH   3   5
BRANCH   1  21
ATOM     21  C   LIG    1        4.759   3.489  -0.155  0.00  0.00    +0.260 C 
BRANCH  21  26
ATOM     22  C   LIG    1        8.516   2.520  -2.189  0.00  0.00    +0.040 C 
ATOM     23  C   LIG    1        8.834   1.679  -0.951  0.00  0.00    +0.030 C 
ATOM     24  C   LIG    1        8.453   2.453   0.313  0.00  0.00    +0.020 C 
ATOM     25  C   LIG    1        7.224   3.308   0.075  0.00  0.00    +0.030 C 
ATOM     26  C   LIG    1        5.945   2.523  -0.140  0.00  0.00    -0.010 C 
ATOM     27  C   LIG    1        5.989   1.760  -1.466  0.00  0.00    +0.070 C 
ATOM     28  C   LIG    1        6.682   0.433  -1.233  0.00  0.00    -0.070 A 
ATOM     29  C   LIG    1        5.945  -0.737  -1.269  0.00  0.00    +0.000 A 
ATOM     30  C   LIG    1        6.577  -1.949  -1.056  0.00  0.00    +0.000 A 
ATOM     31  C   LIG    1        7.936  -1.987  -0.808  0.00  0.00    +0.000 A 
ATOM     32  C   LIG    1        8.667  -0.814  -0.774  0.00  0.00    +0.000 A 
ATOM     33  C   LIG    1        8.030   0.396  -0.988  0.00  0.00    -0.070 A 
ENDBRANCH  21  26
ENDBRANCH   1  21
TORSDOF 4
