REMARK  Name = ZINCrD000000CFsE.0
REMARK                            x       y       z     vdW  Elec       q    Type
REMARK                         _______ _______ _______ _____ _____    ______ ____
ROOT
ATOM      1  C   LIG    1        2.417   0.998   0.079  0.00  0.00    -0.220 A 
ATOM      2  C   LIG    1        3.614   1.716   0.042  0.00  0.00    +0.090 A 
ATOM      3  C   LIG    1        3.589   3.089  -0.066  0.00  0.00    -0.070 A 
ATOM      4  C   LIG    1        2.381   3.764  -0.138  0.00  0.00    +0.090 A 
ATOM      5  C   LIG    1        1.189   3.068  -0.109  0.00  0.00    -0.080 A 
ATOM      6  C   LIG    1        1.194   1.684   0.005  0.00  0.00    +0.280 A 
ENDROOT
BRANCH   1   8
ATOM      7  O   LIG    1        1.600  -1.139  -0.384  0.00  0.00    -0.550 OA
ATOM      8  C   LIG    1        2.436  -0.472   0.195  0.00  0.00    +0.590 C 
ATOM      9  N   LIG    1        3.381  -1.076   0.942  0.00  0.00    -0.600 N 
ATOM     10  C   LIG    1        4.381  -0.391   1.781  0.00  0.00    +0.250 C 
ATOM     11  C   LIG    1        4.776  -1.437   2.857  0.00  0.00    +0.040 C 
ATOM     12  C   LIG    1        4.759  -2.751   2.032  0.00  0.00    +0.040 C 
ATOM     13  C   LIG    1        3.589  -2.528   1.051  0.00  0.00    +0.230 C 
BRANCH  13  14
ATOM     14  C   LIG    1        3.939  -3.107  -0.321  0.00  0.00    +0.170 C 
BRANCH  14  15
ATOM     15  O   LIG    1        5.196  -2.581  -0.754  0.00  0.00    -0.570 OA
ATOM     16  H   LIG    1        5.481  -2.906  -1.619  0.00  0.00    +0.380 HD
ENDBRANCH  14  15
ENDBRANCH  13  14
ENDBRANCH   1   8
BRANCH   6  17
ATOM     17  N   LIG    1       -0.004   0.982   0.040  0.00  0.00    -0.720 N 
ATOM     18  H   LIG    1        0.002   0.012   0.044  0.00  0.00    +0.410 HD
BRANCH  17  19
ATOM     19  C   LIG    1       -1.277   1.707   0.066  0.00  0.00    +0.320 C 
BRANCH  19  20
ATOM     20  C   LIG    1       -2.416   0.720   0.095  0.00  0.00    -0.110 A 
ATOM     21  C   LIG    1       -3.112   0.417  -1.065  0.00  0.00    +0.100 A 
ATOM     22  C   LIG    1       -4.149  -0.500  -0.992  0.00  0.00    +0.010 A 
ATOM     23  C   LIG    1       -4.459  -1.069   0.228  0.00  0.00    +0.280 A 
ATOM     24  N   LIG    1       -3.779  -0.753   1.313  0.00  0.00    -0.440 NA
ATOM     25  C   LIG    1       -2.783   0.110   1.279  0.00  0.00    +0.050 A 
BRANCH  25  26
ATOM     26  C   LIG    1       -2.037   0.437   2.548  0.00  0.00    +0.520 C 
ATOM     27  F   LIG    1       -0.714   0.767   2.238  0.00  0.00    -0.160 F 
ATOM     28  F   LIG    1       -2.055  -0.674   3.398  0.00  0.00    -0.160 F 
ATOM     29  F   LIG    1       -2.652   1.520   3.184  0.00  0.00    -0.170 F 
ENDBRANCH  25  26
ENDBRANCH  19  20
ENDBRANCH  17  19
ENDBRANCH   6  17
TORSDOF 7
