REMARK  Name = ZINCrD00000laTfc.0
REMARK                            x       y       z     vdW  Elec       q    Type
REMARK                         _______ _______ _______ _____ _____    ______ ____
ROOT
ATOM      1  N   LIG    1        8.169   2.112   0.808  0.00  0.00    -0.600 N 
ATOM      2  C   LIG    1        7.000   1.455   0.932  0.00  0.00    +0.550 C 
ATOM      3  O   LIG    1        6.915   0.292   0.581  0.00  0.00    -0.540 OA
ENDROOT
BRANCH   1   4
ATOM      4  C   LIG    1        9.339   1.429   0.251  0.00  0.00    +0.270 C 
ATOM      5  C   LIG    1        9.711   0.230   1.142  0.00  0.00    +0.070 C 
ATOM      6  C   LIG    1       10.722  -0.625   0.337  0.00  0.00    -0.310 C 
ATOM      7  S   LIG    1        9.989  -0.627  -1.343  0.00  0.00    +2.390 S 
ATOM      8  O   LIG    1       11.013  -0.422  -2.307  0.00  0.00    -0.940 OA
ATOM      9  O   LIG    1        9.109  -1.736  -1.471  0.00  0.00    -0.920 OA
ATOM     10  C   LIG    1        9.010   0.907  -1.162  0.00  0.00    -0.320 C 
ENDBRANCH   1   4
BRANCH   2  11
ATOM     11  C   LIG    1        5.870   2.115   1.471  0.00  0.00    -0.110 C 
ATOM     12  C   LIG    1        4.691   1.453   1.595  0.00  0.00    +0.140 C 
BRANCH  12  13
ATOM     13  C   LIG    1        3.565   2.111   2.132  0.00  0.00    -0.170 C 
ATOM     14  C   LIG    1        2.383   1.451   2.259  0.00  0.00    +0.120 C 
ATOM     15  C   LIG    1        1.237   2.192   2.805  0.00  0.00    -0.130 A 
ATOM     16  C   LIG    1        0.102   1.534   3.276  0.00  0.00    +0.090 A 
ATOM     17  C   LIG    1       -0.953   2.271   3.777  0.00  0.00    -0.070 A 
ATOM     18  C   LIG    1       -0.881   3.655   3.821  0.00  0.00    +0.080 A 
ATOM     19  C   LIG    1        0.240   4.317   3.356  0.00  0.00    +0.020 A 
ATOM     20 CL   LIG    1       -2.374   1.461   4.360  0.00  0.00    -0.060 Cl
ATOM     21  C   LIG    1        1.304   3.597   2.846  0.00  0.00    +0.140 A 
ATOM     22  O   LIG    1        2.417   4.217   2.381  0.00  0.00    -0.300 OA
ATOM     23  C   LIG    1        3.666   3.550   2.568  0.00  0.00    +0.300 C 
ENDBRANCH  12  13
ENDBRANCH   2  11
BRANCH   1  24
ATOM     24  C   LIG    1        8.271   3.511   1.231  0.00  0.00    +0.280 C 
BRANCH  24  26
ATOM     25  C   LIG    1        6.675   4.239  -0.548  0.00  0.00    +0.030 C 
ATOM     26  C   LIG    1        8.084   4.426   0.018  0.00  0.00    -0.040 C 
ATOM     27  C   LIG    1        8.274   5.883   0.444  0.00  0.00    +0.030 C 
ENDBRANCH  24  26
ENDBRANCH   1  24
TORSDOF 5
