REMARK  Name = ZINCpk00000xU3FD.0
REMARK                            x       y       z     vdW  Elec       q    Type
REMARK                         _______ _______ _______ _____ _____    ______ ____
ROOT
ATOM      1  C   LIG    1       -2.614   6.829   0.098  0.00  0.00    +0.270 C 
ENDROOT
BRANCH   1   2
ATOM      2  N   LIG    1       -1.445   5.950   0.191  0.00  0.00    -0.720 N 
ATOM      3  H   LIG    1       -0.554   6.331   0.225  0.00  0.00    +0.400 HD
ATOM      4  C   LIG    1       -1.609   4.613   0.228  0.00  0.00    +0.570 C 
ATOM      5  O   LIG    1       -2.726   4.135   0.186  0.00  0.00    -0.530 OA
BRANCH   4   6
ATOM      6  C   LIG    1       -0.431   3.728   0.322  0.00  0.00    -0.170 A 
ATOM      7  C   LIG    1       -0.596   2.374   0.365  0.00  0.00    +0.320 A 
ATOM      8  N   LIG    1        0.482   1.550   0.447  0.00  0.00    -0.370 N 
ATOM      9  C   LIG    1        0.601   0.186   0.502  0.00  0.00    +0.100 A 
ATOM     10  C   LIG    1        1.918  -0.096   0.582  0.00  0.00    +0.230 A 
ATOM     11  N   LIG    1        2.602   1.052   0.578  0.00  0.00    -0.490 NA
ATOM     12  C   LIG    1        1.753   2.065   0.496  0.00  0.00    +0.230 A 
ATOM     13  C   LIG    1        1.947   3.463   0.458  0.00  0.00    +0.090 A 
ATOM     14  C   LIG    1        0.872   4.285   0.371  0.00  0.00    +0.050 A 
ENDBRANCH   4   6
ENDBRANCH   1   2
BRANCH   1  16
ATOM     15  C   LIG    1       -1.381   8.602   1.353  0.00  0.00    +0.030 C 
ATOM     16  C   LIG    1       -2.155   8.288   0.071  0.00  0.00    -0.050 C 
ATOM     17  C   LIG    1       -1.249   8.515  -1.140  0.00  0.00    +0.040 C 
BRANCH  16  18
ATOM     18  C   LIG    1       -3.376   9.205  -0.025  0.00  0.00    -0.010 C 
ATOM     19  C   LIG    1       -4.117   8.982  -1.364  0.00  0.00    +0.220 C 
ATOM     20  O   LIG    1       -4.557  10.302  -1.764  0.00  0.00    -0.360 OA
ATOM     21  C   LIG    1       -3.463  11.188  -1.437  0.00  0.00    +0.210 C 
ATOM     22  C   LIG    1       -2.940  10.680  -0.082  0.00  0.00    +0.240 C 
ATOM     23  O   LIG    1       -1.515  10.784  -0.023  0.00  0.00    -0.340 OA
ATOM     24  C   LIG    1       -1.268  12.010   0.710  0.00  0.00    +0.190 C 
ATOM     25  C   LIG    1       -2.430  12.007   1.735  0.00  0.00    +0.200 C 
ATOM     26  O   LIG    1       -3.520  11.419   0.992  0.00  0.00    -0.360 OA
ENDBRANCH  16  18
ENDBRANCH   1  16
TORSDOF 4
