REMARK  Name = ZINCkj000018RCec.0
REMARK                            x       y       z     vdW  Elec       q    Type
REMARK                         _______ _______ _______ _____ _____    ______ ____
ROOT
ATOM      1  C   LIG    1       -1.043  -2.937   1.942  0.00  0.00    +0.670 C 
ATOM      2  N   LIG    1       -0.960  -1.913   1.070  0.00  0.00    -0.620 N 
ATOM      3  C   LIG    1       -1.389  -1.948  -0.336  0.00  0.00    +0.280 C 
ATOM      4  C   LIG    1       -1.080  -0.562  -0.945  0.00  0.00    +0.100 C 
ATOM      5  C   LIG    1        0.002  -0.004   0.002  0.00  0.00    +0.140 C 
ATOM      6  N   LIG    1        1.325  -0.495  -0.379  0.00  0.00    -0.490 N 
ATOM      7  C   LIG    1        2.367   0.171   0.417  0.00  0.00    +0.280 C 
ATOM      8  C   LIG    1        2.490   1.641  -0.007  0.00  0.00    +0.180 C 
ATOM      9  C   LIG    1        1.109   2.247   0.004  0.00  0.00    +0.040 A 
ATOM     10  N   LIG    1        0.748   3.529   0.008  0.00  0.00    -0.470 NA
ATOM     11  C   LIG    1       -0.558   3.606   0.022  0.00  0.00    +0.470 A 
ATOM     12  N   LIG    1       -1.070   2.353   0.031  0.00  0.00    -0.540 N 
ATOM     13  H   LIG    1       -2.010   2.114   0.046  0.00  0.00    +0.430 HD
ATOM     14  H   LIG    1        1.482  -0.308  -1.358  0.00  0.00    +0.440 HD
ATOM     15  H   LIG    1        1.369  -1.491  -0.221  0.00  0.00    +0.440 HD
ATOM     16  C   LIG    1       -0.018   1.492   0.010  0.00  0.00    -0.080 A 
ATOM     17  C   LIG    1       -0.423  -0.571   1.369  0.00  0.00    +0.340 C 
ATOM     18  O   LIG    1       -0.656  -2.795   3.085  0.00  0.00    -0.540 OA
ENDROOT
BRANCH   1  19
ATOM     19  O   LIG    1       -1.554  -4.118   1.547  0.00  0.00    -0.350 OA
BRANCH  19  21
ATOM     20  C   LIG    1       -2.482  -4.725   3.715  0.00  0.00    +0.030 C 
ATOM     21  C   LIG    1       -1.613  -5.176   2.539  0.00  0.00    +0.140 C 
ATOM     22  C   LIG    1       -0.201  -5.487   3.038  0.00  0.00    +0.030 C 
ATOM     23  C   LIG    1       -2.219  -6.432   1.909  0.00  0.00    +0.090 C 
ENDBRANCH  19  21
ENDBRANCH   1  19
TORSDOF 2
