REMARK  Name = ZINCrH000004stx3.0
REMARK                            x       y       z     vdW  Elec       q    Type
REMARK                         _______ _______ _______ _____ _____    ______ ____
ROOT
ATOM      1  C   LIG    1       -0.268   1.258  -2.409  0.00  0.00    +0.600 C 
ATOM      2  N   LIG    1       -0.721   1.571  -1.179  0.00  0.00    -0.730 N 
ATOM      3  H   LIG    1       -1.516   2.118  -1.079  0.00  0.00    +0.400 HD
ATOM      4  O   LIG    1        0.730   0.573  -2.534  0.00  0.00    -0.520 OA
ENDROOT
BRANCH   1   7
ATOM      5  C   LIG    1        0.567   0.681  -5.276  0.00  0.00    +0.170 C 
ATOM      6  C   LIG    1       -0.633   1.506  -4.888  0.00  0.00    +0.160 A 
ATOM      7  C   LIG    1       -0.978   1.744  -3.597  0.00  0.00    -0.310 A 
ATOM      8  S   LIG    1       -2.434   2.736  -3.605  0.00  0.00    +0.160 S 
ATOM      9  C   LIG    1       -2.433   2.742  -5.314  0.00  0.00    +0.080 A 
ATOM     10  N   LIG    1       -1.433   2.055  -5.767  0.00  0.00    -0.470 NA
BRANCH   9  11
ATOM     11  C   LIG    1       -3.454   3.442  -6.173  0.00  0.00    +0.200 C 
BRANCH  11  12
ATOM     12  C   LIG    1       -4.599   2.504  -6.457  0.00  0.00    -0.090 A 
ATOM     13  C   LIG    1       -4.565   1.690  -7.575  0.00  0.00    +0.030 A 
ATOM     14  C   LIG    1       -5.612   0.826  -7.833  0.00  0.00    +0.000 A 
ATOM     15  C   LIG    1       -6.699   0.783  -6.980  0.00  0.00    +0.000 A 
ATOM     16  C   LIG    1       -6.736   1.600  -5.865  0.00  0.00    +0.000 A 
ATOM     17  C   LIG    1       -5.686   2.460  -5.604  0.00  0.00    +0.010 A 
ENDBRANCH  11  12
ENDBRANCH   9  11
ENDBRANCH   1   7
BRANCH   2  18
ATOM     18  C   LIG    1       -0.013   1.086   0.008  0.00  0.00    +0.280 C 
BRANCH  18  19
ATOM     19  C   LIG    1       -0.729   1.579   1.267  0.00  0.00    +0.080 C 
BRANCH  19  20
ATOM     20  C   LIG    1        0.000   1.080   2.488  0.00  0.00    -0.070 A 
ATOM     21  C   LIG    1       -0.348  -0.133   3.051  0.00  0.00    +0.040 A 
ATOM     22  C   LIG    1        0.321  -0.598   4.168  0.00  0.00    +0.040 A 
ATOM     23  C   LIG    1        1.336   0.157   4.732  0.00  0.00    +0.030 A 
ATOM     24  O   LIG    1        2.134  -0.066   5.816  0.00  0.00    -0.310 OA
ATOM     25  C   LIG    1        2.694   1.218   6.152  0.00  0.00    +0.430 C 
ATOM     26  O   LIG    1        2.699   1.927   4.899  0.00  0.00    -0.310 OA
ATOM     27  C   LIG    1        1.683   1.383   4.168  0.00  0.00    +0.030 A 
ATOM     28  C   LIG    1        1.012   1.839   3.046  0.00  0.00    +0.050 A 
ENDBRANCH  19  20
ENDBRANCH  18  19
ENDBRANCH   2  18
TORSDOF 6
