REMARK  Name = ZINCc70000002BX1.0
REMARK                            x       y       z     vdW  Elec       q    Type
REMARK                         _______ _______ _______ _____ _____    ______ ____
ROOT
ATOM      1  C   LIG    1       -0.017   1.382   0.010  0.00  0.00    +0.330 A 
ATOM      2  N   LIG    1       -1.081   2.107   0.018  0.00  0.00    -0.550 NA
ATOM      3  C   LIG    1       -0.937   3.439   0.028  0.00  0.00    +0.120 A 
ATOM      4  C   LIG    1        0.344   3.820   0.019  0.00  0.00    -0.250 A 
ATOM      5  C   LIG    1        0.893   5.232   0.028  0.00  0.00    -0.230 C 
ATOM      6  S   LIG    1       -0.423   6.378  -0.476  0.00  0.00    +2.430 S 
ATOM      7  C   LIG    1       -1.806   5.746   0.522  0.00  0.00    -0.310 C 
ATOM      8  O   LIG    1       -0.714   6.165  -1.851  0.00  0.00    -0.920 OA
ATOM      9  O   LIG    1       -0.092   7.684  -0.026  0.00  0.00    -0.930 OA
ATOM     10  C   LIG    1       -2.156   4.344   0.038  0.00  0.00    +0.190 C 
ATOM     11  S   LIG    1        1.367   2.381   0.002  0.00  0.00    +0.120 S 
ENDROOT
BRANCH   1  12
ATOM     12  N   LIG    1        0.002  -0.004   0.002  0.00  0.00    -0.820 N 
ATOM     13  H   LIG    1       -0.831  -0.500   0.007  0.00  0.00    +0.410 HD
ATOM     14  H   LIG    1        0.849  -0.478  -0.009  0.00  0.00    +0.420 HD
ENDBRANCH   1  12
TORSDOF 1
