REMARK  Name = ZINCrg000000sgve.0
REMARK                            x       y       z     vdW  Elec       q    Type
REMARK                         _______ _______ _______ _____ _____    ______ ____
ROOT
ATOM      1  N   LIG    1       -0.011   0.966   0.007  0.00  0.00    -0.500 N 
ATOM      2  H   LIG    1        0.002  -0.004   0.002  0.00  0.00    +0.440 HD
ATOM      3  C   LIG    1       -1.187   1.624   0.017  0.00  0.00    +0.600 C 
ATOM      4  O   LIG    1       -1.204   2.840   0.023  0.00  0.00    -0.520 OA
ENDROOT
BRANCH   3   5
ATOM      5  C   LIG    1       -2.456   0.868   0.018  0.00  0.00    +0.060 A 
ATOM      6  N   LIG    1       -2.447  -0.443   0.011  0.00  0.00    -0.190 NA
ATOM      7  N   LIG    1       -3.499  -1.170   0.012  0.00  0.00    -0.360 N 
ATOM      8  C   LIG    1       -4.752  -0.668   0.020  0.00  0.00    +0.520 A 
ATOM      9  C   LIG    1       -4.921   0.791   0.029  0.00  0.00    -0.140 A 
ATOM     10  C   LIG    1       -6.168   1.408   0.038  0.00  0.00    +0.090 A 
ATOM     11  C   LIG    1       -6.241   2.785   0.046  0.00  0.00    +0.030 A 
ATOM     12  C   LIG    1       -5.087   3.557   0.045  0.00  0.00    +0.060 A 
ATOM     13  C   LIG    1       -3.841   2.965   0.036  0.00  0.00    +0.070 A 
ATOM     14  O   LIG    1       -5.719  -1.407   0.020  0.00  0.00    -0.490 OA
ATOM     15  C   LIG    1       -3.336  -2.626   0.004  0.00  0.00    +0.360 C 
ATOM     16  C   LIG    1       -3.745   1.578   0.035  0.00  0.00    -0.030 A 
ENDBRANCH   3   5
BRANCH   1  18
ATOM     17  C   LIG    1        2.369   1.025  -0.015  0.00  0.00    +0.520 C 
ATOM     18  N   LIG    1        1.193   1.683  -0.000  0.00  0.00    -0.520 N 
ATOM     19  H   LIG    1        1.179   2.653   0.005  0.00  0.00    +0.440 HD
ATOM     20  O   LIG    1        2.385  -0.188  -0.022  0.00  0.00    -0.510 OA
BRANCH  17  21
ATOM     21  C   LIG    1        3.663   1.796  -0.023  0.00  0.00    +0.250 C 
BRANCH  21  22
ATOM     22  O   LIG    1        4.762   0.882  -0.039  0.00  0.00    -0.290 OA
BRANCH  22  28
ATOM     23  C   LIG    1        9.600   0.238  -0.089  0.00  0.00    +0.100 C 
ATOM     24  C   LIG    1        8.391   1.138  -0.072  0.00  0.00    -0.050 A 
ATOM     25  C   LIG    1        8.552   2.511  -0.066  0.00  0.00    -0.030 A 
ATOM     26  C   LIG    1        7.445   3.339  -0.051  0.00  0.00    +0.050 A 
ATOM     27  C   LIG    1        6.175   2.797  -0.048  0.00  0.00    -0.090 A 
ATOM     28  C   LIG    1        6.011   1.419  -0.048  0.00  0.00    +0.130 A 
ATOM     29  C   LIG    1        7.123   0.590  -0.063  0.00  0.00    -0.020 A 
ENDBRANCH  22  28
ENDBRANCH  21  22
ENDBRANCH  17  21
ENDBRANCH   1  18
TORSDOF 5
