REMARK  Name = ZINCqH0000007lcq.0
REMARK                            x       y       z     vdW  Elec       q    Type
REMARK                         _______ _______ _______ _____ _____    ______ ____
ROOT
ATOM      1  N   LIG    1       -9.529   1.940  -5.131  0.00  0.00    -0.660 N 
ATOM      2  H   LIG    1       -9.298   2.513  -5.878  0.00  0.00    +0.420 HD
ATOM      3  C   LIG    1       -8.605   1.648  -4.194  0.00  0.00    +0.510 C 
ATOM      4  O   LIG    1       -8.919   1.015  -3.208  0.00  0.00    -0.490 OA
ENDROOT
BRANCH   1   9
ATOM      5  C   LIG    1      -12.326  -0.270  -4.207  0.00  0.00    +0.120 A 
ATOM      6  C   LIG    1      -13.389   0.381  -4.817  0.00  0.00    -0.060 A 
ATOM      7  C   LIG    1      -13.172   1.546  -5.529  0.00  0.00    -0.010 A 
ATOM      8  C   LIG    1      -11.893   2.067  -5.635  0.00  0.00    +0.060 A 
ATOM      9  C   LIG    1      -10.824   1.415  -5.024  0.00  0.00    +0.160 A 
ATOM     10  C   LIG    1      -11.043   0.244  -4.315  0.00  0.00    +0.030 A 
BRANCH   5  12
ATOM     11  C   LIG    1      -13.888  -1.892  -3.443  0.00  0.00    +0.250 C 
ATOM     12  O   LIG    1      -12.543  -1.416  -3.509  0.00  0.00    -0.310 OA
ENDBRANCH   5  12
BRANCH   8  13
ATOM     13  O   LIG    1      -11.681   3.213  -6.337  0.00  0.00    -0.320 OA
ATOM     14  C   LIG    1      -12.823   3.827  -6.937  0.00  0.00    +0.250 C 
ENDBRANCH   8  13
ENDBRANCH   1   9
BRANCH   3  15
ATOM     15  C   LIG    1       -7.181   2.108  -4.372  0.00  0.00    +0.240 C 
BRANCH  15  16
ATOM     16  O   LIG    1       -6.399   1.679  -3.255  0.00  0.00    -0.290 OA
BRANCH  16  17
ATOM     17  C   LIG    1       -5.082   2.014  -3.259  0.00  0.00    +0.170 A 
ATOM     18  C   LIG    1       -4.554   2.741  -4.317  0.00  0.00    -0.120 A 
ATOM     19  C   LIG    1       -3.214   3.082  -4.322  0.00  0.00    +0.090 A 
ATOM     20  C   LIG    1       -2.398   2.700  -3.274  0.00  0.00    -0.110 A 
ATOM     21  C   LIG    1       -2.922   1.974  -2.214  0.00  0.00    +0.170 A 
ATOM     22  C   LIG    1       -4.264   1.626  -2.209  0.00  0.00    -0.040 A 
BRANCH  21  23
ATOM     23  O   LIG    1       -2.119   1.599  -1.184  0.00  0.00    -0.310 OA
BRANCH  23  24
ATOM     24  C   LIG    1       -0.746   1.987  -1.258  0.00  0.00    +0.180 C 
BRANCH  24  25
ATOM     25  C   LIG    1       -0.005   1.479  -0.019  0.00  0.00    -0.020 C 
ATOM     26  C   LIG    1        1.434   1.999  -0.036  0.00  0.00    +0.040 C 
ATOM     27  C   LIG    1        0.005  -0.051  -0.022  0.00  0.00    +0.020 C 
ENDBRANCH  24  25
ENDBRANCH  23  24
ENDBRANCH  21  23
ENDBRANCH  16  17
ENDBRANCH  15  16
ENDBRANCH   3  15
TORSDOF 9
