REMARK  Name = ZINCrm000010lzeT.1
REMARK                            x       y       z     vdW  Elec       q    Type
REMARK                         _______ _______ _______ _____ _____    ______ ____
ROOT
ATOM      1  C   LIG    1       -1.879   0.446   4.591  0.00  0.00    -0.110 A 
ATOM      2  C   LIG    1       -2.647   1.113   5.472  0.00  0.00    -0.060 A 
ATOM      3  S   LIG    1       -3.333   2.501   4.763  0.00  0.00    +0.340 S 
ATOM      4  C   LIG    1       -2.591   2.215   3.258  0.00  0.00    -0.060 A 
ATOM      5  C   LIG    1       -1.848   1.093   3.287  0.00  0.00    -0.110 A 
ENDROOT
BRANCH   1   7
ATOM      6  O   LIG    1       -0.390  -1.277   4.095  0.00  0.00    -0.460 OA
ATOM      7  C   LIG    1       -1.152  -0.793   4.909  0.00  0.00    +0.570 C 
ATOM      8  N   LIG    1       -1.331  -1.391   6.104  0.00  0.00    -0.730 N 
ATOM      9  H   LIG    1       -1.940  -1.005   6.753  0.00  0.00    +0.400 HD
BRANCH   8  10
ATOM     10  C   LIG    1       -0.608  -2.625   6.420  0.00  0.00    +0.270 C 
ATOM     11  C   LIG    1        0.769  -2.296   7.040  0.00  0.00    +0.070 C 
ATOM     12  C   LIG    1        0.497  -2.411   8.564  0.00  0.00    +0.270 C 
ATOM     13  N   LIG    1       -0.442  -3.558   8.656  0.00  0.00    -0.370 N 
ATOM     14  H   LIG    1        0.065  -4.428   8.596  0.00  0.00    +0.430 HD
ATOM     15  C   LIG    1       -1.359  -3.422   7.503  0.00  0.00    +0.270 C 
BRANCH  13  16
ATOM     16  C   LIG    1       -1.198  -3.496   9.914  0.00  0.00    +0.090 C 
ATOM     17  C   LIG    1       -0.879  -4.545  10.982  0.00  0.00    +0.110 C 
ATOM     18  C   LIG    1       -2.191  -4.625  10.198  0.00  0.00    +0.100 C 
ENDBRANCH  13  16
ENDBRANCH   8  10
ENDBRANCH   1   7
BRANCH   5  19
ATOM     19  C   LIG    1       -1.088   0.582   2.136  0.00  0.00    +0.570 C 
ATOM     20  N   LIG    1       -1.206   1.178   0.933  0.00  0.00    -0.730 N 
ATOM     21  H   LIG    1       -1.791   1.944   0.826  0.00  0.00    +0.400 HD
ATOM     22  O   LIG    1       -0.354  -0.378   2.270  0.00  0.00    -0.460 OA
BRANCH  20  23
ATOM     23  C   LIG    1       -0.449   0.669  -0.214  0.00  0.00    +0.260 C 
ATOM     24  C   LIG    1        0.941   1.342  -0.294  0.00  0.00    +0.060 C 
ATOM     25  C   LIG    1        1.183   1.587  -1.795  0.00  0.00    +0.270 C 
ATOM     26  N   LIG    1        0.009   1.051  -2.517  0.00  0.00    -0.360 N 
ATOM     27  H   LIG    1        0.183   0.101  -2.809  0.00  0.00    +0.430 HD
ATOM     28  C   LIG    1       -1.116   1.091  -1.547  0.00  0.00    +0.270 C 
BRANCH  26  29
ATOM     29  C   LIG    1       -0.296   1.892  -3.683  0.00  0.00    +0.100 C 
ATOM     30  C   LIG    1       -0.491   1.190  -5.028  0.00  0.00    +0.110 C 
ATOM     31  C   LIG    1        0.775   2.010  -4.768  0.00  0.00    +0.100 C 
ENDBRANCH  26  29
ENDBRANCH  20  23
ENDBRANCH   5  19
TORSDOF 6
