REMARK  Name = ZINCrm000010lzeT.0
REMARK                            x       y       z     vdW  Elec       q    Type
REMARK                         _______ _______ _______ _____ _____    ______ ____
ROOT
ATOM      1  C   LIG    1        4.809   0.481  -3.284  0.00  0.00    -0.110 A 
ATOM      2  C   LIG    1        5.183  -0.630  -2.623  0.00  0.00    -0.060 A 
ATOM      3  S   LIG    1        6.554  -1.341  -3.341  0.00  0.00    +0.340 S 
ATOM      4  C   LIG    1        6.658  -0.144  -4.549  0.00  0.00    -0.060 A 
ATOM      5  C   LIG    1        5.678   0.768  -4.415  0.00  0.00    -0.110 A 
ENDROOT
BRANCH   1   7
ATOM      6  O   LIG    1        3.446   2.362  -3.481  0.00  0.00    -0.460 OA
ATOM      7  C   LIG    1        3.656   1.312  -2.903  0.00  0.00    +0.570 C 
ATOM      8  N   LIG    1        2.833   0.911  -1.914  0.00  0.00    -0.730 N 
ATOM      9  H   LIG    1        3.000   0.074  -1.453  0.00  0.00    +0.400 HD
BRANCH   8  10
ATOM     10  C   LIG    1        1.685   1.739  -1.535  0.00  0.00    +0.260 C 
ATOM     11  C   LIG    1        0.446   1.359  -2.377  0.00  0.00    +0.060 C 
ATOM     12  C   LIG    1       -0.711   1.444  -1.349  0.00  0.00    +0.280 C 
ATOM     13  N   LIG    1       -0.096   0.921  -0.102  0.00  0.00    -0.370 N 
ATOM     14  H   LIG    1       -0.075  -0.088  -0.121  0.00  0.00    +0.420 HD
ATOM     15  C   LIG    1        1.282   1.458  -0.076  0.00  0.00    +0.280 C 
BRANCH  13  16
ATOM     16  C   LIG    1       -0.845   1.391   1.071  0.00  0.00    +0.100 C 
ATOM     17  C   LIG    1       -1.241   0.351   2.120  0.00  0.00    +0.110 C 
ATOM     18  C   LIG    1       -2.305   0.951   1.199  0.00  0.00    +0.110 C 
ENDBRANCH  13  16
ENDBRANCH   8  10
ENDBRANCH   1   7
BRANCH   5  19
ATOM     19  C   LIG    1        5.507   1.925  -5.309  0.00  0.00    +0.570 C 
ATOM     20  N   LIG    1        6.284   2.052  -6.402  0.00  0.00    -0.740 N 
ATOM     21  H   LIG    1        6.956   1.382  -6.600  0.00  0.00    +0.400 HD
ATOM     22  O   LIG    1        4.663   2.765  -5.060  0.00  0.00    -0.460 OA
BRANCH  20  23
ATOM     23  C   LIG    1        6.113   3.203  -7.292  0.00  0.00    +0.270 C 
ATOM     24  C   LIG    1        5.018   2.913  -8.339  0.00  0.00    +0.060 C 
ATOM     25  C   LIG    1        5.733   3.001  -9.704  0.00  0.00    +0.280 C 
ATOM     26  N   LIG    1        7.161   2.732  -9.396  0.00  0.00    -0.370 N 
ATOM     27  H   LIG    1        7.317   1.741  -9.284  0.00  0.00    +0.420 HD
ATOM     28  C   LIG    1        7.399   3.442  -8.113  0.00  0.00    +0.280 C 
BRANCH  26  29
ATOM     29  C   LIG    1        8.026   3.272 -10.453  0.00  0.00    +0.100 C 
ATOM     30  C   LIG    1        8.791   2.271 -11.321  0.00  0.00    +0.110 C 
ATOM     31  C   LIG    1        9.538   3.110 -10.281  0.00  0.00    +0.110 C 
ENDBRANCH  26  29
ENDBRANCH  20  23
ENDBRANCH   5  19
TORSDOF 6
