REMARK  Name = ZINCrg00000STZje.0
REMARK                            x       y       z     vdW  Elec       q    Type
REMARK                         _______ _______ _______ _____ _____    ______ ____
ROOT
ATOM      1  C   LIG    1       -0.500  -0.092   0.678  0.00  0.00    +0.550 C 
ATOM      2  N   LIG    1       -1.480  -0.961   0.361  0.00  0.00    -0.610 N 
ATOM      3  C   LIG    1       -2.885  -0.528   0.306  0.00  0.00    +0.290 C 
ATOM      4  C   LIG    1       -3.728  -1.484   1.147  0.00  0.00    +0.170 C 
ATOM      5  N   LIG    1       -3.486  -2.865   0.708  0.00  0.00    -0.540 NA
ATOM      6  C   LIG    1       -2.086  -3.255   0.923  0.00  0.00    +0.180 C 
ATOM      7  C   LIG    1       -4.401  -3.799   1.377  0.00  0.00    +0.190 C 
ATOM      8  C   LIG    1       -1.175  -2.369   0.066  0.00  0.00    +0.230 C 
ATOM      9  O   LIG    1        0.657  -0.456   0.676  0.00  0.00    -0.500 OA
ENDROOT
BRANCH   1  13
ATOM     10  C   LIG    1        0.052   3.634   1.020  0.00  0.00    +0.190 C 
ATOM     11  C   LIG    1       -1.391   3.636   0.457  0.00  0.00    +0.010 C 
ATOM     12  C   LIG    1       -1.571   2.176  -0.028  0.00  0.00    +0.080 C 
ATOM     13  C   LIG    1       -0.842   1.331   1.037  0.00  0.00    -0.170 C 
ATOM     14  C   LIG    1       -0.992   1.717   2.510  0.00  0.00    +0.090 C 
ATOM     15  C   LIG    1        0.190   2.258   1.703  0.00  0.00    +0.000 C 
BRANCH  10  17
ATOM     16  C   LIG    1        0.774   5.883   1.425  0.00  0.00    +0.200 C 
ATOM     17  O   LIG    1        0.221   4.685   1.973  0.00  0.00    -0.380 OA
ENDBRANCH  10  17
ENDBRANCH   1  13
BRANCH   8  18
ATOM     18  C   LIG    1        0.290  -2.658   0.400  0.00  0.00    +0.290 C 
BRANCH  18  19
ATOM     19  N   LIG    1        1.151  -2.053  -0.620  0.00  0.00    -0.690 N 
ATOM     20  H   LIG    1        0.764  -1.499  -1.315  0.00  0.00    +0.390 HD
ATOM     21  C   LIG    1        2.482  -2.267  -0.591  0.00  0.00    +0.600 C 
ATOM     22  O   LIG    1        2.968  -2.962   0.281  0.00  0.00    -0.560 OA
BRANCH  21  23
ATOM     23  C   LIG    1        3.347  -1.659  -1.616  0.00  0.00    -0.230 A 
ATOM     24  C   LIG    1        4.706  -1.776  -1.719  0.00  0.00    +0.100 A 
ATOM     25  N   LIG    1        5.113  -1.072  -2.792  0.00  0.00    -0.550 N 
ATOM     26  H   LIG    1        6.034  -0.994  -3.088  0.00  0.00    +0.420 HD
ATOM     27  C   LIG    1        4.046  -0.479  -3.402  0.00  0.00    +0.150 A 
ATOM     28  C   LIG    1        5.596  -2.561  -0.790  0.00  0.00    +0.140 C 
ATOM     29  C   LIG    1        2.927  -0.800  -2.728  0.00  0.00    -0.030 A 
ENDBRANCH  21  23
ENDBRANCH  18  19
ENDBRANCH   8  18
TORSDOF 5
