REMARK  Name = ZINCvU0000000JBg.0
REMARK                            x       y       z     vdW  Elec       q    Type
REMARK                         _______ _______ _______ _____ _____    ______ ____
ROOT
ATOM      1  C   LIG    1       -2.711   4.995  -2.186  0.00  0.00    +0.290 A 
ATOM      2  N   LIG    1       -3.328   4.798  -3.314  0.00  0.00    -0.480 NA
ATOM      3  C   LIG    1       -4.102   3.686  -3.224  0.00  0.00    +0.050 A 
ATOM      4  C   LIG    1       -4.958   3.032  -4.114  0.00  0.00    +0.070 A 
ATOM      5  C   LIG    1       -5.616   1.902  -3.720  0.00  0.00    +0.000 A 
ATOM      6  C   LIG    1       -5.444   1.392  -2.441  0.00  0.00    +0.030 A 
ATOM      7  C   LIG    1       -4.604   2.021  -1.545  0.00  0.00    +0.010 A 
ATOM      8  C   LIG    1       -3.927   3.170  -1.928  0.00  0.00    +0.060 A 
ATOM      9  N   LIG    1       -3.039   4.018  -1.297  0.00  0.00    -0.480 N 
ENDROOT
BRANCH   1  12
ATOM     10  N   LIG    1       -0.333   7.579  -3.173  0.00  0.00    -0.550 N 
ATOM     11  C   LIG    1       -0.608   6.159  -2.925  0.00  0.00    +0.300 C 
ATOM     12  C   LIG    1       -1.768   6.136  -1.905  0.00  0.00    +0.090 C 
ATOM     13  C   LIG    1       -2.452   7.497  -2.173  0.00  0.00    +0.100 C 
ATOM     14  C   LIG    1       -1.354   8.353  -2.765  0.00  0.00    +0.520 C 
ATOM     15  O   LIG    1       -1.389   9.562  -2.859  0.00  0.00    -0.510 OA
BRANCH  10  19
ATOM     16  C   LIG    1        3.168   9.027  -4.915  0.00  0.00    +0.110 A 
ATOM     17  C   LIG    1        2.949   7.660  -4.832  0.00  0.00    +0.020 A 
ATOM     18  C   LIG    1        1.790   7.180  -4.255  0.00  0.00    +0.010 A 
ATOM     19  C   LIG    1        0.843   8.066  -3.758  0.00  0.00    +0.130 A 
ATOM     20  C   LIG    1        1.060   9.434  -3.848  0.00  0.00    +0.050 A 
ATOM     21  C   LIG    1        2.222   9.913  -4.420  0.00  0.00    -0.050 A 
BRANCH  16  23
ATOM     22  C   LIG    1        4.468  10.919  -5.537  0.00  0.00    +0.250 C 
ATOM     23  O   LIG    1        4.309   9.499  -5.484  0.00  0.00    -0.320 OA
ENDBRANCH  16  23
ENDBRANCH  10  19
ENDBRANCH   1  12
BRANCH   9  24
ATOM     24  C   LIG    1       -2.547   3.894   0.077  0.00  0.00    +0.360 C 
BRANCH  24  25
ATOM     25  C   LIG    1       -1.212   3.194   0.071  0.00  0.00    -0.110 A 
ATOM     26  C   LIG    1       -0.047   3.929  -0.041  0.00  0.00    +0.040 A 
ATOM     27  C   LIG    1        1.177   3.287  -0.047  0.00  0.00    +0.030 A 
ATOM     28  C   LIG    1        1.237   1.910   0.059  0.00  0.00    +0.050 A 
ATOM     29  C   LIG    1        0.072   1.174   0.172  0.00  0.00    +0.030 A 
ATOM     30  C   LIG    1       -1.154   1.815   0.172  0.00  0.00    -0.020 A 
ATOM     31 CL   LIG    1       -2.617   0.891   0.305  0.00  0.00    -0.060 Cl
ENDBRANCH  24  25
ENDBRANCH   9  24
TORSDOF 5
