REMARK  Name = ZINCpk00000KfKHN.0
REMARK                            x       y       z     vdW  Elec       q    Type
REMARK                         _______ _______ _______ _____ _____    ______ ____
ROOT
ATOM      1  C   LIG    1        5.148  -1.830  -1.660  0.00  0.00    +0.500 C 
ATOM      2  N   LIG    1        4.015  -1.147  -1.403  0.00  0.00    -0.720 N 
ATOM      3  H   LIG    1        3.395  -0.946  -2.122  0.00  0.00    +0.400 HD
ATOM      4  O   LIG    1        5.922  -2.080  -0.761  0.00  0.00    -0.500 OA
ENDROOT
BRANCH   1   5
ATOM      5  C   LIG    1        5.452  -2.283  -3.064  0.00  0.00    +0.270 C 
BRANCH   5   6
ATOM      6  N   LIG    1        6.433  -3.371  -3.025  0.00  0.00    -0.730 N 
ATOM      7  H   LIG    1        6.207  -4.240  -3.392  0.00  0.00    +0.400 HD
ATOM      8  C   LIG    1        7.647  -3.164  -2.479  0.00  0.00    +0.710 C 
ATOM      9  O   LIG    1        7.929  -2.074  -2.020  0.00  0.00    -0.560 OA
ATOM     10  N   LIG    1        8.549  -4.165  -2.443  0.00  0.00    -0.870 N 
ATOM     11  H   LIG    1        9.424  -4.016  -2.050  0.00  0.00    +0.410 HD
ATOM     12  H   LIG    1        8.324  -5.034  -2.809  0.00  0.00    +0.390 HD
ENDBRANCH   5   6
BRANCH   5  13
ATOM     13  C   LIG    1        6.022  -1.111  -3.866  0.00  0.00    -0.010 C 
ATOM     14  C   LIG    1        4.998   0.025  -3.907  0.00  0.00    +0.030 C 
BRANCH  13  16
ATOM     15  C   LIG    1        7.016  -0.437  -6.057  0.00  0.00    +0.010 C 
ATOM     16  C   LIG    1        6.331  -1.571  -5.292  0.00  0.00    +0.010 C 
ENDBRANCH  13  16
ENDBRANCH   5  13
ENDBRANCH   1   5
BRANCH   2  17
ATOM     17  C   LIG    1        3.719  -0.706  -0.037  0.00  0.00    +0.330 C 
BRANCH  17  18
ATOM     18  C   LIG    1        2.404   0.030  -0.021  0.00  0.00    -0.140 A 
ATOM     19  C   LIG    1        2.387   1.412  -0.013  0.00  0.00    +0.040 A 
ATOM     20  C   LIG    1        1.180   2.091   0.002  0.00  0.00    +0.060 A 
ATOM     21  C   LIG    1       -0.017   1.381   0.010  0.00  0.00    +0.150 A 
ATOM     22  C   LIG    1        0.002  -0.004   0.002  0.00  0.00    -0.120 A 
ATOM     23  C   LIG    1        1.213  -0.680  -0.013  0.00  0.00    +0.150 A 
BRANCH  21  24
ATOM     24  O   LIG    1       -1.203   2.046   0.019  0.00  0.00    -0.300 OA
ATOM     25  C   LIG    1       -2.391   1.252   0.020  0.00  0.00    +0.240 C 
ENDBRANCH  21  24
BRANCH  20  26
ATOM     26  O   LIG    1        1.164   3.452   0.009  0.00  0.00    -0.310 OA
ATOM     27  C   LIG    1        2.429   4.116   0.001  0.00  0.00    +0.240 C 
ENDBRANCH  20  26
BRANCH  23  28
ATOM     28  O   LIG    1        1.232  -2.039  -0.020  0.00  0.00    -0.310 OA
ATOM     29  C   LIG    1       -0.032  -2.706  -0.011  0.00  0.00    +0.250 C 
ENDBRANCH  23  28
ENDBRANCH  17  18
ENDBRANCH   2  17
TORSDOF 9
