REMARK  Name = ZINCnE000004RgQ0.0
REMARK                            x       y       z     vdW  Elec       q    Type
REMARK                         _______ _______ _______ _____ _____    ______ ____
ROOT
ATOM      1  N   LIG    1       -0.875   1.865   1.354  0.00  0.00    -1.050 N 
ATOM      2  H   LIG    1       -0.517   2.538   1.955  0.00  0.00    +0.430 HD
ENDROOT
BRANCH   1   5
ATOM      3  C   LIG    1       -4.422   1.469   2.273  0.00  0.00    -0.100 A 
ATOM      4  C   LIG    1       -3.185   2.063   2.011  0.00  0.00    +0.050 A 
ATOM      5  C   LIG    1       -2.113   1.276   1.621  0.00  0.00    +0.130 A 
ATOM      6  C   LIG    1       -2.268  -0.101   1.502  0.00  0.00    +0.000 A 
ATOM      7  C   LIG    1       -3.490  -0.690   1.766  0.00  0.00    +0.040 A 
ATOM      8  C   LIG    1       -4.566   0.084   2.150  0.00  0.00    -0.070 A 
ATOM      9 BR   LIG    1       -6.235  -0.729   2.511  0.00  0.00    -0.030 Br
BRANCH   3  11
ATOM     10  O   LIG    1       -5.441   3.511   2.790  0.00  0.00    -0.690 OA
ATOM     11  C   LIG    1       -5.570   2.300   2.683  0.00  0.00    +0.510 C 
ATOM     12  O   LIG    1       -6.651   1.777   2.916  0.00  0.00    -0.650 OA
ENDBRANCH   3  11
ENDBRANCH   1   5
BRANCH   1  13
ATOM     13  S   LIG    1       -0.017   1.417   0.010  0.00  0.00    +2.700 S 
ATOM     14  O   LIG    1        1.162   2.210   0.003  0.00  0.00    -0.960 OA
ATOM     15  O   LIG    1        0.002  -0.004   0.002  0.00  0.00    -0.950 OA
BRANCH  13  16
ATOM     16  C   LIG    1       -0.957   1.909  -1.397  0.00  0.00    -0.670 A 
ATOM     17  C   LIG    1       -0.770   3.163  -1.949  0.00  0.00    +0.120 A 
ATOM     18  C   LIG    1       -1.508   3.547  -3.052  0.00  0.00    +0.000 A 
ATOM     19  C   LIG    1       -2.435   2.680  -3.607  0.00  0.00    -0.040 A 
ATOM     20  C   LIG    1       -3.354   2.858  -4.796  0.00  0.00    +0.080 C 
ATOM     21  C   LIG    1       -4.426   1.757  -4.645  0.00  0.00    +0.040 C 
ATOM     22  C   LIG    1       -3.679   0.676  -3.835  0.00  0.00    +0.080 C 
ATOM     23  C   LIG    1       -2.621   1.427  -3.055  0.00  0.00    -0.120 A 
ATOM     24  C   LIG    1       -1.876   1.041  -1.953  0.00  0.00    +0.140 A 
ENDBRANCH  13  16
ENDBRANCH   1  13
TORSDOF 4
