REMARK  Name = ZINCvU000000070v.0
REMARK                            x       y       z     vdW  Elec       q    Type
REMARK                         _______ _______ _______ _____ _____    ______ ____
ROOT
ATOM      1  C   LIG    1       -5.216   3.403  -0.102  0.00  0.00    +0.540 C 
ATOM      2  N   LIG    1       -6.044   3.880   0.848  0.00  0.00    -0.660 N 
ATOM      3  H   LIG    1       -5.694   4.434   1.563  0.00  0.00    +0.420 HD
ATOM      4  O   LIG    1       -5.634   2.630  -0.938  0.00  0.00    -0.500 OA
ENDROOT
BRANCH   2   5
ATOM      5  C   LIG    1       -7.411   3.576   0.803  0.00  0.00    +0.140 A 
ATOM      6  C   LIG    1       -8.346   4.519   1.210  0.00  0.00    +0.010 A 
ATOM      7  C   LIG    1       -9.693   4.221   1.159  0.00  0.00    +0.030 A 
ATOM      8  C   LIG    1      -10.113   2.976   0.714  0.00  0.00    +0.070 A 
ATOM      9  C   LIG    1       -9.179   2.031   0.312  0.00  0.00    +0.040 A 
ATOM     10  C   LIG    1       -7.831   2.330   0.357  0.00  0.00    +0.050 A 
BRANCH   8  11
ATOM     11  O   LIG    1      -11.439   2.681   0.670  0.00  0.00    -0.260 OA
BRANCH  11  12
ATOM     12  C   LIG    1      -12.174   3.200  -0.348  0.00  0.00    +0.120 A 
ATOM     13  C   LIG    1      -11.568   3.998  -1.308  0.00  0.00    -0.060 A 
ATOM     14  C   LIG    1      -12.317   4.520  -2.344  0.00  0.00    +0.050 A 
ATOM     15  C   LIG    1      -13.672   4.257  -2.420  0.00  0.00    -0.020 A 
ATOM     16  C   LIG    1      -14.280   3.466  -1.463  0.00  0.00    +0.050 A 
ATOM     17  C   LIG    1      -13.535   2.937  -0.427  0.00  0.00    -0.020 A 
ENDBRANCH  11  12
ENDBRANCH   8  11
ENDBRANCH   2   5
BRANCH   1  18
ATOM     18  C   LIG    1       -3.771   3.830  -0.126  0.00  0.00    +0.020 C 
ATOM     19  C   LIG    1       -3.658   5.211  -0.775  0.00  0.00    +0.090 C 
BRANCH  18  20
ATOM     20  S   LIG    1       -2.804   2.634  -1.080  0.00  0.00    +0.070 S 
BRANCH  20  27
ATOM     21  C   LIG    1        2.631   5.475   0.247  0.00  0.00    +0.130 A 
ATOM     22  C   LIG    1        3.190   4.466  -0.529  0.00  0.00    -0.040 A 
ATOM     23  C   LIG    1        2.387   3.502  -1.104  0.00  0.00    +0.060 A 
ATOM     24  C   LIG    1        1.016   3.537  -0.907  0.00  0.00    +0.020 A 
ATOM     25  N   LIG    1       -0.036   2.739  -1.334  0.00  0.00    -0.580 N 
ATOM     26  H   LIG    1        0.030   1.951  -1.895  0.00  0.00    +0.430 HD
ATOM     27  C   LIG    1       -1.183   3.276  -0.822  0.00  0.00    +0.260 A 
ATOM     28  N   LIG    1       -0.898   4.336  -0.107  0.00  0.00    -0.490 NA
ATOM     29  C   LIG    1        0.443   4.552  -0.124  0.00  0.00    +0.100 A 
ATOM     30  C   LIG    1        1.265   5.523   0.453  0.00  0.00    +0.030 A 
BRANCH  21  31
ATOM     31  O   LIG    1        3.432   6.420   0.808  0.00  0.00    -0.310 OA
BRANCH  31  33
ATOM     32  C   LIG    1        5.568   7.455   1.263  0.00  0.00    +0.070 C 
ATOM     33  C   LIG    1        4.835   6.313   0.556  0.00  0.00    +0.170 C 
ENDBRANCH  31  33
ENDBRANCH  21  31
ENDBRANCH  20  27
ENDBRANCH  18  20
ENDBRANCH   1  18
TORSDOF 8
