REMARK  Name = ZINCvU000000070v.1
REMARK                            x       y       z     vdW  Elec       q    Type
REMARK                         _______ _______ _______ _____ _____    ______ ____
ROOT
ATOM      1  C   LIG    1       -5.218   3.402  -0.102  0.00  0.00    +0.540 C 
ATOM      2  N   LIG    1       -6.046   3.879   0.848  0.00  0.00    -0.660 N 
ATOM      3  H   LIG    1       -5.696   4.432   1.563  0.00  0.00    +0.420 HD
ATOM      4  O   LIG    1       -5.635   2.629  -0.939  0.00  0.00    -0.500 OA
ENDROOT
BRANCH   2   5
ATOM      5  C   LIG    1       -7.413   3.575   0.802  0.00  0.00    +0.140 A 
ATOM      6  C   LIG    1       -8.348   4.517   1.208  0.00  0.00    +0.010 A 
ATOM      7  C   LIG    1       -9.695   4.219   1.157  0.00  0.00    +0.030 A 
ATOM      8  C   LIG    1      -10.114   2.974   0.711  0.00  0.00    +0.070 A 
ATOM      9  C   LIG    1       -9.180   2.030   0.310  0.00  0.00    +0.040 A 
ATOM     10  C   LIG    1       -7.833   2.329   0.355  0.00  0.00    +0.050 A 
BRANCH   8  11
ATOM     11  O   LIG    1      -11.441   2.679   0.666  0.00  0.00    -0.260 OA
BRANCH  11  12
ATOM     12  C   LIG    1      -12.176   3.198  -0.352  0.00  0.00    +0.120 A 
ATOM     13  C   LIG    1      -11.569   3.996  -1.310  0.00  0.00    -0.060 A 
ATOM     14  C   LIG    1      -12.318   4.519  -2.347  0.00  0.00    +0.050 A 
ATOM     15  C   LIG    1      -13.673   4.256  -2.424  0.00  0.00    -0.020 A 
ATOM     16  C   LIG    1      -14.281   3.464  -1.467  0.00  0.00    +0.050 A 
ATOM     17  C   LIG    1      -13.536   2.935  -0.431  0.00  0.00    -0.020 A 
ENDBRANCH  11  12
ENDBRANCH   8  11
ENDBRANCH   2   5
BRANCH   1  18
ATOM     18  C   LIG    1       -3.773   3.830  -0.126  0.00  0.00    +0.030 C 
ATOM     19  C   LIG    1       -3.660   5.211  -0.774  0.00  0.00    +0.090 C 
BRANCH  18  20
ATOM     20  S   LIG    1       -2.805   2.634  -1.080  0.00  0.00    +0.070 S 
BRANCH  20  26
ATOM     21  C   LIG    1        3.189   4.470  -0.527  0.00  0.00    +0.150 A 
ATOM     22  C   LIG    1        2.626   5.477   0.250  0.00  0.00    -0.060 A 
ATOM     23  C   LIG    1        1.265   5.523   0.453  0.00  0.00    +0.120 A 
ATOM     24  C   LIG    1        0.443   4.552  -0.124  0.00  0.00    +0.020 A 
ATOM     25  N   LIG    1       -0.900   4.336  -0.106  0.00  0.00    -0.480 NA
ATOM     26  C   LIG    1       -1.185   3.276  -0.821  0.00  0.00    +0.250 A 
ATOM     27  N   LIG    1       -0.036   2.740  -1.334  0.00  0.00    -0.580 N 
ATOM     28  H   LIG    1        0.030   1.952  -1.895  0.00  0.00    +0.430 HD
ATOM     29  C   LIG    1        1.015   3.536  -0.908  0.00  0.00    +0.100 A 
ATOM     30  C   LIG    1        2.386   3.502  -1.105  0.00  0.00    -0.030 A 
BRANCH  21  31
ATOM     31  O   LIG    1        4.535   4.437  -0.720  0.00  0.00    -0.310 OA
BRANCH  31  33
ATOM     32  C   LIG    1        6.786   5.264  -0.424  0.00  0.00    +0.070 C 
ATOM     33  C   LIG    1        5.305   5.466  -0.096  0.00  0.00    +0.170 C 
ENDBRANCH  31  33
ENDBRANCH  21  31
ENDBRANCH  20  26
ENDBRANCH  18  20
ENDBRANCH   1  18
TORSDOF 8
