REMARK  Name = ZINCvU0000000HID.1
REMARK                            x       y       z     vdW  Elec       q    Type
REMARK                         _______ _______ _______ _____ _____    ______ ____
ROOT
ATOM      1  C   LIG    1       -2.819   1.157   0.798  0.00  0.00    +0.020 C 
ATOM      2  C   LIG    1       -1.481   1.899   0.816  0.00  0.00    -0.010 C 
ATOM      3  C   LIG    1       -1.743   3.395   0.671  0.00  0.00    +0.040 C 
ATOM      4  C   LIG    1       -2.308   3.742  -0.720  0.00  0.00    +0.050 C 
ATOM      5  C   LIG    1       -1.294   3.249  -1.731  0.00  0.00    +0.150 C 
ATOM      6  O   LIG    1       -1.560   3.400  -3.115  0.00  0.00    -0.290 OA
ATOM      7  C   LIG    1       -0.827   2.418  -3.746  0.00  0.00    +0.100 A 
ATOM      8  C   LIG    1       -0.602   1.333  -2.905  0.00  0.00    -0.130 A 
ATOM      9  C   LIG    1        0.152   0.257  -3.326  0.00  0.00    +0.040 A 
ATOM     10  C   LIG    1        0.673   0.197  -4.599  0.00  0.00    +0.130 A 
ATOM     11  C   LIG    1        0.438   1.264  -5.493  0.00  0.00    -0.030 A 
ATOM     12  C   LIG    1        0.942   1.237  -6.803  0.00  0.00    +0.010 A 
ATOM     13  C   LIG    1        0.696   2.281  -7.642  0.00  0.00    +0.030 A 
ATOM     14  C   LIG    1       -0.050   3.379  -7.218  0.00  0.00    +0.010 A 
ATOM     15  C   LIG    1       -0.553   3.439  -5.955  0.00  0.00    +0.040 A 
ATOM     16  C   LIG    1       -0.319   2.380  -5.061  0.00  0.00    -0.040 A 
ATOM     17  C   LIG    1       -1.287   1.695  -1.622  0.00  0.00    +0.020 C 
ATOM     18  C   LIG    1       -0.594   1.359  -0.319  0.00  0.00    +0.050 C 
ENDROOT
BRANCH  10  19
ATOM     19  N   LIG    1        1.426  -0.908  -5.003  0.00  0.00    -1.040 N 
ATOM     20  H   LIG    1        2.179  -0.789  -5.603  0.00  0.00    +0.430 HD
BRANCH  19  21
ATOM     21  S   LIG    1        1.035  -2.421  -4.455  0.00  0.00    +2.690 S 
ATOM     22  O   LIG    1        0.987  -2.335  -3.038  0.00  0.00    -0.930 OA
ATOM     23  O   LIG    1        1.877  -3.330  -5.151  0.00  0.00    -0.930 OA
BRANCH  21  24
ATOM     24  C   LIG    1       -0.610  -2.759  -4.989  0.00  0.00    -0.680 A 
ATOM     25  C   LIG    1       -1.681  -2.421  -4.184  0.00  0.00    +0.190 A 
ATOM     26  C   LIG    1       -2.972  -2.683  -4.604  0.00  0.00    +0.030 A 
ATOM     27  C   LIG    1       -3.191  -3.290  -5.826  0.00  0.00    +0.170 A 
ATOM     28  C   LIG    1       -2.119  -3.634  -6.629  0.00  0.00    -0.060 A 
ATOM     29  C   LIG    1       -0.829  -3.368  -6.211  0.00  0.00    +0.220 A 
BRANCH  28  30
ATOM     30  N   LIG    1       -2.354  -4.285  -7.938  0.00  0.00    +0.030 N 
ATOM     31  O   LIG    1       -3.491  -4.519  -8.306  0.00  0.00    -0.150 OA
ATOM     32  O   LIG    1       -1.409  -4.587  -8.646  0.00  0.00    -0.150 OA
ENDBRANCH  28  30
ENDBRANCH  21  24
ENDBRANCH  19  21
ENDBRANCH  10  19
TORSDOF 4
