REMARK  Name = ZINCtj0000002EBj.0
REMARK                            x       y       z     vdW  Elec       q    Type
REMARK                         _______ _______ _______ _____ _____    ______ ____
ROOT
ATOM      1  C   LIG    1       -1.332   2.114   0.020  0.00  0.00    +0.050 C 
ATOM      2  C   LIG    1       -2.127   1.724   1.269  0.00  0.00    +0.070 C 
ATOM      3  C   LIG    1       -3.494   2.410   1.232  0.00  0.00    +0.240 C 
ATOM      4  N   LIG    1       -4.226   1.989   0.032  0.00  0.00    -0.380 N 
ATOM      5  C   LIG    1       -3.505   2.425  -1.170  0.00  0.00    +0.260 C 
ATOM      6  H   LIG    1       -4.311   0.984   0.026  0.00  0.00    +0.430 HD
ATOM      7  C   LIG    1       -2.139   1.737  -1.226  0.00  0.00    +0.070 C 
ENDROOT
BRANCH   1  12
ATOM      8  C   LIG    1        2.380   1.409  -0.013  0.00  0.00    +0.140 A 
ATOM      9  C   LIG    1        2.396   0.022  -0.022  0.00  0.00    -0.070 A 
ATOM     10  C   LIG    1        1.207  -0.681  -0.014  0.00  0.00    +0.060 A 
ATOM     11  C   LIG    1        0.002  -0.004   0.002  0.00  0.00    -0.040 A 
ATOM     12  C   LIG    1       -0.017   1.379   0.010  0.00  0.00    -0.060 A 
ATOM     13  C   LIG    1        1.169   2.087   0.002  0.00  0.00    -0.010 A 
BRANCH   8  15
ATOM     14  C   LIG    1        4.756   1.341  -0.039  0.00  0.00    +0.250 C 
ATOM     15  O   LIG    1        3.548   2.104  -0.022  0.00  0.00    -0.320 OA
ENDBRANCH   8  15
ENDBRANCH   1  12
BRANCH   4  16
ATOM     16  C   LIG    1       -5.566   2.592   0.042  0.00  0.00    +0.250 C 
BRANCH  16  17
ATOM     17  C   LIG    1       -6.363   2.043   1.227  0.00  0.00    +0.330 C 
BRANCH  17  18
ATOM     18  N   LIG    1       -7.699   2.644   1.237  0.00  0.00    -0.430 N 
ATOM     19  C   LIG    1       -8.087   3.724   1.944  0.00  0.00    +0.520 A 
ATOM     20  N   LIG    1       -9.348   3.979   1.705  0.00  0.00    -0.480 NA
ATOM     21  C   LIG    1       -9.837   3.079   0.848  0.00  0.00    +0.340 A 
ATOM     22  N   LIG    1      -11.081   2.878   0.271  0.00  0.00    -0.510 N 
ATOM     23  C   LIG    1      -12.189   3.781   0.591  0.00  0.00    +0.350 C 
ATOM     24  C   LIG    1      -11.272   1.854  -0.581  0.00  0.00    +0.700 A 
ATOM     25  O   LIG    1      -12.370   1.693  -1.078  0.00  0.00    -0.520 OA
ATOM     26  N   LIG    1      -10.279   1.005  -0.899  0.00  0.00    -0.550 N 
ATOM     27  C   LIG    1      -10.540  -0.093  -1.833  0.00  0.00    +0.360 C 
ATOM     28  C   LIG    1       -9.046   1.149  -0.370  0.00  0.00    +0.600 A 
ATOM     29  O   LIG    1       -8.155   0.373  -0.665  0.00  0.00    -0.530 OA
ATOM     30  C   LIG    1       -8.801   2.209   0.529  0.00  0.00    -0.170 A 
ENDBRANCH  17  18
ENDBRANCH  16  17
ENDBRANCH   4  16
TORSDOF 5
