REMARK  Name = ZINCb70000002pEP.0
REMARK                            x       y       z     vdW  Elec       q    Type
REMARK                         _______ _______ _______ _____ _____    ______ ____
ROOT
ATOM      1  C   LIG    1        1.932   2.118  -3.460  0.00  0.00    +0.550 C 
ATOM      2  N   LIG    1        1.362   1.451  -2.437  0.00  0.00    -0.620 N 
ATOM      3  C   LIG    1        2.148   1.087  -1.249  0.00  0.00    +0.300 C 
ATOM      4  C   LIG    1        1.429   1.612  -0.003  0.00  0.00    +0.030 C 
ATOM      5  C   LIG    1       -0.009   1.087   0.011  0.00  0.00    +0.180 C 
ATOM      6  C   LIG    1       -0.751   1.598  -1.226  0.00  0.00    +0.030 C 
ATOM      7  C   LIG    1       -0.057   1.074  -2.487  0.00  0.00    +0.300 C 
ATOM      8  O   LIG    1        3.080   2.508  -3.366  0.00  0.00    -0.530 OA
ENDROOT
BRANCH   5   9
ATOM      9  N   LIG    1       -0.692   1.561   1.222  0.00  0.00    -0.640 N 
ATOM     10  H   LIG    1       -0.203   1.224   2.037  0.00  0.00    +0.440 HD
ATOM     11  H   LIG    1       -1.640   1.215   1.231  0.00  0.00    +0.440 HD
ATOM     12  H   LIG    1       -0.702   2.570   1.229  0.00  0.00    +0.430 HD
ENDBRANCH   5   9
BRANCH   1  14
ATOM     13  C   LIG    1        1.758   2.943  -5.735  0.00  0.00    +0.170 C 
ATOM     14  C   LIG    1        1.166   2.374  -4.689  0.00  0.00    -0.110 C 
ENDBRANCH   1  14
TORSDOF 2
