REMARK  Name = ZINCpk00000y6x9q.0
REMARK                            x       y       z     vdW  Elec       q    Type
REMARK                         _______ _______ _______ _____ _____    ______ ____
ROOT
ATOM      1  N   LIG    1        0.096   1.155   2.804  0.00  0.00    -0.990 NA
ENDROOT
BRANCH   1   3
ATOM      2  C   LIG    1        0.701   1.478   0.146  0.00  0.00    -0.300 C 
ATOM      3  S   LIG    1       -0.610   1.649   1.389  0.00  0.00    +2.600 S 
ATOM      4  O   LIG    1       -1.641   0.698   1.161  0.00  0.00    -0.950 OA
ATOM      5  O   LIG    1       -0.912   3.020   1.609  0.00  0.00    -0.940 OA
ENDBRANCH   1   3
BRANCH   1   6
ATOM      6  C   LIG    1       -0.091  -0.220   3.274  0.00  0.00    +0.440 C 
BRANCH   6   7
ATOM      7  C   LIG    1        1.227  -0.949   3.233  0.00  0.00    +0.150 A 
ATOM      8  N   LIG    1        2.166  -0.906   4.141  0.00  0.00    -0.260 NA
ATOM      9  N   LIG    1        3.150  -1.659   3.785  0.00  0.00    -0.280 NA
ATOM     10  C   LIG    1        2.878  -2.217   2.643  0.00  0.00    +0.170 A 
ATOM     11  C   LIG    1        3.718  -3.202   1.872  0.00  0.00    +0.140 C 
ATOM     12  C   LIG    1        3.731  -2.798   0.400  0.00  0.00    +0.230 C 
ATOM     13  O   LIG    1        2.608  -3.370  -0.266  0.00  0.00    -0.370 OA
ATOM     14  C   LIG    1        1.433  -3.497   0.538  0.00  0.00    +0.240 C 
ATOM     15  C   LIG    1        0.974  -2.112   1.006  0.00  0.00    +0.270 C 
ATOM     16  N   LIG    1        1.657  -1.773   2.253  0.00  0.00    -0.470 N 
ENDBRANCH   6   7
ENDBRANCH   1   6
BRANCH   1  17
ATOM     17  C   LIG    1        0.907   2.092   3.584  0.00  0.00    +0.300 C 
BRANCH  17  18
ATOM     18  C   LIG    1        0.041   2.737   4.668  0.00  0.00    +0.040 C 
BRANCH  18  19
ATOM     19  C   LIG    1        0.888   3.716   5.483  0.00  0.00    -0.030 C 
ATOM     20  C   LIG    1       -0.000   4.466   6.497  0.00  0.00    +0.040 C 
ATOM     21  C   LIG    1        0.894   4.607   7.753  0.00  0.00    +0.040 C 
ATOM     22  C   LIG    1        1.653   3.257   7.787  0.00  0.00    +0.030 C 
ATOM     23  C   LIG    1        1.939   2.948   6.303  0.00  0.00    +0.280 C 
ATOM     24  F   LIG    1        3.224   3.382   5.962  0.00  0.00    -0.200 F 
ATOM     25  F   LIG    1        1.819   1.574   6.068  0.00  0.00    -0.180 F 
ENDBRANCH  18  19
ENDBRANCH  17  18
ENDBRANCH   1  17
TORSDOF 6
