REMARK  Name = ZINCvU0000000GyA.0
REMARK                            x       y       z     vdW  Elec       q    Type
REMARK                         _______ _______ _______ _____ _____    ______ ____
ROOT
ATOM      1  C   LIG    1       -2.426   0.608   0.303  0.00  0.00    -0.070 A 
ATOM      2  C   LIG    1       -2.464  -0.784   0.221  0.00  0.00    +0.030 A 
ATOM      3  C   LIG    1       -3.679  -1.434   0.148  0.00  0.00    +0.130 A 
ATOM      4  C   LIG    1       -4.857  -0.708   0.147  0.00  0.00    -0.660 A 
ATOM      5  C   LIG    1       -4.825   0.673   0.223  0.00  0.00    +0.130 A 
ATOM      6  C   LIG    1       -3.617   1.335   0.301  0.00  0.00    +0.070 A 
ENDROOT
BRANCH   1   8
ATOM      7  O   LIG    1       -1.097   2.525   0.453  0.00  0.00    -0.520 OA
ATOM      8  C   LIG    1       -1.128   1.311   0.386  0.00  0.00    +0.560 C 
ATOM      9  N   LIG    1        0.021   0.607   0.388  0.00  0.00    -0.720 N 
ATOM     10  H   LIG    1       -0.003  -0.361   0.335  0.00  0.00    +0.400 HD
BRANCH   9  11
ATOM     11  C   LIG    1        1.308   1.304   0.465  0.00  0.00    +0.340 C 
BRANCH  11  12
ATOM     12  C   LIG    1        2.427   0.295   0.443  0.00  0.00    -0.110 A 
ATOM     13  C   LIG    1        2.909  -0.228   1.629  0.00  0.00    +0.070 A 
ATOM     14  C   LIG    1        3.933  -1.156   1.609  0.00  0.00    +0.020 A 
ATOM     15  C   LIG    1        4.482  -1.554   0.405  0.00  0.00    +0.080 A 
ATOM     16  C   LIG    1        4.003  -1.028  -0.780  0.00  0.00    -0.180 A 
ATOM     17  C   LIG    1        2.977  -0.103  -0.761  0.00  0.00    +0.090 A 
BRANCH  16  18
ATOM     18  C   LIG    1        4.602  -1.462  -2.094  0.00  0.00    +0.510 C 
ATOM     19  F   LIG    1        3.628  -1.393  -3.096  0.00  0.00    -0.180 F 
ATOM     20  F   LIG    1        5.064  -2.778  -1.983  0.00  0.00    -0.180 F 
ATOM     21  F   LIG    1        5.669  -0.619  -2.421  0.00  0.00    -0.170 F 
ENDBRANCH  16  18
ENDBRANCH  11  12
ENDBRANCH   9  11
ENDBRANCH   1   8
BRANCH   4  22
ATOM     22  S   LIG    1       -6.404  -1.546   0.046  0.00  0.00    +2.690 S 
ATOM     23  O   LIG    1       -7.372  -0.669   0.605  0.00  0.00    -0.940 OA
ATOM     24  O   LIG    1       -6.178  -2.864   0.528  0.00  0.00    -0.940 OA
BRANCH  22  25
ATOM     25  N   LIG    1       -6.778  -1.693  -1.560  0.00  0.00    -1.050 N 
ATOM     26  H   LIG    1       -7.588  -1.289  -1.909  0.00  0.00    +0.430 HD
BRANCH  25  27
ATOM     27  C   LIG    1       -5.926  -2.398  -2.415  0.00  0.00    +0.160 A 
ATOM     28  C   LIG    1       -5.254  -3.522  -1.955  0.00  0.00    +0.000 A 
ATOM     29  C   LIG    1       -4.413  -4.218  -2.802  0.00  0.00    +0.060 A 
ATOM     30  C   LIG    1       -4.239  -3.795  -4.107  0.00  0.00    +0.020 A 
ATOM     31  C   LIG    1       -4.906  -2.675  -4.569  0.00  0.00    +0.050 A 
ATOM     32  C   LIG    1       -5.754  -1.979  -3.729  0.00  0.00    -0.060 A 
ATOM     33 CL   LIG    1       -6.597  -0.578  -4.312  0.00  0.00    -0.060 Cl
ENDBRANCH  25  27
ENDBRANCH  22  25
ENDBRANCH   4  22
TORSDOF 7
