REMARK  Name = ZINCpk00001AZiwF.0
REMARK                            x       y       z     vdW  Elec       q    Type
REMARK                         _______ _______ _______ _____ _____    ______ ____
ROOT
ATOM      1  C   LIG    1        1.174   1.942  -0.240  0.00  0.00    +0.310 C 
ENDROOT
BRANCH   1   6
ATOM      2  C   LIG    1        2.872   2.571  -1.999  0.00  0.00    +0.090 C 
ATOM      3  C   LIG    1        2.800   3.654  -3.099  0.00  0.00    +0.010 C 
ATOM      4  C   LIG    1        1.287   3.818  -3.365  0.00  0.00    +0.210 C 
ATOM      5  O   LIG    1        0.648   3.373  -2.149  0.00  0.00    -0.340 OA
ATOM      6  C   LIG    1        1.395   2.210  -1.731  0.00  0.00    +0.160 C 
BRANCH   2  11
ATOM      7  C   LIG    1        4.431   5.670   1.673  0.00  0.00    +0.200 C 
ATOM      8  C   LIG    1        4.183   4.454   0.820  0.00  0.00    +0.180 A 
ATOM      9  N   LIG    1        4.609   3.243   1.056  0.00  0.00    -0.290 NA
ATOM     10  N   LIG    1        4.207   2.453   0.124  0.00  0.00    -0.290 NA
ATOM     11  C   LIG    1        3.515   3.126  -0.754  0.00  0.00    +0.190 A 
ATOM     12  N   LIG    1        3.477   4.414  -0.336  0.00  0.00    -0.570 N 
ATOM     13  H   LIG    1        3.034   5.157  -0.775  0.00  0.00    +0.430 HD
ENDBRANCH   2  11
ENDBRANCH   1   6
BRANCH   1  14
ATOM     14  N   LIG    1       -0.201   1.486  -0.024  0.00  0.00    -0.600 N 
ATOM     15  C   LIG    1       -1.178   2.383   0.217  0.00  0.00    +0.600 C 
ATOM     16  O   LIG    1       -0.938   3.573   0.164  0.00  0.00    -0.520 OA
ATOM     17  C   LIG    1       -0.515   0.056  -0.077  0.00  0.00    +0.290 C 
BRANCH  15  18
ATOM     18  C   LIG    1       -2.540   1.919   0.546  0.00  0.00    +0.010 A 
ATOM     19  C   LIG    1       -3.642   2.712   0.698  0.00  0.00    +0.170 A 
ATOM     20  N   LIG    1       -4.688   1.892   0.992  0.00  0.00    -0.360 N 
ATOM     21  C   LIG    1       -6.010   2.139   1.240  0.00  0.00    +0.220 A 
ATOM     22  C   LIG    1       -6.857   1.128   1.519  0.00  0.00    +0.020 A 
ATOM     23  C   LIG    1       -6.393  -0.198   1.559  0.00  0.00    +0.050 A 
ATOM     24  C   LIG    1       -5.082  -0.460   1.315  0.00  0.00    +0.070 A 
ATOM     25  C   LIG    1       -4.205   0.607   1.024  0.00  0.00    +0.220 A 
ATOM     26  N   LIG    1       -2.911   0.642   0.753  0.00  0.00    -0.460 NA
ENDBRANCH  15  18
ENDBRANCH   1  14
TORSDOF 4
