REMARK  Name = ZINCtV00000L6jY4.0
REMARK                            x       y       z     vdW  Elec       q    Type
REMARK                         _______ _______ _______ _____ _____    ______ ____
ROOT
ATOM      1  C   LIG    1        4.766  -1.774  -0.051  0.00  0.00    +0.170 C 
ATOM      2  C   LIG    1        4.011  -0.470  -0.038  0.00  0.00    +0.150 A 
ATOM      3  N   LIG    1        2.707  -0.344  -0.025  0.00  0.00    -0.330 NA
ATOM      4  N   LIG    1        2.375   1.014  -0.015  0.00  0.00    -0.340 N 
ATOM      5  C   LIG    1        1.173   1.671  -0.000  0.00  0.00    +0.490 A 
ATOM      6  C   LIG    1        1.168   3.050   0.002  0.00  0.00    -0.170 A 
ATOM      7  C   LIG    1        2.383   3.735  -0.001  0.00  0.00    +0.260 A 
ATOM      8  N   LIG    1        3.519   3.071  -0.015  0.00  0.00    -0.500 NA
ATOM      9  C   LIG    1        3.541   1.734  -0.022  0.00  0.00    +0.320 A 
ATOM     10  C   LIG    1        4.588   0.805  -0.037  0.00  0.00    -0.220 A 
ENDROOT
BRANCH  10  11
ATOM     11  C   LIG    1        6.037   1.115  -0.049  0.00  0.00    +0.020 A 
ATOM     12  C   LIG    1        6.624   1.760   1.040  0.00  0.00    +0.020 A 
ATOM     13  C   LIG    1        7.975   2.040   1.025  0.00  0.00    +0.000 A 
ATOM     14  C   LIG    1        8.745   1.694  -0.071  0.00  0.00    +0.000 A 
ATOM     15  C   LIG    1        8.167   1.058  -1.156  0.00  0.00    +0.000 A 
ATOM     16  C   LIG    1        6.818   0.768  -1.151  0.00  0.00    +0.010 A 
ENDBRANCH  10  11
BRANCH   7  17
ATOM     17  C   LIG    1        2.394   5.242   0.007  0.00  0.00    -0.020 C 
ATOM     18  C   LIG    1        1.689   5.750   1.266  0.00  0.00    +0.050 C 
ATOM     19  C   LIG    1        1.665   5.764  -1.232  0.00  0.00    +0.050 C 
ATOM     20  C   LIG    1        3.841   5.740  -0.004  0.00  0.00    +0.050 C 
ENDBRANCH   7  17
BRANCH   5  21
ATOM     21  N   LIG    1       -0.011   0.966   0.007  0.00  0.00    -0.710 N 
ATOM     22  H   LIG    1        0.002  -0.004   0.002  0.00  0.00    +0.410 HD
BRANCH  21  23
ATOM     23  C   LIG    1       -1.290   1.681   0.017  0.00  0.00    +0.290 C 
ATOM     24  C   LIG    1       -1.667   2.032   1.458  0.00  0.00    +0.040 C 
BRANCH  23  25
ATOM     25  C   LIG    1       -2.360   0.806  -0.583  0.00  0.00    -0.100 A 
ATOM     26  C   LIG    1       -2.384  -0.548  -0.302  0.00  0.00    +0.010 A 
ATOM     27  C   LIG    1       -3.368  -1.350  -0.849  0.00  0.00    +0.020 A 
ATOM     28  C   LIG    1       -4.322  -0.800  -1.684  0.00  0.00    +0.020 A 
ATOM     29  C   LIG    1       -4.295   0.552  -1.970  0.00  0.00    +0.020 A 
ATOM     30  C   LIG    1       -3.313   1.355  -1.419  0.00  0.00    +0.030 A 
ENDBRANCH  23  25
ENDBRANCH  21  23
ENDBRANCH   5  21
TORSDOF 5
