REMARK  Name = ZINCrD00000F5Lsv.0
REMARK                            x       y       z     vdW  Elec       q    Type
REMARK                         _______ _______ _______ _____ _____    ______ ____
ROOT
ATOM      1  C   LIG    1       -2.143  -3.939  -3.360  0.00  0.00    +0.540 C 
ATOM      2  N   LIG    1       -2.703  -5.156  -3.214  0.00  0.00    -0.630 N 
ATOM      3  C   LIG    1       -3.776  -5.500  -2.261  0.00  0.00    +0.270 C 
ATOM      4  C   LIG    1       -4.471  -6.747  -2.877  0.00  0.00    +0.050 C 
ATOM      5  C   LIG    1       -3.275  -7.480  -3.503  0.00  0.00    -0.100 C 
ATOM      6  C   LIG    1       -2.598  -8.420  -2.503  0.00  0.00    +0.090 C 
ATOM      7  C   LIG    1       -3.134  -9.823  -2.858  0.00  0.00    +0.250 C 
ATOM      8  N   LIG    1       -4.101  -9.650  -3.965  0.00  0.00    -0.390 N 
ATOM      9  H   LIG    1       -5.038  -9.570  -3.598  0.00  0.00    +0.430 HD
ATOM     10  C   LIG    1       -3.713  -8.391  -4.657  0.00  0.00    +0.290 C 
ATOM     11  C   LIG    1       -2.341  -6.366  -3.974  0.00  0.00    +0.290 C 
ATOM     12  O   LIG    1       -1.260  -3.772  -4.175  0.00  0.00    -0.520 OA
ENDROOT
BRANCH   1  13
ATOM     13  C   LIG    1       -2.613  -2.786  -2.512  0.00  0.00    +0.090 C 
BRANCH  13  14
ATOM     14  C   LIG    1       -1.820  -1.529  -2.874  0.00  0.00    +0.130 C 
BRANCH  14  15
ATOM     15  S   LIG    1       -2.387  -0.141  -1.853  0.00  0.00    -0.140 S 
BRANCH  15  16
ATOM     16  S   LIG    1       -1.700  -0.632   0.015  0.00  0.00    -0.190 S 
BRANCH  16  17
ATOM     17  C   LIG    1        0.002  -0.004   0.002  0.00  0.00    +0.150 C 
BRANCH  17  18
ATOM     18  C   LIG    1       -0.019   1.526   0.010  0.00  0.00    -0.040 C 
BRANCH  18  20
ATOM     19  O   LIG    1        2.333   1.268  -0.013  0.00  0.00    -0.700 OA
ATOM     20  C   LIG    1        1.395   2.047  -0.000  0.00  0.00    +0.500 C 
ATOM     21  O   LIG    1        1.602   3.249   0.004  0.00  0.00    -0.690 OA
ENDBRANCH  18  20
ENDBRANCH  17  18
ENDBRANCH  16  17
ENDBRANCH  15  16
ENDBRANCH  14  15
ENDBRANCH  13  14
ENDBRANCH   1  13
BRANCH   8  22
ATOM     22  C   LIG    1       -4.015 -10.785  -4.893  0.00  0.00    +0.330 C 
BRANCH  22  23
ATOM     23  C   LIG    1       -4.482 -12.038  -4.199  0.00  0.00    -0.160 A 
ATOM     24  C   LIG    1       -3.576 -12.831  -3.520  0.00  0.00    +0.040 A 
ATOM     25  C   LIG    1       -4.005 -13.978  -2.879  0.00  0.00    +0.030 A 
ATOM     26  C   LIG    1       -5.339 -14.338  -2.926  0.00  0.00    +0.050 A 
ATOM     27  C   LIG    1       -6.244 -13.549  -3.610  0.00  0.00    +0.030 A 
ATOM     28  C   LIG    1       -5.816 -12.399  -4.247  0.00  0.00    +0.040 A 
ENDBRANCH  22  23
ENDBRANCH   8  22
TORSDOF 9
