REMARK  Name = ZINCrD00000F5Lsv.1
REMARK                            x       y       z     vdW  Elec       q    Type
REMARK                         _______ _______ _______ _____ _____    ______ ____
ROOT
ATOM      1  C   LIG    1        1.754  -1.681  -0.647  0.00  0.00    +0.540 C 
ATOM      2  N   LIG    1        1.320  -0.412  -0.516  0.00  0.00    -0.630 N 
ATOM      3  C   LIG    1        2.085   0.799  -0.867  0.00  0.00    +0.260 C 
ATOM      4  C   LIG    1        1.467   1.929  -0.002  0.00  0.00    +0.080 C 
ATOM      5  C   LIG    1       -0.019   1.526   0.010  0.00  0.00    -0.100 C 
ATOM      6  C   LIG    1       -0.736   2.079   1.244  0.00  0.00    +0.100 C 
ATOM      7  C   LIG    1       -1.871   2.961   0.673  0.00  0.00    +0.260 C 
ATOM      8  N   LIG    1       -2.114   2.423  -0.692  0.00  0.00    -0.400 N 
ATOM      9  H   LIG    1       -2.688   1.594  -0.647  0.00  0.00    +0.430 HD
ATOM     10  C   LIG    1       -0.757   2.091  -1.207  0.00  0.00    +0.290 C 
ATOM     11  C   LIG    1        0.002  -0.004   0.002  0.00  0.00    +0.280 C 
ATOM     12  O   LIG    1        1.036  -2.604  -0.325  0.00  0.00    -0.520 OA
ENDROOT
BRANCH   1  13
ATOM     13  C   LIG    1        3.131  -1.954  -1.193  0.00  0.00    +0.090 C 
BRANCH  13  14
ATOM     14  C   LIG    1        3.373  -3.464  -1.238  0.00  0.00    +0.130 C 
BRANCH  14  15
ATOM     15  S   LIG    1        5.031  -3.792  -1.896  0.00  0.00    -0.140 S 
BRANCH  15  16
ATOM     16  S   LIG    1        6.261  -3.144  -0.390  0.00  0.00    -0.190 S 
BRANCH  16  17
ATOM     17  C   LIG    1        6.350  -4.582   0.712  0.00  0.00    +0.150 C 
BRANCH  17  18
ATOM     18  C   LIG    1        7.155  -5.694   0.035  0.00  0.00    -0.040 C 
BRANCH  18  20
ATOM     19  O   LIG    1        6.688  -6.854   2.043  0.00  0.00    -0.700 OA
ATOM     20  C   LIG    1        7.228  -6.889   0.951  0.00  0.00    +0.500 C 
ATOM     21  O   LIG    1        7.829  -7.890   0.599  0.00  0.00    -0.690 OA
ENDBRANCH  18  20
ENDBRANCH  17  18
ENDBRANCH  16  17
ENDBRANCH  15  16
ENDBRANCH  14  15
ENDBRANCH  13  14
ENDBRANCH   1  13
BRANCH   8  22
ATOM     22  C   LIG    1       -2.749   3.441  -1.539  0.00  0.00    +0.320 C 
BRANCH  22  23
ATOM     23  C   LIG    1       -4.133   3.735  -1.019  0.00  0.00    -0.160 A 
ATOM     24  C   LIG    1       -5.215   3.012  -1.486  0.00  0.00    +0.040 A 
ATOM     25  C   LIG    1       -6.483   3.279  -1.006  0.00  0.00    +0.030 A 
ATOM     26  C   LIG    1       -6.671   4.275  -0.066  0.00  0.00    +0.050 A 
ATOM     27  C   LIG    1       -5.590   5.002   0.397  0.00  0.00    +0.030 A 
ATOM     28  C   LIG    1       -4.321   4.732  -0.080  0.00  0.00    +0.040 A 
ENDBRANCH  22  23
ENDBRANCH   8  22
TORSDOF 9
