REMARK  Name = ZINCqH0000007CFx.0
REMARK                            x       y       z     vdW  Elec       q    Type
REMARK                         _______ _______ _______ _____ _____    ______ ____
ROOT
ATOM      1  C   LIG    1       -4.101   2.985  -6.140  0.00  0.00    +0.280 A 
ATOM      2  N   LIG    1       -3.216   3.070  -5.197  0.00  0.00    -0.490 NA
ATOM      3  C   LIG    1       -3.156   2.058  -4.333  0.00  0.00    +0.160 A 
ATOM      4  C   LIG    1       -4.031   1.059  -4.557  0.00  0.00    -0.110 A 
ATOM      5  S   LIG    1       -4.994   1.476  -5.973  0.00  0.00    +0.230 S 
ENDROOT
BRANCH   3   6
ATOM      6  C   LIG    1       -2.192   2.029  -3.212  0.00  0.00    -0.120 A 
ATOM      7  C   LIG    1       -1.289   2.991  -2.937  0.00  0.00    +0.040 A 
ATOM      8  C   LIG    1       -0.495   2.740  -1.836  0.00  0.00    +0.040 A 
ATOM      9  C   LIG    1       -0.742   1.585  -1.213  0.00  0.00    -0.210 A 
ATOM     10  S   LIG    1       -2.040   0.731  -2.035  0.00  0.00    +0.150 S 
BRANCH   9  11
ATOM     11  C   LIG    1       -0.013   1.086   0.008  0.00  0.00    +0.360 C 
BRANCH  11  12
ATOM     12  N   LIG    1       -0.698   1.558   1.213  0.00  0.00    -0.730 N 
ATOM     13  H   LIG    1       -1.495   2.106   1.135  0.00  0.00    +0.400 HD
ATOM     14  C   LIG    1       -0.222   1.232   2.431  0.00  0.00    +0.510 C 
ATOM     15  O   LIG    1        0.774   0.548   2.529  0.00  0.00    -0.540 OA
ATOM     16  C   LIG    1       -0.927   1.718   3.671  0.00  0.00    +0.100 C 
ENDBRANCH  11  12
ENDBRANCH   9  11
ENDBRANCH   3   6
BRANCH   1  18
ATOM     17  C   LIG    1       -5.267   3.738  -8.061  0.00  0.00    +0.570 C 
ATOM     18  N   LIG    1       -4.313   3.936  -7.129  0.00  0.00    -0.620 N 
ATOM     19  H   LIG    1       -3.775   4.742  -7.149  0.00  0.00    +0.430 HD
ATOM     20  O   LIG    1       -5.941   2.727  -8.035  0.00  0.00    -0.490 OA
BRANCH  17  25
ATOM     21  C   LIG    1       -6.684   5.501 -11.063  0.00  0.00    +0.120 A 
ATOM     22  C   LIG    1       -5.910   6.654 -11.086  0.00  0.00    -0.030 A 
ATOM     23  C   LIG    1       -4.932   6.855 -10.130  0.00  0.00    +0.060 A 
ATOM     24  C   LIG    1       -4.723   5.915  -9.142  0.00  0.00    +0.010 A 
ATOM     25  C   LIG    1       -5.492   4.750  -9.114  0.00  0.00    -0.100 A 
ATOM     26  C   LIG    1       -6.478   4.548 -10.080  0.00  0.00    +0.070 A 
BRANCH  21  28
ATOM     27  C   LIG    1       -7.801   6.332 -12.991  0.00  0.00    +0.250 C 
ATOM     28  O   LIG    1       -7.643   5.308 -12.006  0.00  0.00    -0.310 OA
ENDBRANCH  21  28
ENDBRANCH  17  25
ENDBRANCH   1  18
TORSDOF 6
