REMARK  Name = ZINCrD00000F5LBk.0
REMARK                            x       y       z     vdW  Elec       q    Type
REMARK                         _______ _______ _______ _____ _____    ______ ____
ROOT
ATOM      1  C   LIG    1       -0.151   0.190   0.599  0.00  0.00    +0.110 C 
ATOM      2  C   LIG    1       -1.247  -0.564   0.376  0.00  0.00    -0.090 C 
ENDROOT
BRANCH   1   5
ATOM      3  C   LIG    1        0.798   3.818   0.717  0.00  0.00    +0.120 A 
ATOM      4  C   LIG    1        0.891   2.442   0.773  0.00  0.00    -0.010 A 
ATOM      5  C   LIG    1       -0.244   1.657   0.542  0.00  0.00    -0.030 A 
ATOM      6  C   LIG    1       -1.467   2.271   0.251  0.00  0.00    +0.040 A 
ATOM      7  C   LIG    1       -1.553   3.646   0.202  0.00  0.00    -0.080 A 
ATOM      8 BR   LIG    1       -3.208   4.475  -0.185  0.00  0.00    -0.020 Br
ATOM      9  C   LIG    1       -0.425   4.424   0.432  0.00  0.00    +0.100 A 
BRANCH   9  10
ATOM     10  O   LIG    1       -0.514   5.779   0.378  0.00  0.00    -0.320 OA
ATOM     11  C   LIG    1       -0.282   6.394  -0.890  0.00  0.00    +0.230 C 
ENDBRANCH   9  10
BRANCH   3  12
ATOM     12  O   LIG    1        1.900   4.584   0.940  0.00  0.00    -0.300 OA
BRANCH  12  14
ATOM     13  C   LIG    1        4.239   4.916   1.448  0.00  0.00    +0.070 C 
ATOM     14  C   LIG    1        3.120   3.897   1.227  0.00  0.00    +0.190 C 
ENDBRANCH  12  14
ENDBRANCH   3  12
ENDBRANCH   1   5
BRANCH   2  15
ATOM     15  C   LIG    1       -1.154  -2.026   0.433  0.00  0.00    +0.440 C 
ATOM     16  O   LIG    1       -0.066  -2.564   0.566  0.00  0.00    -0.470 OA
BRANCH  15  17
ATOM     17  C   LIG    1       -2.321  -2.812   0.336  0.00  0.00    -0.380 C 
ATOM     18  C   LIG    1       -2.257  -4.171   0.219  0.00  0.00    +0.290 C 
ATOM     19  N   LIG    1       -3.349  -4.920   0.126  0.00  0.00    -0.560 NA
ATOM     20  C   LIG    1       -4.580  -4.455   0.136  0.00  0.00    +0.550 A 
ATOM     21  N   LIG    1       -5.792  -5.047   0.054  0.00  0.00    -0.260 NA
ATOM     22  N   LIG    1       -6.720  -4.159   0.108  0.00  0.00    +0.120 NA
ATOM     23  N   LIG    1       -6.223  -2.974   0.223  0.00  0.00    -0.270 N 
ATOM     24  H   LIG    1       -6.721  -2.144   0.283  0.00  0.00    +0.480 HD
ATOM     25  N   LIG    1       -4.834  -3.108   0.246  0.00  0.00    -0.450 N 
ATOM     26  C   LIG    1       -0.907  -4.840   0.196  0.00  0.00    +0.160 C 
ATOM     27  C   LIG    1       -3.704  -2.182   0.362  0.00  0.00    +0.310 C 
ATOM     28  C   LIG    1       -3.849  -1.405   1.672  0.00  0.00    +0.040 C 
ENDBRANCH  15  17
ENDBRANCH   2  15
TORSDOF 6
