REMARK  Name = ZINCpk00000xIbue.0
REMARK                            x       y       z     vdW  Elec       q    Type
REMARK                         _______ _______ _______ _____ _____    ______ ____
ROOT
ATOM      1  C   LIG    1        7.902   1.521  -1.296  0.00  0.00    +0.150 C 
ATOM      2  N   LIG    1        8.049   1.163  -0.066  0.00  0.00    -0.180 NA
ATOM      3  N   LIG    1        6.982   1.514   0.760  0.00  0.00    -0.850 N 
ATOM      4  C   LIG    1        5.968   2.215  -0.045  0.00  0.00    +0.280 C 
ATOM      5  C   LIG    1        6.576   2.235  -1.462  0.00  0.00    +0.100 C 
ENDROOT
BRANCH   4   6
ATOM      6  C   LIG    1        4.667   1.455  -0.036  0.00  0.00    -0.100 A 
ATOM      7  C   LIG    1        3.491   2.139  -0.020  0.00  0.00    +0.110 A 
ATOM      8  C   LIG    1        2.275   1.434  -0.012  0.00  0.00    +0.080 A 
ATOM      9  N   LIG    1        1.103   2.078   0.003  0.00  0.00    -0.420 NA
ATOM     10  C   LIG    1       -0.017   1.392   0.010  0.00  0.00    +0.260 A 
ATOM     11  C   LIG    1        0.002  -0.004   0.002  0.00  0.00    +0.260 A 
ATOM     12  N   LIG    1        1.140  -0.659  -0.013  0.00  0.00    -0.420 NA
ATOM     13  C   LIG    1        2.294   0.016  -0.020  0.00  0.00    +0.080 A 
ATOM     14  C   LIG    1        3.529  -0.655  -0.037  0.00  0.00    +0.080 A 
ATOM     15  C   LIG    1        4.686   0.061  -0.044  0.00  0.00    +0.030 A 
ENDBRANCH   4   6
BRANCH   1  21
ATOM     16  C   LIG    1        7.601   2.343  -4.273  0.00  0.00    +0.360 C 
ATOM     17  N   LIG    1        8.741   1.637  -3.682  0.00  0.00    -0.360 N 
ATOM     18  N   LIG    1        9.892   1.216  -4.359  0.00  0.00    -0.270 NA
ATOM     19  C   LIG    1       10.686   0.617  -3.509  0.00  0.00    +0.230 A 
ATOM     20  C   LIG    1       10.087   0.631  -2.250  0.00  0.00    -0.050 A 
ATOM     21  C   LIG    1        8.873   1.276  -2.372  0.00  0.00    +0.120 A 
ENDBRANCH   1  21
BRANCH   3  22
ATOM     22  S   LIG    1        6.874   1.197   2.381  0.00  0.00    +2.620 S 
ATOM     23  O   LIG    1        5.923   2.138   2.860  0.00  0.00    -0.930 OA
ATOM     24  O   LIG    1        8.221   1.222   2.834  0.00  0.00    -0.920 OA
ATOM     25  C   LIG    1        6.205  -0.487   2.469  0.00  0.00    -0.270 C 
ENDBRANCH   3  22
TORSDOF 3
