REMARK  Name = ZINCrD00000l1Aol.0
REMARK                            x       y       z     vdW  Elec       q    Type
REMARK                         _______ _______ _______ _____ _____    ______ ____
ROOT
ATOM      1  N   LIG    1       -2.195   4.605  -1.847  0.00  0.00    -0.590 N 
ATOM      2  C   LIG    1       -2.183   5.917  -1.536  0.00  0.00    +0.590 C 
ATOM      3  O   LIG    1       -2.776   6.714  -2.239  0.00  0.00    -0.530 OA
ATOM      4  C   LIG    1       -1.630   3.627  -0.915  0.00  0.00    +0.310 C 
ENDROOT
BRANCH   2   5
ATOM      5  C   LIG    1       -1.456   6.383  -0.350  0.00  0.00    -0.080 A 
ATOM      6  C   LIG    1       -0.857   5.606   0.602  0.00  0.00    +0.220 A 
ATOM      7  N   LIG    1       -0.309   6.419   1.506  0.00  0.00    -0.490 NA
ATOM      8  C   LIG    1       -0.527   7.665   1.169  0.00  0.00    +0.440 A 
ATOM      9  N   LIG    1       -1.240   7.696   0.027  0.00  0.00    -0.380 N 
BRANCH   9  10
ATOM     10  C   LIG    1       -1.676   8.842  -0.653  0.00  0.00    +0.100 A 
ATOM     11  C   LIG    1       -2.456   9.785   0.003  0.00  0.00    +0.060 A 
ATOM     12  C   LIG    1       -2.884  10.913  -0.669  0.00  0.00    +0.010 A 
ATOM     13  C   LIG    1       -2.535  11.104  -1.996  0.00  0.00    +0.110 A 
ATOM     14  C   LIG    1       -1.762  10.162  -2.653  0.00  0.00    +0.010 A 
ATOM     15  F   LIG    1       -2.955  12.209  -2.651  0.00  0.00    -0.130 F 
ATOM     16  C   LIG    1       -1.328   9.035  -1.983  0.00  0.00    +0.090 A 
ENDBRANCH   9  10
ENDBRANCH   2   5
BRANCH   1  17
ATOM     17  C   LIG    1       -2.772   4.159  -3.117  0.00  0.00    +0.360 C 
BRANCH  17  22
ATOM     18  C   LIG    1        0.175   3.071  -5.229  0.00  0.00    +0.110 A 
ATOM     19  C   LIG    1        0.266   4.119  -6.130  0.00  0.00    -0.060 A 
ATOM     20  C   LIG    1       -0.625   5.175  -6.053  0.00  0.00    +0.040 A 
ATOM     21  C   LIG    1       -1.606   5.186  -5.080  0.00  0.00    +0.010 A 
ATOM     22  C   LIG    1       -1.701   4.143  -4.178  0.00  0.00    -0.090 A 
ATOM     23  C   LIG    1       -0.809   3.085  -4.245  0.00  0.00    +0.080 A 
BRANCH  18  25
ATOM     24  C   LIG    1        2.038   2.088  -6.334  0.00  0.00    +0.240 C 
ATOM     25  O   LIG    1        1.050   2.032  -5.302  0.00  0.00    -0.310 OA
ENDBRANCH  18  25
BRANCH  23  26
ATOM     26  O   LIG    1       -0.898   2.061  -3.355  0.00  0.00    -0.320 OA
ATOM     27  C   LIG    1       -1.730   0.957  -3.718  0.00  0.00    +0.220 C 
ENDBRANCH  23  26
ENDBRANCH  17  22
ENDBRANCH   1  17
TORSDOF 6
