REMARK  Name = ZINCrD000000AnwN.0
REMARK                            x       y       z     vdW  Elec       q    Type
REMARK                         _______ _______ _______ _____ _____    ______ ____
ROOT
ATOM      1  O   LIG    1        4.532  -0.399  -0.006  0.00  0.00    -0.530 OA
ATOM      2  C   LIG    1        4.745   0.793   0.062  0.00  0.00    +0.510 C 
ATOM      3  N   LIG    1        6.012   1.253   0.041  0.00  0.00    -0.720 N 
ATOM      4  H   LIG    1        6.183   2.207   0.095  0.00  0.00    +0.400 HD
ENDROOT
BRANCH   3   5
ATOM      5  C   LIG    1        7.131   0.314  -0.064  0.00  0.00    +0.270 C 
BRANCH   5   6
ATOM      6  C   LIG    1        8.441   1.093  -0.198  0.00  0.00    +0.030 C 
ATOM      7  C   LIG    1        8.410   1.912  -1.487  0.00  0.00    +0.020 C 
ATOM      8  C   LIG    1        9.802   2.512  -1.713  0.00  0.00    +0.020 C 
ATOM      9  C   LIG    1       10.761   1.379  -2.076  0.00  0.00    +0.080 C 
ATOM     10  C   LIG    1       10.664   0.261  -1.071  0.00  0.00    -0.070 A 
ATOM     11  C   LIG    1       11.701  -0.662  -1.030  0.00  0.00    +0.000 A 
ATOM     12  C   LIG    1       11.666  -1.716  -0.140  0.00  0.00    +0.000 A 
ATOM     13  C   LIG    1       10.590  -1.855   0.718  0.00  0.00    +0.000 A 
ATOM     14  C   LIG    1        9.561  -0.937   0.679  0.00  0.00    +0.000 A 
ATOM     15  C   LIG    1        9.595   0.125  -0.214  0.00  0.00    -0.070 A 
ENDBRANCH   5   6
ENDBRANCH   3   5
BRANCH   2  16
ATOM     16  C   LIG    1        3.594   1.760   0.171  0.00  0.00    +0.320 C 
BRANCH  16  17
ATOM     17  N   LIG    1        2.332   1.017   0.174  0.00  0.00    -0.740 N 
ATOM     18  H   LIG    1        2.338   0.049   0.111  0.00  0.00    +0.410 HD
ATOM     19  C   LIG    1        1.161   1.679   0.263  0.00  0.00    +0.710 C 
ATOM     20  N   LIG    1       -0.001   0.996   0.266  0.00  0.00    -0.740 N 
ATOM     21  H   LIG    1        0.005   0.028   0.203  0.00  0.00    +0.400 HD
ATOM     22  O   LIG    1        1.153   2.892   0.342  0.00  0.00    -0.590 OA
BRANCH  20  23
ATOM     23  C   LIG    1       -1.274   1.716   0.357  0.00  0.00    +0.340 C 
BRANCH  23  24
ATOM     24  C   LIG    1       -2.412   0.728   0.334  0.00  0.00    -0.110 A 
ATOM     25  C   LIG    1       -2.980   0.357  -0.870  0.00  0.00    +0.050 A 
ATOM     26  C   LIG    1       -4.021  -0.553  -0.893  0.00  0.00    +0.030 A 
ATOM     27  C   LIG    1       -4.501  -1.083   0.291  0.00  0.00    -0.030 A 
ATOM     28  C   LIG    1       -3.936  -0.706   1.497  0.00  0.00    +0.030 A 
ATOM     29 CL   LIG    1       -5.814  -2.219   0.265  0.00  0.00    -0.070 Cl
ATOM     30  C   LIG    1       -2.892   0.199   1.517  0.00  0.00    +0.050 A 
ENDBRANCH  23  24
ENDBRANCH  20  23
ENDBRANCH  16  17
ENDBRANCH   2  16
TORSDOF 6
