REMARK  Name = ZINCvU00000004j8.0
REMARK                            x       y       z     vdW  Elec       q    Type
REMARK                         _______ _______ _______ _____ _____    ______ ____
ROOT
ATOM      1  C   LIG    1       10.874   2.175  -0.072  0.00  0.00    +0.110 C 
ENDROOT
BRANCH   1   4
ATOM      2  N   LIG    1       13.243   2.888  -0.099  0.00  0.00    -0.660 N 
ATOM      3  H   LIG    1       12.936   3.806  -0.160  0.00  0.00    +0.430 HD
ATOM      4  C   LIG    1       12.351   1.877  -0.100  0.00  0.00    +0.540 C 
ATOM      5  O   LIG    1       12.738   0.728  -0.125  0.00  0.00    -0.500 OA
BRANCH   2   9
ATOM      6  C   LIG    1       17.323   2.068   0.171  0.00  0.00    +0.120 A 
ATOM      7  C   LIG    1       16.399   1.165   0.677  0.00  0.00    +0.020 A 
ATOM      8  C   LIG    1       15.048   1.436   0.588  0.00  0.00    +0.080 A 
ATOM      9  C   LIG    1       14.614   2.612  -0.008  0.00  0.00    +0.190 A 
ATOM     10  C   LIG    1       15.539   3.513  -0.519  0.00  0.00    -0.040 A 
ATOM     11  C   LIG    1       16.890   3.243  -0.425  0.00  0.00    +0.100 A 
BRANCH  10  12
ATOM     12  N   LIG    1       15.077   4.765  -1.159  0.00  0.00    +0.040 N 
ATOM     13  O   LIG    1       13.892   5.048  -1.159  0.00  0.00    -0.180 OA
ATOM     14  O   LIG    1       15.881   5.512  -1.687  0.00  0.00    -0.130 OA
ENDBRANCH  10  12
BRANCH   6  16
ATOM     15  C   LIG    1       19.028   0.571   0.884  0.00  0.00    +0.250 C 
ATOM     16  O   LIG    1       18.653   1.800   0.258  0.00  0.00    -0.310 OA
ENDBRANCH   6  16
ENDBRANCH   2   9
ENDBRANCH   1   4
BRANCH   1  17
ATOM     17  S   LIG    1        9.945   0.622  -0.082  0.00  0.00    +0.170 S 
BRANCH  17  18
ATOM     18  C   LIG    1        8.299   1.250  -0.045  0.00  0.00    +0.120 A 
ATOM     19  N   LIG    1        7.951   2.516  -0.019  0.00  0.00    -0.280 NA
ATOM     20  N   LIG    1        6.668   2.608  -0.003  0.00  0.00    -0.230 NA
ATOM     21  C   LIG    1        6.145   1.404  -0.008  0.00  0.00    +0.230 A 
ATOM     22  O   LIG    1        7.168   0.519  -0.039  0.00  0.00    -0.190 OA
BRANCH  21  23
ATOM     23  C   LIG    1        4.711   1.077   0.009  0.00  0.00    -0.120 A 
ATOM     24  C   LIG    1        3.730   1.984   0.039  0.00  0.00    +0.030 A 
ATOM     25  C   LIG    1        2.392   1.426   0.051  0.00  0.00    -0.080 A 
ATOM     26  C   LIG    1        1.146   2.094   0.082  0.00  0.00    +0.080 A 
ATOM     27  C   LIG    1       -0.016   1.385   0.090  0.00  0.00    +0.030 A 
ATOM     28  C   LIG    1        0.003  -0.003   0.068  0.00  0.00    +0.060 A 
ATOM     29  C   LIG    1        1.200  -0.679   0.037  0.00  0.00    +0.060 A 
ATOM     30  C   LIG    1        2.407   0.027   0.029  0.00  0.00    -0.130 A 
ATOM     31 CL   LIG    1        4.034   3.693   0.061  0.00  0.00    +0.000 Cl
ATOM     32  S   LIG    1        4.067  -0.553  -0.006  0.00  0.00    +0.190 S 
ENDBRANCH  21  23
ENDBRANCH  17  18
ENDBRANCH   1  17
TORSDOF 7
