REMARK  Name = ZINCqH0000001LvL.1
REMARK                            x       y       z     vdW  Elec       q    Type
REMARK                         _______ _______ _______ _____ _____    ______ ____
ROOT
ATOM      1  C   LIG    1        6.879   4.806  -0.043  0.00  0.00    +0.520 C 
ATOM      2  N   LIG    1        7.298   6.086  -0.004  0.00  0.00    -0.730 N 
ATOM      3  H   LIG    1        6.655   6.804   0.107  0.00  0.00    +0.400 HD
ATOM      4  O   LIG    1        7.683   3.908  -0.181  0.00  0.00    -0.510 OA
ENDROOT
BRANCH   1   5
ATOM      5  C   LIG    1        5.411   4.489   0.084  0.00  0.00    +0.220 C 
BRANCH   5   6
ATOM      6  O   LIG    1        5.221   3.075   0.013  0.00  0.00    -0.290 OA
BRANCH   6  10
ATOM      7  C   LIG    1        1.347   1.689   0.312  0.00  0.00    -0.110 A 
ATOM      8  C   LIG    1        1.600   3.047   0.368  0.00  0.00    +0.050 A 
ATOM      9  C   LIG    1        2.897   3.514   0.274  0.00  0.00    -0.080 A 
ATOM     10  C   LIG    1        3.945   2.618   0.112  0.00  0.00    +0.120 A 
ATOM     11  C   LIG    1        3.687   1.257   0.051  0.00  0.00    -0.010 A 
ATOM     12  C   LIG    1        2.389   0.795   0.152  0.00  0.00    +0.050 A 
BRANCH   7  14
ATOM     13  C   LIG    1       -0.909   1.768  -0.716  0.00  0.00    +0.030 C 
ATOM     14  C   LIG    1       -0.069   1.183   0.421  0.00  0.00    +0.030 C 
ATOM     15  C   LIG    1       -0.661   1.611   1.765  0.00  0.00    +0.030 C 
ENDBRANCH   7  14
ENDBRANCH   6  10
ENDBRANCH   5   6
ENDBRANCH   1   5
BRANCH   2  16
ATOM     16  C   LIG    1        8.726   6.393  -0.127  0.00  0.00    +0.300 C 
BRANCH  16  17
ATOM     17  C   LIG    1        8.918   7.911  -0.170  0.00  0.00    +0.230 C 
BRANCH  17  18
ATOM     18  N   LIG    1       10.332   8.217  -0.423  0.00  0.00    -0.510 NA
ATOM     19  C   LIG    1       10.781   7.634  -1.713  0.00  0.00    +0.170 C 
ATOM     20  C   LIG    1       12.043   8.464  -2.058  0.00  0.00    +0.040 C 
ATOM     21  C   LIG    1       11.664   9.885  -1.582  0.00  0.00    +0.020 C 
ATOM     22  C   LIG    1       10.545   9.676  -0.544  0.00  0.00    +0.170 C 
ENDBRANCH  17  18
BRANCH  17  23
ATOM     23  C   LIG    1        8.504   8.507   1.151  0.00  0.00    -0.000 A 
ATOM     24  C   LIG    1        7.328   9.108   1.407  0.00  0.00    -0.060 A 
ATOM     25  C   LIG    1        7.363   9.516   2.761  0.00  0.00    -0.060 A 
ATOM     26  C   LIG    1        8.558   9.139   3.250  0.00  0.00    +0.160 A 
ATOM     27  O   LIG    1        9.242   8.523   2.272  0.00  0.00    -0.150 OA
ENDBRANCH  17  23
ENDBRANCH  16  17
ENDBRANCH   2  16
TORSDOF 8
