REMARK  Name = ZINCvU00000007uw.0
REMARK                            x       y       z     vdW  Elec       q    Type
REMARK                         _______ _______ _______ _____ _____    ______ ____
ROOT
ATOM      1  C   LIG    1       -0.808   3.045   0.057  0.00  0.00    -0.140 A 
ATOM      2  C   LIG    1        0.547   3.081   0.010  0.00  0.00    +0.120 A 
ATOM      3  N   LIG    1        1.040   1.798  -0.046  0.00  0.00    -0.590 N 
ATOM      4  H   LIG    1        1.981   1.564  -0.089  0.00  0.00    +0.420 HD
ATOM      5  C   LIG    1       -0.001   0.896  -0.027  0.00  0.00    +0.100 A 
ATOM      6  C   LIG    1       -0.060  -0.492  -0.059  0.00  0.00    -0.010 A 
ATOM      7  C   LIG    1       -1.283  -1.127  -0.026  0.00  0.00    +0.040 A 
ATOM      8  C   LIG    1       -2.460  -0.395   0.038  0.00  0.00    -0.020 A 
ATOM      9  C   LIG    1       -2.426   0.971   0.070  0.00  0.00    +0.050 A 
ATOM     10  C   LIG    1       -1.198   1.636   0.038  0.00  0.00    -0.100 A 
ENDROOT
BRANCH   2  11
ATOM     11  C   LIG    1        1.367   4.311   0.014  0.00  0.00    -0.050 A 
ATOM     12  C   LIG    1        1.117   5.317   0.949  0.00  0.00    +0.080 A 
ATOM     13  C   LIG    1        1.889   6.459   0.953  0.00  0.00    -0.010 A 
ATOM     14  C   LIG    1        2.905   6.615   0.023  0.00  0.00    +0.110 A 
ATOM     15  C   LIG    1        3.154   5.623  -0.911  0.00  0.00    -0.010 A 
ATOM     16  F   LIG    1        3.655   7.739   0.028  0.00  0.00    -0.140 F 
ATOM     17  C   LIG    1        2.391   4.474  -0.920  0.00  0.00    +0.050 A 
ENDBRANCH   2  11
BRANCH   1  18
ATOM     18  C   LIG    1       -1.736   4.231   0.123  0.00  0.00    +0.130 C 
BRANCH  18  19
ATOM     19  C   LIG    1       -2.002   4.749  -1.292  0.00  0.00    +0.060 C 
BRANCH  19  21
ATOM     20  O   LIG    1       -3.190   6.433  -0.143  0.00  0.00    -0.530 OA
ATOM     21  C   LIG    1       -2.840   5.999  -1.220  0.00  0.00    +0.510 C 
ATOM     22  N   LIG    1       -3.201   6.635  -2.352  0.00  0.00    -0.720 N 
ATOM     23  H   LIG    1       -2.921   6.288  -3.214  0.00  0.00    +0.400 HD
BRANCH  22  24
ATOM     24  C   LIG    1       -4.016   7.850  -2.282  0.00  0.00    +0.290 C 
ATOM     25  C   LIG    1       -3.777   8.697  -3.534  0.00  0.00    -0.000 C 
ATOM     26  C   LIG    1       -4.843   9.799  -3.582  0.00  0.00    +0.250 C 
ATOM     27  O   LIG    1       -6.121   9.182  -3.745  0.00  0.00    -0.320 OA
ATOM     28  C   LIG    1       -6.438   8.151  -2.919  0.00  0.00    +0.140 A 
ATOM     29  C   LIG    1       -7.773   7.777  -2.808  0.00  0.00    -0.020 A 
ATOM     30  C   LIG    1       -8.135   6.732  -1.982  0.00  0.00    +0.050 A 
ATOM     31  C   LIG    1       -7.168   6.054  -1.262  0.00  0.00    -0.040 A 
ATOM     32  C   LIG    1       -5.842   6.425  -1.369  0.00  0.00    +0.060 A 
ATOM     33  C   LIG    1       -5.473   7.473  -2.195  0.00  0.00    -0.180 A 
ENDBRANCH  22  24
ENDBRANCH  19  21
ENDBRANCH  18  19
ENDBRANCH   1  18
TORSDOF 5
