REMARK  Name = ZINCrH00000aowff.0
REMARK                            x       y       z     vdW  Elec       q    Type
REMARK                         _______ _______ _______ _____ _____    ______ ____
ROOT
ATOM      1  N   LIG    1       -2.442   1.118  -4.730  0.00  0.00    -0.730 N 
ATOM      2  H   LIG    1       -1.607   1.611  -4.733  0.00  0.00    +0.400 HD
ATOM      3  C   LIG    1       -3.067   0.858  -3.564  0.00  0.00    +0.700 C 
ATOM      4  N   LIG    1       -2.531   1.283  -2.403  0.00  0.00    -0.680 N 
ATOM      5  H   LIG    1       -1.740   1.845  -2.411  0.00  0.00    +0.400 HD
ATOM      6  O   LIG    1       -4.114   0.239  -3.560  0.00  0.00    -0.560 OA
ENDROOT
BRANCH   1  11
ATOM      7  C   LIG    1       -3.870   0.011 -10.319  0.00  0.00    +0.090 C 
ATOM      8  C   LIG    1       -3.415   0.702  -9.032  0.00  0.00    -0.430 C 
ATOM      9  C   LIG    1       -2.448  -0.211  -8.276  0.00  0.00    +0.090 C 
ATOM     10  C   LIG    1       -1.921   0.502  -7.034  0.00  0.00    +0.030 C 
ATOM     11  C   LIG    1       -3.025   0.656  -5.992  0.00  0.00    +0.290 C 
ATOM     12  C   LIG    1       -4.062   1.672  -6.475  0.00  0.00    -0.350 C 
ATOM     13  S   LIG    1       -4.858   1.036  -7.979  0.00  0.00    +2.420 S 
ATOM     14  O   LIG    1       -5.493  -0.198  -7.673  0.00  0.00    -0.920 OA
ATOM     15  O   LIG    1       -5.619   2.081  -8.569  0.00  0.00    -0.940 OA
ENDBRANCH   1  11
BRANCH   4  16
ATOM     16  C   LIG    1       -3.114   0.914  -1.187  0.00  0.00    +0.190 A 
ATOM     17  C   LIG    1       -3.875  -0.242  -1.103  0.00  0.00    +0.020 A 
ATOM     18  C   LIG    1       -4.450  -0.606   0.100  0.00  0.00    +0.040 A 
ATOM     19  C   LIG    1       -4.272   0.179   1.225  0.00  0.00    -0.010 A 
ATOM     20  C   LIG    1       -3.512   1.330   1.157  0.00  0.00    +0.060 A 
ATOM     21  C   LIG    1       -2.932   1.709  -0.050  0.00  0.00    -0.090 A 
BRANCH  21  22
ATOM     22  C   LIG    1       -2.120   2.947  -0.130  0.00  0.00    -0.120 A 
ATOM     23  C   LIG    1       -0.747   2.902   0.116  0.00  0.00    +0.140 A 
ATOM     24  C   LIG    1        0.005   4.059   0.035  0.00  0.00    -0.020 A 
ATOM     25  C   LIG    1       -0.601   5.261  -0.284  0.00  0.00    +0.090 A 
ATOM     26  C   LIG    1       -1.962   5.314  -0.523  0.00  0.00    -0.020 A 
ATOM     27  F   LIG    1       -0.153   1.729   0.426  0.00  0.00    -0.120 F 
ATOM     28  C   LIG    1       -2.726   4.164  -0.445  0.00  0.00    +0.150 A 
ATOM     29  F   LIG    1       -4.056   4.218  -0.678  0.00  0.00    -0.120 F 
ENDBRANCH  21  22
ENDBRANCH   4  16
TORSDOF 3
