REMARK  Name = ZINCpe000000YjcU.0
REMARK                            x       y       z     vdW  Elec       q    Type
REMARK                         _______ _______ _______ _____ _____    ______ ____
ROOT
ATOM      1  S   LIG    1        6.522   1.400  -2.376  0.00  0.00    +2.690 S 
ATOM      2  O   LIG    1        7.797   1.388  -1.748  0.00  0.00    -0.940 OA
ATOM      3  O   LIG    1        5.800   2.593  -2.646  0.00  0.00    -0.940 OA
ENDROOT
BRANCH   1   4
ATOM      4  C   LIG    1        6.723   0.579  -3.922  0.00  0.00    -0.690 A 
ATOM      5  C   LIG    1        7.763  -0.316  -4.097  0.00  0.00    +0.180 A 
ATOM      6  C   LIG    1        7.925  -0.969  -5.308  0.00  0.00    +0.030 A 
ATOM      7  C   LIG    1        7.056  -0.721  -6.344  0.00  0.00    -0.050 A 
ATOM      8  C   LIG    1        6.951  -1.240  -7.755  0.00  0.00    +0.340 C 
ATOM      9  O   LIG    1        5.801  -0.580  -8.352  0.00  0.00    -0.310 OA
ATOM     10  C   LIG    1        5.251   0.244  -7.446  0.00  0.00    +0.520 C 
ATOM     11  O   LIG    1        4.273   0.938  -7.641  0.00  0.00    -0.440 OA
ATOM     12  C   LIG    1        6.005   0.186  -6.180  0.00  0.00    -0.210 A 
ATOM     13  C   LIG    1        5.845   0.836  -4.955  0.00  0.00    +0.220 A 
ENDBRANCH   1   4
BRANCH   1  16
ATOM     14  C   LIG    1        3.572   0.752  -0.028  0.00  0.00    +0.240 C 
ATOM     15  C   LIG    1        4.072   0.630  -1.472  0.00  0.00    +0.270 C 
ATOM     16  N   LIG    1        5.532   0.454  -1.444  0.00  0.00    -1.000 NA
ATOM     17  C   LIG    1        6.088  -0.586  -0.564  0.00  0.00    +0.270 C 
ATOM     18  C   LIG    1        5.490  -0.405   0.836  0.00  0.00    +0.220 C 
ATOM     19  O   LIG    1        4.064  -0.352   0.736  0.00  0.00    -0.370 OA
BRANCH  14  23
ATOM     20  C   LIG    1       -1.213   2.242   0.020  0.00  0.00    +0.360 C 
ATOM     21  N   LIG    1       -0.017   1.397   0.010  0.00  0.00    -0.370 N 
ATOM     22  C   LIG    1        1.261   1.829  -0.000  0.00  0.00    +0.250 A 
ATOM     23  C   LIG    1        2.065   0.741  -0.014  0.00  0.00    -0.240 A 
ATOM     24  C   LIG    1        1.250  -0.396  -0.012  0.00  0.00    +0.270 A 
ATOM     25  N   LIG    1        0.002  -0.004   0.002  0.00  0.00    -0.300 NA
ENDBRANCH  14  23
ENDBRANCH   1  16
TORSDOF 3
