REMARK  Name = ZINCpk00000y6yCh.2
REMARK                            x       y       z     vdW  Elec       q    Type
REMARK                         _______ _______ _______ _____ _____    ______ ____
ROOT
ATOM      1  C   LIG    1       -0.943   1.399   5.584  0.00  0.00    +0.170 C 
ATOM      2  C   LIG    1        0.429   1.450   6.290  0.00  0.00    +0.150 C 
ATOM      3  N   LIG    1        0.818   2.883   6.250  0.00  0.00    -0.500 NA
ATOM      4  C   LIG    1        0.387   3.341   4.904  0.00  0.00    +0.180 C 
ATOM      5  C   LIG    1       -0.971   2.643   4.672  0.00  0.00    +0.120 C 
ENDROOT
BRANCH   5   6
ATOM      6  C   LIG    1       -1.108   2.231   3.229  0.00  0.00    -0.010 A 
ATOM      7  C   LIG    1       -0.115   1.824   2.405  0.00  0.00    +0.140 A 
ATOM      8  N   LIG    1       -0.698   1.558   1.213  0.00  0.00    -0.290 N 
ATOM      9  N   LIG    1       -1.959   1.797   1.319  0.00  0.00    -0.080 NA
ATOM     10  C   LIG    1       -0.013   1.086   0.008  0.00  0.00    +0.370 C 
ATOM     11  N   LIG    1       -2.236   2.195   2.511  0.00  0.00    -0.260 NA
ENDBRANCH   5   6
BRANCH   1  13
ATOM     12  C   LIG    1       -2.493   0.188   6.954  0.00  0.00    +0.200 C 
ATOM     13  O   LIG    1       -1.998   1.465   6.545  0.00  0.00    -0.370 OA
ENDBRANCH   1  13
BRANCH   3  14
ATOM     14  C   LIG    1        2.268   3.040   6.419  0.00  0.00    +0.230 C 
BRANCH  14  15
ATOM     15  C   LIG    1        2.634   2.803   7.862  0.00  0.00    -0.150 A 
ATOM     16  C   LIG    1        2.657   3.859   8.762  0.00  0.00    +0.110 A 
ATOM     17  C   LIG    1        2.993   3.597  10.079  0.00  0.00    -0.040 A 
ATOM     18  C   LIG    1        3.305   2.294  10.451  0.00  0.00    +0.300 A 
ATOM     19  N   LIG    1        3.277   1.314   9.560  0.00  0.00    -0.520 NA
ATOM     20  C   LIG    1        2.956   1.534   8.300  0.00  0.00    +0.280 A 
BRANCH  18  21
ATOM     21  N   LIG    1        3.649   2.018  11.769  0.00  0.00    -0.460 N 
ATOM     22  C   LIG    1        2.523   2.320  12.688  0.00  0.00    +0.190 C 
ATOM     23  C   LIG    1        2.865   1.491  13.952  0.00  0.00    +0.040 C 
ATOM     24  C   LIG    1        3.468   0.196  13.363  0.00  0.00    +0.020 C 
ATOM     25  C   LIG    1        3.943   0.579  11.949  0.00  0.00    +0.200 C 
ENDBRANCH  18  21
ENDBRANCH  14  15
ENDBRANCH   3  14
TORSDOF 5
