REMARK  Name = ZINCrD00000l14lt.0
REMARK                            x       y       z     vdW  Elec       q    Type
REMARK                         _______ _______ _______ _____ _____    ______ ____
ROOT
ATOM      1  C   LIG    1        0.107   7.751   0.701  0.00  0.00    +0.230 C 
ENDROOT
BRANCH   1   4
ATOM      2  N   LIG    1       -0.781   9.932  -0.057  0.00  0.00    -0.660 N 
ATOM      3  H   LIG    1        0.017  10.034  -0.599  0.00  0.00    +0.410 HD
ATOM      4  C   LIG    1       -0.928   8.846   0.728  0.00  0.00    +0.520 C 
ATOM      5  O   LIG    1       -1.893   8.750   1.455  0.00  0.00    -0.490 OA
BRANCH   2  12
ATOM      6  C   LIG    1       -1.451  12.246   0.123  0.00  0.00    -0.080 A 
ATOM      7  C   LIG    1       -2.438  13.211   0.091  0.00  0.00    +0.020 A 
ATOM      8  C   LIG    1       -3.752  12.852  -0.150  0.00  0.00    +0.020 A 
ATOM      9  C   LIG    1       -4.081  11.525  -0.361  0.00  0.00    +0.020 A 
ATOM     10  C   LIG    1       -3.097  10.556  -0.336  0.00  0.00    -0.070 A 
ATOM     11  C   LIG    1       -3.456   9.111  -0.572  0.00  0.00    +0.100 C 
ATOM     12  C   LIG    1       -1.778  10.913  -0.088  0.00  0.00    +0.130 A 
BRANCH   6  14
ATOM     13  C   LIG    1        0.712  12.822  -0.943  0.00  0.00    +0.020 C 
ATOM     14  C   LIG    1       -0.020  12.639   0.387  0.00  0.00    +0.060 C 
ENDBRANCH   6  14
ENDBRANCH   2  12
ENDBRANCH   1   4
BRANCH   1  15
ATOM     15  O   LIG    1       -0.270   6.717   1.611  0.00  0.00    -0.080 OA
BRANCH  15  16
ATOM     16  N   LIG    1        0.642   5.634   1.662  0.00  0.00    -0.260 N 
ATOM     17  N   LIG    1        1.828   5.500   0.926  0.00  0.00    +0.000 NA
ATOM     18  N   LIG    1        2.398   4.388   1.231  0.00  0.00    -0.190 NA
ATOM     19  C   LIG    1        1.669   3.725   2.151  0.00  0.00    +0.020 A 
ATOM     20  C   LIG    1        1.840   2.498   2.804  0.00  0.00    +0.130 A 
ATOM     21  C   LIG    1        0.913   2.074   3.711  0.00  0.00    +0.070 A 
ATOM     22  C   LIG    1       -0.208   2.845   3.994  0.00  0.00    -0.130 A 
ATOM     23  C   LIG    1       -0.396   4.057   3.370  0.00  0.00    +0.100 A 
ATOM     24  C   LIG    1        0.537   4.507   2.442  0.00  0.00    +0.110 A 
BRANCH  22  25
ATOM     25  C   LIG    1       -1.221   2.353   4.996  0.00  0.00    +0.510 C 
ATOM     26  F   LIG    1       -2.466   2.220   4.372  0.00  0.00    -0.170 F 
ATOM     27  F   LIG    1       -1.321   3.271   6.047  0.00  0.00    -0.170 F 
ATOM     28  F   LIG    1       -0.816   1.111   5.497  0.00  0.00    -0.170 F 
ENDBRANCH  22  25
ENDBRANCH  15  16
ENDBRANCH   1  15
TORSDOF 6
