REMARK  Name = ZINCnE000001Fph9.0
REMARK                            x       y       z     vdW  Elec       q    Type
REMARK                         _______ _______ _______ _____ _____    ______ ____
ROOT
ATOM      1  S   LIG    1        4.290  -0.909  -1.755  0.00  0.00    +2.550 S 
ATOM      2  O   LIG    1        4.598   0.327  -2.384  0.00  0.00    -0.930 OA
ATOM      3  O   LIG    1        3.446  -1.862  -2.385  0.00  0.00    -0.920 OA
ENDROOT
BRANCH   1   8
ATOM      4  N   LIG    1        9.608  -2.689  -1.250  0.00  0.00    -0.610 NA
ATOM      5  C   LIG    1        8.317  -2.507  -1.383  0.00  0.00    +0.330 A 
ATOM      6  N   LIG    1        7.347  -3.460  -1.529  0.00  0.00    -0.480 NA
ATOM      7  N   LIG    1        6.056  -2.998  -1.645  0.00  0.00    -0.120 NA
ATOM      8  C   LIG    1        5.844  -1.727  -1.620  0.00  0.00    -0.620 A 
ATOM      9  S   LIG    1        7.434  -0.969  -1.415  0.00  0.00    -0.080 S 
BRANCH   4  10
ATOM     10  C   LIG    1       10.160  -4.046  -1.247  0.00  0.00    +0.180 C 
BRANCH  10  12
ATOM     11  C   LIG    1       11.631  -5.654  -2.470  0.00  0.00    +0.000 C 
ATOM     12  C   LIG    1       11.055  -4.236  -2.473  0.00  0.00    -0.010 C 
ENDBRANCH  10  12
ENDBRANCH   4  10
ENDBRANCH   1   8
BRANCH   1  13
ATOM     13  C   LIG    1        3.771  -0.637  -0.038  0.00  0.00    -0.270 C 
BRANCH  13  14
ATOM     14  C   LIG    1        2.438   0.064  -0.021  0.00  0.00    -0.070 A 
ATOM     15  C   LIG    1        2.380   1.424  -0.013  0.00  0.00    +0.030 A 
ATOM     16  C   LIG    1        1.156   2.091   0.002  0.00  0.00    +0.020 A 
ATOM     17  C   LIG    1       -0.017   1.401   0.010  0.00  0.00    +0.030 A 
ATOM     18  C   LIG    1        0.002  -0.004   0.002  0.00  0.00    -0.050 A 
ATOM     19  C   LIG    1       -1.188  -0.750   0.009  0.00  0.00    +0.020 A 
ATOM     20  C   LIG    1       -1.131  -2.110   0.001  0.00  0.00    +0.010 A 
ATOM     21  C   LIG    1        0.092  -2.776  -0.015  0.00  0.00    +0.020 A 
ATOM     22  C   LIG    1        1.266  -2.087  -0.021  0.00  0.00    +0.030 A 
ATOM     23  C   LIG    1        1.247  -0.682  -0.013  0.00  0.00    -0.040 A 
ENDBRANCH  13  14
ENDBRANCH   1  13
TORSDOF 5
