REMARK  Name = ZINCrg000000tWXH.0
REMARK                            x       y       z     vdW  Elec       q    Type
REMARK                         _______ _______ _______ _____ _____    ______ ____
ROOT
ATOM      1  C   LIG    1        6.183   1.568   0.299  0.00  0.00    +0.240 C 
ENDROOT
BRANCH   1   2
ATOM      2  N   LIG    1        7.409   0.799   0.070  0.00  0.00    -1.090 NA
ATOM      3  H   LIG    1        7.400  -0.167   0.161  0.00  0.00    +0.430 HD
BRANCH   2   4
ATOM      4  S   LIG    1        8.810   1.579  -0.345  0.00  0.00    +2.700 S 
ATOM      5  O   LIG    1        8.483   2.442  -1.426  0.00  0.00    -0.950 OA
ATOM      6  O   LIG    1        9.816   0.579  -0.427  0.00  0.00    -0.930 OA
BRANCH   4  12
ATOM      7  C   LIG    1        9.548   2.062   2.238  0.00  0.00    +0.040 A 
ATOM      8  C   LIG    1        9.892   2.878   3.299  0.00  0.00    +0.090 A 
ATOM      9  C   LIG    1        9.939   4.249   3.131  0.00  0.00    +0.100 A 
ATOM     10  C   LIG    1        9.641   4.805   1.901  0.00  0.00    +0.070 A 
ATOM     11  C   LIG    1        9.301   3.989   0.838  0.00  0.00    +0.150 A 
ATOM     12  C   LIG    1        9.249   2.618   1.008  0.00  0.00    -0.640 A 
BRANCH   7  14
ATOM     13  O   LIG    1        9.885   0.095   3.460  0.00  0.00    -0.130 OA
ATOM     14  N   LIG    1        9.498   0.594   2.418  0.00  0.00    +0.010 N 
ATOM     15  O   LIG    1        9.069  -0.115   1.526  0.00  0.00    -0.140 OA
ENDBRANCH   7  14
ENDBRANCH   4  12
ENDBRANCH   2   4
ENDBRANCH   1   2
BRANCH   1  16
ATOM     16  C   LIG    1        4.975   0.631   0.239  0.00  0.00    +0.230 C 
BRANCH  16  17
ATOM     17  O   LIG    1        4.915   0.013  -1.048  0.00  0.00    -0.540 OA
ATOM     18  H   LIG    1        4.829   0.638  -1.781  0.00  0.00    +0.380 HD
ENDBRANCH  16  17
BRANCH  16  19
ATOM     19  C   LIG    1        3.695   1.435   0.479  0.00  0.00    +0.180 C 
BRANCH  19  20
ATOM     20  O   LIG    1        2.578   0.545   0.538  0.00  0.00    -0.290 OA
BRANCH  20  21
ATOM     21  C   LIG    1        1.355   1.101   0.747  0.00  0.00    +0.140 A 
ATOM     22  C   LIG    1        1.235   2.475   0.892  0.00  0.00    -0.060 A 
ATOM     23  C   LIG    1       -0.007   3.043   1.104  0.00  0.00    +0.080 A 
ATOM     24  C   LIG    1       -1.135   2.242   1.174  0.00  0.00    -0.010 A 
ATOM     25  O   LIG    1       -2.451   2.548   1.372  0.00  0.00    -0.310 OA
ATOM     26  C   LIG    1       -3.080   1.311   1.754  0.00  0.00    +0.430 C 
ATOM     27  O   LIG    1       -2.257   0.304   1.137  0.00  0.00    -0.300 OA
ATOM     28  C   LIG    1       -1.017   0.862   1.024  0.00  0.00    +0.080 A 
ATOM     29  C   LIG    1        0.229   0.295   0.816  0.00  0.00    +0.020 A 
ENDBRANCH  20  21
ENDBRANCH  19  20
ENDBRANCH  16  19
ENDBRANCH   1  16
TORSDOF 9
