REMARK  Name = ZINCrH00000tj0qI.0
REMARK                            x       y       z     vdW  Elec       q    Type
REMARK                         _______ _______ _______ _____ _____    ______ ____
ROOT
ATOM      1  C   LIG    1       -3.525  -2.453   0.604  0.00  0.00    +0.270 A 
ATOM      2  N   LIG    1       -2.529  -3.237   0.310  0.00  0.00    -0.480 NA
ATOM      3  C   LIG    1       -2.628  -4.388   1.024  0.00  0.00    +0.050 A 
ATOM      4  C   LIG    1       -1.849  -5.545   1.101  0.00  0.00    +0.070 A 
ATOM      5  C   LIG    1       -2.222  -6.564   1.931  0.00  0.00    +0.000 A 
ATOM      6  C   LIG    1       -3.370  -6.463   2.703  0.00  0.00    +0.030 A 
ATOM      7  C   LIG    1       -4.154  -5.330   2.644  0.00  0.00    +0.010 A 
ATOM      8  C   LIG    1       -3.791  -4.285   1.806  0.00  0.00    +0.050 A 
ATOM      9  N   LIG    1       -4.336  -3.050   1.518  0.00  0.00    -0.480 N 
ENDROOT
BRANCH   1  11
ATOM     10  C   LIG    1       -4.259  -1.228  -1.423  0.00  0.00    +0.060 C 
ATOM     11  C   LIG    1       -3.750  -1.085   0.012  0.00  0.00    +0.340 C 
BRANCH  11  12
ATOM     12  N   LIG    1       -2.489  -0.340   0.011  0.00  0.00    -0.710 N 
ATOM     13  H   LIG    1       -1.644  -0.817   0.004  0.00  0.00    +0.410 HD
ATOM     14  C   LIG    1       -2.502   1.007   0.019  0.00  0.00    +0.560 C 
ATOM     15  O   LIG    1       -3.561   1.605   0.027  0.00  0.00    -0.510 OA
BRANCH  14  16
ATOM     16  C   LIG    1       -1.230   1.759   0.017  0.00  0.00    -0.130 A 
ATOM     17  C   LIG    1       -0.013   1.076   0.008  0.00  0.00    +0.090 A 
ATOM     18  C   LIG    1        1.171   1.783   0.000  0.00  0.00    +0.040 A 
ATOM     19  C   LIG    1        1.155   3.168   0.008  0.00  0.00    +0.000 A 
ATOM     20  C   LIG    1       -0.049   3.852   0.023  0.00  0.00    +0.040 A 
ATOM     21 CL   LIG    1        2.650   4.050  -0.002  0.00  0.00    -0.050 Cl
ATOM     22  C   LIG    1       -1.241   3.156   0.031  0.00  0.00    +0.030 A 
ATOM     23 CL   LIG    1       -2.749   4.015   0.051  0.00  0.00    -0.010 Cl
ENDBRANCH  14  16
ENDBRANCH  11  12
ENDBRANCH   1  11
BRANCH   9  24
ATOM     24  C   LIG    1       -5.561  -2.486   2.091  0.00  0.00    +0.330 C 
BRANCH  24  25
ATOM     25  C   LIG    1       -6.758  -2.878   1.222  0.00  0.00    +0.040 C 
BRANCH  25  26
ATOM     26  C   LIG    1       -8.018  -2.298   1.812  0.00  0.00    +0.520 C 
ATOM     27  O   LIG    1       -7.964  -1.637   2.827  0.00  0.00    -0.540 OA
ATOM     28  N   LIG    1       -9.205  -2.515   1.211  0.00  0.00    -0.850 N 
ATOM     29  H   LIG    1      -10.015  -2.142   1.590  0.00  0.00    +0.410 HD
ATOM     30  H   LIG    1       -9.248  -3.044   0.399  0.00  0.00    +0.400 HD
ENDBRANCH  25  26
ENDBRANCH  24  25
ENDBRANCH   9  24
TORSDOF 6
