REMARK  Name = ZINCpe00000VVGRF.0
REMARK                            x       y       z     vdW  Elec       q    Type
REMARK                         _______ _______ _______ _____ _____    ______ ____
ROOT
ATOM      1  N   LIG    1       -1.142   3.200  -1.355  0.00  0.00    -0.720 N 
ATOM      2  H   LIG    1       -0.387   3.778  -1.164  0.00  0.00    +0.400 HD
ATOM      3  C   LIG    1       -2.372   3.727  -1.513  0.00  0.00    +0.710 C 
ATOM      4  N   LIG    1       -2.554   5.058  -1.405  0.00  0.00    -0.720 N 
ATOM      5  H   LIG    1       -1.799   5.636  -1.214  0.00  0.00    +0.400 HD
ATOM      6  O   LIG    1       -3.318   3.002  -1.752  0.00  0.00    -0.590 OA
ENDROOT
BRANCH   1   8
ATOM      7  C   LIG    1       -0.726   1.385  -2.941  0.00  0.00    +0.040 C 
ATOM      8  C   LIG    1       -0.945   1.753  -1.472  0.00  0.00    +0.260 C 
BRANCH   8   9
ATOM      9  C   LIG    1        0.280   1.337  -0.654  0.00  0.00    +0.170 C 
BRANCH   9  10
ATOM     10  N   LIG    1        0.135   1.821   0.725  0.00  0.00    -0.530 NA
ATOM     11  C   LIG    1        1.428   1.817   1.423  0.00  0.00    +0.150 C 
ATOM     12  C   LIG    1        1.242   2.383   2.834  0.00  0.00    +0.220 C 
ATOM     13  O   LIG    1        0.252   1.616   3.524  0.00  0.00    -0.390 OA
ATOM     14  C   LIG    1       -1.020   1.599   2.871  0.00  0.00    +0.220 C 
ATOM     15  C   LIG    1       -0.857   1.024   1.462  0.00  0.00    +0.150 C 
ENDBRANCH   9  10
ENDBRANCH   8   9
ENDBRANCH   1   8
BRANCH   4  16
ATOM     16  C   LIG    1       -3.891   5.631  -1.577  0.00  0.00    +0.310 C 
BRANCH  16  17
ATOM     17  C   LIG    1       -3.769   7.067  -2.018  0.00  0.00    -0.100 A 
ATOM     18  C   LIG    1       -2.893   7.917  -1.370  0.00  0.00    +0.030 A 
ATOM     19  C   LIG    1       -2.778   9.233  -1.778  0.00  0.00    +0.020 A 
ATOM     20  C   LIG    1       -3.546   9.701  -2.828  0.00  0.00    +0.020 A 
ATOM     21  C   LIG    1       -4.427   8.852  -3.472  0.00  0.00    +0.010 A 
ATOM     22  C   LIG    1       -4.538   7.535  -3.067  0.00  0.00    +0.030 A 
ENDBRANCH  16  17
BRANCH  16  23
ATOM     23  C   LIG    1       -4.636   5.569  -0.268  0.00  0.00    +0.510 C 
ATOM     24  N   LIG    1       -5.982   5.634  -0.255  0.00  0.00    -0.620 N 
ATOM     25  C   LIG    1       -6.727   5.652  -1.516  0.00  0.00    +0.290 C 
ATOM     26  C   LIG    1       -6.700   5.687   1.021  0.00  0.00    +0.290 C 
ATOM     27  O   LIG    1       -4.024   5.462   0.774  0.00  0.00    -0.530 OA
ENDBRANCH  16  23
ENDBRANCH   4  16
TORSDOF 6
