REMARK  Name = ZINCrg00000SjSvW.1
REMARK                            x       y       z     vdW  Elec       q    Type
REMARK                         _______ _______ _______ _____ _____    ______ ____
ROOT
ATOM      1  N   LIG    1        5.293   5.191  -0.201  0.00  0.00    -0.450 N 
ATOM      2  C   LIG    1        5.030   3.934   0.291  0.00  0.00    +0.430 A 
ATOM      3  N   LIG    1        5.542   2.903   0.930  0.00  0.00    -0.280 NA
ATOM      4  N   LIG    1        4.654   1.984   1.069  0.00  0.00    -0.200 NA
ATOM      5  C   LIG    1        3.522   2.365   0.520  0.00  0.00    +0.200 A 
ATOM      6  N   LIG    1        3.728   3.626   0.008  0.00  0.00    -0.430 N 
ATOM      7  C   LIG    1        3.162   4.684  -0.661  0.00  0.00    +0.360 A 
ATOM      8  N   LIG    1        1.912   4.911  -1.173  0.00  0.00    -0.510 N 
ATOM      9  C   LIG    1        0.870   3.890  -1.043  0.00  0.00    +0.340 C 
ATOM     10  C   LIG    1        1.640   6.075  -1.794  0.00  0.00    +0.670 A 
ATOM     11  O   LIG    1        0.522   6.263  -2.244  0.00  0.00    -0.510 OA
ATOM     12  N   LIG    1        2.563   7.024  -1.929  0.00  0.00    -0.580 NA
ATOM     13  C   LIG    1        3.791   6.861  -1.455  0.00  0.00    +0.500 A 
ATOM     14  C   LIG    1        4.125   5.664  -0.798  0.00  0.00    -0.020 A 
ENDROOT
BRANCH   5  15
ATOM     15  C   LIG    1        2.265   1.589   0.468  0.00  0.00    -0.040 A 
ATOM     16  C   LIG    1        1.085   2.132   0.978  0.00  0.00    +0.030 A 
ATOM     17  C   LIG    1       -0.085   1.403   0.927  0.00  0.00    +0.010 A 
ATOM     18  C   LIG    1       -0.090   0.136   0.370  0.00  0.00    -0.060 A 
ATOM     19  C   LIG    1        1.077  -0.408  -0.138  0.00  0.00    +0.010 A 
ATOM     20  C   LIG    1       -1.371  -0.655   0.318  0.00  0.00    +0.100 C 
ATOM     21  C   LIG    1        2.253   0.311  -0.093  0.00  0.00    +0.060 A 
ENDBRANCH   5  15
BRANCH  13  22
ATOM     22  O   LIG    1        4.714   7.838  -1.603  0.00  0.00    -0.440 OA
ATOM     23  H   LIG    1        4.388   8.620  -2.068  0.00  0.00    +0.430 HD
ENDBRANCH  13  22
BRANCH   1  24
ATOM     24  C   LIG    1        6.570   5.905  -0.113  0.00  0.00    +0.360 C 
BRANCH  24  25
ATOM     25  C   LIG    1        6.605   6.730   1.175  0.00  0.00    +0.180 C 
BRANCH  25  26
ATOM     26  O   LIG    1        6.583   5.854   2.303  0.00  0.00    -0.380 OA
BRANCH  26  28
ATOM     27  C   LIG    1        6.587   5.496   4.693  0.00  0.00    +0.050 C 
ATOM     28  C   LIG    1        6.614   6.527   3.563  0.00  0.00    +0.150 C 
ENDBRANCH  26  28
ENDBRANCH  25  26
ENDBRANCH  24  25
ENDBRANCH   1  24
TORSDOF 6
