REMARK  Name = ZINCrH000004s9F6.0
REMARK                            x       y       z     vdW  Elec       q    Type
REMARK                         _______ _______ _______ _____ _____    ______ ____
ROOT
ATOM      1  C   LIG    1       -3.682   1.477   0.028  0.00  0.00    +0.070 A 
ATOM      2  C   LIG    1       -2.448   0.873   0.018  0.00  0.00    -0.230 A 
ATOM      3  C   LIG    1       -2.505  -0.523   0.005  0.00  0.00    +0.080 A 
ATOM      4  C   LIG    1       -3.754  -1.012   0.014  0.00  0.00    -0.220 A 
ATOM      5  S   LIG    1       -4.919   0.303   0.027  0.00  0.00    +0.330 S 
ENDROOT
BRANCH   4   6
ATOM      6  C   LIG    1       -4.100  -2.449   0.007  0.00  0.00    -0.000 A 
ATOM      7  C   LIG    1       -3.090  -3.413  -0.009  0.00  0.00    +0.010 A 
ATOM      8  C   LIG    1       -3.420  -4.752  -0.010  0.00  0.00    +0.020 A 
ATOM      9  C   LIG    1       -4.748  -5.141  -0.006  0.00  0.00    +0.000 A 
ATOM     10  C   LIG    1       -5.753  -4.191   0.004  0.00  0.00    +0.020 A 
ATOM     11  C   LIG    1       -5.437  -2.848   0.011  0.00  0.00    +0.000 A 
ENDBRANCH   4   6
BRANCH   2  12
ATOM     12  C   LIG    1       -1.187   1.624   0.017  0.00  0.00    +0.590 C 
ATOM     13  O   LIG    1       -1.204   2.841   0.023  0.00  0.00    -0.550 OA
ATOM     14  N   LIG    1       -0.011   0.966   0.007  0.00  0.00    -0.850 N 
ATOM     15  H   LIG    1        0.822   1.462   0.002  0.00  0.00    +0.410 HD
ATOM     16  H   LIG    1        0.002  -0.004   0.002  0.00  0.00    +0.400 HD
ENDBRANCH   2  12
BRANCH   1  18
ATOM     17  C   LIG    1       -5.147   3.334   0.044  0.00  0.00    +0.600 C 
ATOM     18  N   LIG    1       -3.891   2.845   0.035  0.00  0.00    -0.600 N 
ATOM     19  H   LIG    1       -3.134   3.452   0.035  0.00  0.00    +0.440 HD
ATOM     20  O   LIG    1       -6.096   2.574   0.045  0.00  0.00    -0.500 OA
BRANCH  17  26
ATOM     21  C   LIG    1       -4.736  10.704   0.076  0.00  0.00    +0.110 C 
ATOM     22  C   LIG    1       -5.290   9.303   0.073  0.00  0.00    -0.060 A 
ATOM     23  C   LIG    1       -4.447   8.236   0.064  0.00  0.00    +0.080 A 
ATOM     24  C   LIG    1       -4.984   6.931   0.061  0.00  0.00    +0.240 A 
ATOM     25  N   LIG    1       -4.413   5.738   0.052  0.00  0.00    -0.460 NA
ATOM     26  C   LIG    1       -5.370   4.793   0.053  0.00  0.00    -0.000 A 
ATOM     27  C   LIG    1       -6.585   5.417   0.056  0.00  0.00    +0.200 A 
ATOM     28  N   LIG    1       -6.346   6.758   0.067  0.00  0.00    -0.370 N 
ATOM     29  C   LIG    1       -7.180   7.841   0.075  0.00  0.00    +0.230 A 
ATOM     30  C   LIG    1       -6.680   9.093   0.078  0.00  0.00    +0.030 A 
ENDBRANCH  17  26
ENDBRANCH   1  18
TORSDOF 4
