REMARK  Name = ZINCtV000002KbCz.0
REMARK                            x       y       z     vdW  Elec       q    Type
REMARK                         _______ _______ _______ _____ _____    ______ ____
ROOT
ATOM      1  C   LIG    1       -2.112  -0.502  -1.160  0.00  0.00    +0.130 C 
ATOM      2  C   LIG    1       -1.756   0.824  -1.781  0.00  0.00    +0.180 A 
ATOM      3  N   LIG    1       -2.416   1.228  -2.840  0.00  0.00    -0.470 NA
ATOM      4  C   LIG    1       -2.141   2.392  -3.438  0.00  0.00    +0.140 A 
ATOM      5  C   LIG    1       -2.855   2.807  -4.576  0.00  0.00    +0.040 A 
ATOM      6  C   LIG    1       -2.554   3.996  -5.166  0.00  0.00    +0.030 A 
ATOM      7  C   LIG    1       -1.547   4.814  -4.660  0.00  0.00    +0.010 A 
ATOM      8  C   LIG    1       -0.835   4.444  -3.559  0.00  0.00    +0.040 A 
ATOM      9  C   LIG    1       -1.118   3.227  -2.927  0.00  0.00    -0.090 A 
ATOM     10  C   LIG    1       -0.400   2.805  -1.780  0.00  0.00    +0.040 A 
ATOM     11  C   LIG    1       -0.742   1.585  -1.213  0.00  0.00    -0.120 A 
ENDROOT
BRANCH  10  12
ATOM     12  C   LIG    1        0.680   3.640  -1.205  0.00  0.00    -0.060 A 
ATOM     13  C   LIG    1        0.537   4.191   0.069  0.00  0.00    +0.030 A 
ATOM     14  C   LIG    1        1.549   4.963   0.601  0.00  0.00    +0.010 A 
ATOM     15  C   LIG    1        2.700   5.200  -0.129  0.00  0.00    +0.020 A 
ATOM     16  C   LIG    1        2.845   4.661  -1.395  0.00  0.00    +0.010 A 
ATOM     17  C   LIG    1        1.843   3.883  -1.936  0.00  0.00    +0.030 A 
ENDBRANCH  10  12
BRANCH  11  18
ATOM     18  C   LIG    1       -0.013   1.086   0.008  0.00  0.00    +0.170 C 
BRANCH  18  19
ATOM     19  C   LIG    1       -0.718   1.572   1.248  0.00  0.00    +0.470 C 
ATOM     20  O   LIG    1       -1.711   2.254   1.150  0.00  0.00    -0.500 OA
BRANCH  19  21
ATOM     21  O   LIG    1       -0.243   1.247   2.461  0.00  0.00    -0.350 OA
BRANCH  21  22
ATOM     22  C   LIG    1       -0.974   1.750   3.611  0.00  0.00    +0.270 C 
BRANCH  22  23
ATOM     23  C   LIG    1       -0.298   1.288   4.876  0.00  0.00    -0.100 A 
ATOM     24  C   LIG    1       -0.671   0.092   5.461  0.00  0.00    +0.060 A 
ATOM     25  C   LIG    1       -0.049  -0.335   6.619  0.00  0.00    +0.030 A 
ATOM     26  C   LIG    1        0.939   0.440   7.199  0.00  0.00    -0.020 A 
ATOM     27  C   LIG    1        1.308   1.640   6.616  0.00  0.00    +0.030 A 
ATOM     28 CL   LIG    1        1.716  -0.091   8.657  0.00  0.00    -0.060 Cl
ATOM     29  C   LIG    1        0.689   2.063   5.455  0.00  0.00    +0.050 A 
ENDBRANCH  22  23
ENDBRANCH  21  22
ENDBRANCH  19  21
ENDBRANCH  18  19
ENDBRANCH  11  18
TORSDOF 6
