REMARK  Name = ZINCqH00000036Eu.0
REMARK                            x       y       z     vdW  Elec       q    Type
REMARK                         _______ _______ _______ _____ _____    ______ ____
ROOT
ATOM      1  C   LIG    1        0.002  -0.004   0.002  0.00  0.00    -0.020 A 
ATOM      2  C   LIG    1        1.284  -0.418  -0.012  0.00  0.00    -0.030 A 
ATOM      3  C   LIG    1        2.091   0.738  -0.014  0.00  0.00    -0.020 A 
ATOM      4  C   LIG    1        1.248   1.804  -0.000  0.00  0.00    +0.020 A 
ATOM      5  O   LIG    1       -0.016   1.339   0.009  0.00  0.00    -0.150 OA
ENDROOT
BRANCH   4   6
ATOM      6  C   LIG    1        1.649   3.226   0.003  0.00  0.00    +0.020 A 
ATOM      7  C   LIG    1        3.001   3.574  -0.003  0.00  0.00    +0.040 A 
ATOM      8  C   LIG    1        3.368   4.904  -0.006  0.00  0.00    +0.080 A 
ATOM      9  C   LIG    1        2.400   5.892   0.009  0.00  0.00    -0.180 A 
ATOM     10  C   LIG    1        1.058   5.554   0.021  0.00  0.00    +0.080 A 
ATOM     11  C   LIG    1        0.677   4.228   0.018  0.00  0.00    +0.040 A 
BRANCH   9  12
ATOM     12  C   LIG    1        2.808   7.342   0.013  0.00  0.00    +0.510 C 
ATOM     13  F   LIG    1        1.829   8.104  -0.633  0.00  0.00    -0.180 F 
ATOM     14  F   LIG    1        4.028   7.485  -0.658  0.00  0.00    -0.180 F 
ATOM     15  F   LIG    1        2.948   7.784   1.333  0.00  0.00    -0.170 F 
ENDBRANCH   9  12
ENDBRANCH   4   6
BRANCH   1  16
ATOM     16  C   LIG    1       -1.210  -0.899   0.009  0.00  0.00    +0.430 C 
BRANCH  16  17
ATOM     17  N   LIG    1       -1.590  -1.196   1.393  0.00  0.00    -1.000 NA
BRANCH  17  18
ATOM     18  S   LIG    1       -2.748  -0.285   2.147  0.00  0.00    +2.790 S 
ATOM     19  O   LIG    1       -2.775   0.967   1.475  0.00  0.00    -0.960 OA
ATOM     20  O   LIG    1       -2.513  -0.412   3.543  0.00  0.00    -0.960 OA
BRANCH  18  21
ATOM     21  N   LIG    1       -4.209  -1.006   1.851  0.00  0.00    -1.050 NA
ATOM     22  C   LIG    1       -5.253  -0.899   0.821  0.00  0.00    +0.280 C 
ATOM     23  C   LIG    1       -6.266  -1.364   1.873  0.00  0.00    +0.040 C 
ATOM     24  C   LIG    1       -5.037  -2.030   2.506  0.00  0.00    +0.280 C 
ENDBRANCH  18  21
ENDBRANCH  17  18
BRANCH  17  26
ATOM     25  C   LIG    1        0.366  -1.809   2.728  0.00  0.00    +0.020 C 
ATOM     26  C   LIG    1       -0.945  -2.300   2.108  0.00  0.00    +0.280 C 
ENDBRANCH  17  26
ENDBRANCH  16  17
ENDBRANCH   1  16
TORSDOF 7
