REMARK  Name = ZINCnE000001QBIM.1
REMARK                            x       y       z     vdW  Elec       q    Type
REMARK                         _______ _______ _______ _____ _____    ______ ____
ROOT
ATOM      1  N   LIG    1        1.188  -2.730  -2.998  0.00  0.00    -1.140 NA
ENDROOT
BRANCH   1   2
ATOM      2  C   LIG    1        0.023  -2.969  -2.141  0.00  0.00    +0.270 C 
ATOM      3  C   LIG    1       -1.276  -2.822  -2.961  0.00  0.00    -0.020 C 
ATOM      4  C   LIG    1       -1.626  -4.271  -3.380  0.00  0.00    +0.010 C 
ATOM      5  C   LIG    1       -1.238  -5.093  -2.125  0.00  0.00    -0.010 C 
ATOM      6  C   LIG    1        0.047  -4.413  -1.610  0.00  0.00    +0.040 C 
BRANCH   2  11
ATOM      7  C   LIG    1       -0.018   1.503   0.010  0.00  0.00    +0.130 C 
ATOM      8  C   LIG    1        0.002  -0.004   0.002  0.00  0.00    +0.090 A 
ATOM      9  C   LIG    1        0.022  -0.733   1.122  0.00  0.00    -0.150 A 
ATOM     10  S   LIG    1        0.041  -2.434   0.662  0.00  0.00    +0.050 S 
ATOM     11  C   LIG    1        0.020  -1.996  -0.991  0.00  0.00    +0.080 A 
ATOM     12  N   LIG    1       -0.004  -0.711  -1.110  0.00  0.00    -0.440 NA
ENDBRANCH   2  11
ENDBRANCH   1   2
BRANCH   1  13
ATOM     13  S   LIG    1        1.397  -1.253  -3.716  0.00  0.00    +2.580 S 
ATOM     14  O   LIG    1        1.638  -0.326  -2.667  0.00  0.00    -0.990 OA
ATOM     15  O   LIG    1        0.339  -1.108  -4.653  0.00  0.00    -1.030 OA
BRANCH  13  16
ATOM     16  C   LIG    1        2.885  -1.337  -4.657  0.00  0.00    -0.700 A 
ATOM     17  C   LIG    1        4.092  -0.990  -4.076  0.00  0.00    +0.220 A 
ATOM     18  C   LIG    1        5.262  -1.061  -4.814  0.00  0.00    -0.060 A 
ATOM     19  C   LIG    1        5.222  -1.468  -6.134  0.00  0.00    +0.110 A 
ATOM     20  C   LIG    1        4.016  -1.811  -6.717  0.00  0.00    -0.060 A 
ATOM     21  F   LIG    1        4.131  -0.586  -2.787  0.00  0.00    -0.110 F 
ATOM     22  C   LIG    1        2.847  -1.745  -5.979  0.00  0.00    +0.220 A 
ATOM     23  F   LIG    1        1.668  -2.079  -6.549  0.00  0.00    -0.110 F 
ENDBRANCH  13  16
ENDBRANCH   1  13
TORSDOF 4
