REMARK  Name = ZINCrg00001JduNd.2
REMARK                            x       y       z     vdW  Elec       q    Type
REMARK                         _______ _______ _______ _____ _____    ______ ____
ROOT
ATOM      1  N   LIG    1        1.812   8.913   1.636  0.00  0.00    -0.440 N 
ATOM      2  C   LIG    1        2.640   9.072   2.838  0.00  0.00    +0.200 C 
ATOM      3  C   LIG    1        4.119   8.958   2.462  0.00  0.00    +0.050 C 
ATOM      4  C   LIG    1        4.374   7.587   1.828  0.00  0.00    +0.060 C 
ATOM      5  C   LIG    1        3.459   7.416   0.617  0.00  0.00    +0.100 C 
ATOM      6  C   LIG    1        3.666   6.024  -0.002  0.00  0.00    +0.250 C 
ATOM      7  C   LIG    1        4.121   6.294  -1.455  0.00  0.00    +0.040 C 
ATOM      8  C   LIG    1        3.600   7.729  -1.720  0.00  0.00    +0.160 C 
ATOM      9  N   LIG    1        3.804   8.412  -0.417  0.00  0.00    -0.500 NA
ATOM     10  C   LIG    1        2.950   9.602  -0.307  0.00  0.00    +0.210 C 
ATOM     11  C   LIG    1        1.999   7.586   1.034  0.00  0.00    +0.190 C 
ENDROOT
BRANCH   1  16
ATOM     12  C   LIG    1       -2.453   8.314   3.918  0.00  0.00    +0.200 C 
ATOM     13  C   LIG    1       -1.516   8.935   2.914  0.00  0.00    +0.270 A 
ATOM     14  N   LIG    1       -1.921   9.873   2.108  0.00  0.00    -0.470 NA
ATOM     15  S   LIG    1       -0.572  10.283   1.161  0.00  0.00    +0.280 S 
ATOM     16  C   LIG    1        0.478   9.146   1.918  0.00  0.00    +0.230 A 
ATOM     17  N   LIG    1       -0.267   8.543   2.820  0.00  0.00    -0.530 NA
ENDBRANCH   1  16
BRANCH   6  18
ATOM     18  N   LIG    1        2.409   5.271   0.006  0.00  0.00    -0.720 N 
ATOM     19  H   LIG    1        1.562   5.742   0.017  0.00  0.00    +0.390 HD
ATOM     20  C   LIG    1        2.431   3.923  -0.001  0.00  0.00    +0.560 C 
ATOM     21  O   LIG    1        3.493   3.332  -0.013  0.00  0.00    -0.500 OA
BRANCH  20  22
ATOM     22  C   LIG    1        1.162   3.163   0.007  0.00  0.00    +0.090 A 
ATOM     23  C   LIG    1        1.190   1.800   0.000  0.00  0.00    +0.030 A 
ATOM     24  C   LIG    1       -0.013   1.076   0.008  0.00  0.00    +0.120 A 
ATOM     25  C   LIG    1       -1.197   1.746   0.017  0.00  0.00    -0.040 A 
ATOM     26  C   LIG    1       -1.197   3.159   0.029  0.00  0.00    +0.520 A 
ATOM     27  O   LIG    1       -2.253   3.768   0.042  0.00  0.00    -0.540 OA
ATOM     28  N   LIG    1       -0.032   3.834   0.021  0.00  0.00    -0.610 N 
ATOM     29  H   LIG    1       -0.038   4.804   0.026  0.00  0.00    +0.410 HD
ENDBRANCH  20  22
ENDBRANCH   6  18
TORSDOF 3
