REMARK  Name = ZINCtj00000rhJMP.1
REMARK                            x       y       z     vdW  Elec       q    Type
REMARK                         _______ _______ _______ _____ _____    ______ ____
ROOT
ATOM      1  C   LIG    1       -0.963   1.735  -0.870  0.00  0.00    +0.500 C 
ATOM      2  N   LIG    1       -2.210   1.224  -0.873  0.00  0.00    -0.580 N 
ATOM      3  C   LIG    1       -2.705   0.452   0.275  0.00  0.00    +0.280 C 
ATOM      4  C   LIG    1       -4.031   1.069   0.744  0.00  0.00    +0.010 C 
ATOM      5  C   LIG    1       -5.003   1.133  -0.437  0.00  0.00    +0.140 C 
ATOM      6  C   LIG    1       -4.418   2.025  -1.534  0.00  0.00    +0.060 C 
ATOM      7  C   LIG    1       -3.098   1.423  -2.026  0.00  0.00    +0.300 C 
ATOM      8  O   LIG    1       -0.594   2.439  -1.785  0.00  0.00    -0.530 OA
ENDROOT
BRANCH   1  15
ATOM      9  C   LIG    1        0.302   3.789   0.544  0.00  0.00    +0.320 C 
ATOM     10  N   LIG    1        0.978   2.495   0.377  0.00  0.00    -0.370 N 
ATOM     11  C   LIG    1        1.849   2.247   1.532  0.00  0.00    +0.260 C 
ATOM     12  C   LIG    1        2.616   0.939   1.325  0.00  0.00    +0.060 C 
ATOM     13  C   LIG    1        1.619  -0.214   1.178  0.00  0.00    +0.060 C 
ATOM     14  C   LIG    1        0.669   0.091   0.016  0.00  0.00    +0.080 C 
ATOM     15  C   LIG    1       -0.026   1.430   0.271  0.00  0.00    +0.160 C 
ATOM     16  H   LIG    1        1.535   2.515  -0.464  0.00  0.00    +0.430 HD
ENDBRANCH   1  15
BRANCH   5  17
ATOM     17  O   LIG    1       -5.211  -0.183  -0.954  0.00  0.00    -0.550 OA
ATOM     18  H   LIG    1       -5.581  -0.804  -0.311  0.00  0.00    +0.380 HD
ENDBRANCH   5  17
BRANCH   5  19
ATOM     19  C   LIG    1       -6.339   1.713   0.033  0.00  0.00    +0.010 C 
BRANCH  19  20
ATOM     20  C   LIG    1       -6.864   0.893   1.213  0.00  0.00    +0.260 C 
BRANCH  20  21
ATOM     21  N   LIG    1       -8.142   1.448   1.663  0.00  0.00    -0.730 N 
ATOM     22  H   LIG    1       -8.519   2.222   1.216  0.00  0.00    +0.400 HD
ATOM     23  C   LIG    1       -8.795   0.884   2.699  0.00  0.00    +0.570 C 
ATOM     24  O   LIG    1       -8.323  -0.086   3.259  0.00  0.00    -0.540 OA
BRANCH  23  25
ATOM     25  C   LIG    1      -10.083   1.443   3.151  0.00  0.00    -0.180 A 
ATOM     26  C   LIG    1      -10.761   0.859   4.225  0.00  0.00    +0.130 A 
ATOM     27  C   LIG    1      -11.963   1.383   4.646  0.00  0.00    -0.050 A 
ATOM     28  C   LIG    1      -12.503   2.493   4.005  0.00  0.00    +0.230 A 
ATOM     29  C   LIG    1      -11.830   3.079   2.934  0.00  0.00    +0.010 A 
ATOM     30  F   LIG    1      -12.357   4.157   2.313  0.00  0.00    -0.140 F 
ATOM     31  C   LIG    1      -10.625   2.562   2.511  0.00  0.00    +0.070 A 
BRANCH  28  32
ATOM     32  N   LIG    1      -13.717   3.020   4.434  0.00  0.00    -0.860 N 
ATOM     33  H   LIG    1      -14.095   3.794   3.988  0.00  0.00    +0.410 HD
ATOM     34  H   LIG    1      -14.187   2.613   5.180  0.00  0.00    +0.410 HD
ENDBRANCH  28  32
ENDBRANCH  23  25
ENDBRANCH  20  21
ENDBRANCH  19  20
ENDBRANCH   5  19
TORSDOF 7
