REMARK  Name = ZINCtj00000rhJMP.0
REMARK                            x       y       z     vdW  Elec       q    Type
REMARK                         _______ _______ _______ _____ _____    ______ ____
ROOT
ATOM      1  C   LIG    1       -0.124  -1.314   5.847  0.00  0.00    +0.510 C 
ATOM      2  N   LIG    1        0.204  -0.462   4.855  0.00  0.00    -0.580 N 
ATOM      3  C   LIG    1       -0.034   0.981   4.999  0.00  0.00    +0.300 C 
ATOM      4  C   LIG    1       -0.852   1.468   3.799  0.00  0.00    +0.060 C 
ATOM      5  C   LIG    1       -0.137   1.074   2.505  0.00  0.00    +0.140 C 
ATOM      6  C   LIG    1       -0.024  -0.450   2.426  0.00  0.00    +0.010 C 
ATOM      7  C   LIG    1        0.805  -0.959   3.610  0.00  0.00    +0.280 C 
ATOM      8  O   LIG    1       -0.555  -0.886   6.897  0.00  0.00    -0.530 OA
ENDROOT
BRANCH   1  15
ATOM      9  C   LIG    1       -1.982  -3.249   6.849  0.00  0.00    +0.330 C 
ATOM     10  N   LIG    1       -0.538  -3.511   6.795  0.00  0.00    -0.360 N 
ATOM     11  C   LIG    1        0.089  -3.051   8.040  0.00  0.00    +0.250 C 
ATOM     12  C   LIG    1        1.580  -3.395   8.022  0.00  0.00    +0.060 C 
ATOM     13  C   LIG    1        2.243  -2.702   6.828  0.00  0.00    +0.040 C 
ATOM     14  C   LIG    1        1.533  -3.132   5.542  0.00  0.00    +0.070 C 
ATOM     15  C   LIG    1        0.044  -2.799   5.651  0.00  0.00    +0.160 C 
ATOM     16  H   LIG    1       -0.381  -4.502   6.688  0.00  0.00    +0.430 HD
ENDBRANCH   1  15
BRANCH   5  17
ATOM     17  O   LIG    1        1.171   1.650   2.490  0.00  0.00    -0.550 OA
ATOM     18  H   LIG    1        1.683   1.442   1.696  0.00  0.00    +0.380 HD
ENDBRANCH   5  17
BRANCH   5  19
ATOM     19  C   LIG    1       -0.934   1.589   1.305  0.00  0.00    +0.010 C 
BRANCH  19  20
ATOM     20  C   LIG    1       -0.288   1.090   0.011  0.00  0.00    +0.260 C 
BRANCH  20  21
ATOM     21  N   LIG    1       -1.051   1.583  -1.138  0.00  0.00    -0.730 N 
ATOM     22  H   LIG    1       -1.835   2.137  -0.998  0.00  0.00    +0.400 HD
ATOM     23  C   LIG    1       -0.664   1.268  -2.390  0.00  0.00    +0.570 C 
ATOM     24  O   LIG    1        0.319   0.574  -2.565  0.00  0.00    -0.540 OA
BRANCH  23  25
ATOM     25  C   LIG    1       -1.433   1.764  -3.547  0.00  0.00    -0.180 A 
ATOM     26  C   LIG    1       -1.033   1.438  -4.845  0.00  0.00    +0.130 A 
ATOM     27  C   LIG    1       -1.752   1.902  -5.924  0.00  0.00    -0.050 A 
ATOM     28  C   LIG    1       -2.877   2.695  -5.723  0.00  0.00    +0.230 A 
ATOM     29  C   LIG    1       -3.280   3.023  -4.429  0.00  0.00    +0.010 A 
ATOM     30  F   LIG    1       -4.372   3.794  -4.237  0.00  0.00    -0.140 F 
ATOM     31  C   LIG    1       -2.567   2.558  -3.346  0.00  0.00    +0.070 A 
BRANCH  28  32
ATOM     32  N   LIG    1       -3.602   3.162  -6.815  0.00  0.00    -0.860 N 
ATOM     33  H   LIG    1       -4.387   3.715  -6.676  0.00  0.00    +0.410 HD
ATOM     34  H   LIG    1       -3.323   2.934  -7.716  0.00  0.00    +0.410 HD
ENDBRANCH  28  32
ENDBRANCH  23  25
ENDBRANCH  20  21
ENDBRANCH  19  20
ENDBRANCH   5  19
TORSDOF 7
