REMARK  Name = ZINCtV00000L6k6G.0
REMARK                            x       y       z     vdW  Elec       q    Type
REMARK                         _______ _______ _______ _____ _____    ______ ____
ROOT
ATOM      1  N   LIG    1        2.858   4.194  -1.384  0.00  0.00    -0.470 N 
ATOM      2  C   LIG    1        3.658   3.384  -2.166  0.00  0.00    +0.060 A 
ATOM      3  C   LIG    1        4.290   2.165  -1.964  0.00  0.00    +0.010 A 
ATOM      4  C   LIG    1        5.032   1.604  -2.982  0.00  0.00    +0.030 A 
ATOM      5  C   LIG    1        5.146   2.246  -4.206  0.00  0.00    +0.000 A 
ATOM      6  C   LIG    1        4.527   3.444  -4.424  0.00  0.00    +0.070 A 
ATOM      7  C   LIG    1        3.769   4.032  -3.408  0.00  0.00    +0.040 A 
ATOM      8  N   LIG    1        3.054   5.183  -3.319  0.00  0.00    -0.460 NA
ATOM      9  C   LIG    1        2.521   5.277  -2.136  0.00  0.00    +0.280 A 
ENDROOT
BRANCH   1  10
ATOM     10  C   LIG    1        2.451   3.937  -0.001  0.00  0.00    +0.350 C 
BRANCH  10  15
ATOM     11  C   LIG    1       -2.514   0.980   0.019  0.00  0.00    +0.090 C 
ATOM     12  C   LIG    1       -1.219   1.751   0.017  0.00  0.00    -0.070 A 
ATOM     13  C   LIG    1       -0.013   1.076   0.008  0.00  0.00    +0.010 A 
ATOM     14  C   LIG    1        1.175   1.783   0.000  0.00  0.00    +0.030 A 
ATOM     15  C   LIG    1        1.156   3.165   0.008  0.00  0.00    -0.130 A 
ATOM     16  C   LIG    1       -0.050   3.840   0.023  0.00  0.00    +0.020 A 
ATOM     17  C   LIG    1       -1.238   3.133   0.030  0.00  0.00    +0.010 A 
ENDBRANCH  10  15
ENDBRANCH   1  10
BRANCH   9  18
ATOM     18  C   LIG    1        1.657   6.418  -1.666  0.00  0.00    +0.320 C 
BRANCH  18  19
ATOM     19  O   LIG    1        2.480   7.426  -1.075  0.00  0.00    -0.300 OA
BRANCH  19  20
ATOM     20  C   LIG    1        1.852   8.533  -0.597  0.00  0.00    +0.130 A 
ATOM     21  C   LIG    1        0.474   8.648  -0.699  0.00  0.00    -0.080 A 
ATOM     22  C   LIG    1       -0.163   9.772  -0.207  0.00  0.00    -0.050 A 
ATOM     23  C   LIG    1        0.575  10.785   0.377  0.00  0.00    -0.030 A 
ATOM     24  C   LIG    1        1.950  10.675   0.475  0.00  0.00    +0.060 A 
ATOM     25  C   LIG    1       -1.661   9.896  -0.313  0.00  0.00    +0.090 C 
ATOM     26  C   LIG    1        2.590   9.551  -0.011  0.00  0.00    -0.110 A 
BRANCH  26  27
ATOM     27  C   LIG    1        4.088   9.432   0.096  0.00  0.00    +0.030 C 
ATOM     28  C   LIG    1        4.501   9.484   1.568  0.00  0.00    +0.030 C 
ATOM     29  C   LIG    1        4.747  10.588  -0.659  0.00  0.00    +0.040 C 
ENDBRANCH  26  27
ENDBRANCH  19  20
ENDBRANCH  18  19
ENDBRANCH   9  18
TORSDOF 6
