REMARK  Name = ZINCrH000004tWrl.0
REMARK                            x       y       z     vdW  Elec       q    Type
REMARK                         _______ _______ _______ _____ _____    ______ ____
ROOT
ATOM      1  O   LIG    1        4.404   9.151  -0.350  0.00  0.00    -0.500 OA
ATOM      2  C   LIG    1        3.338   9.728  -0.326  0.00  0.00    +0.510 C 
ATOM      3  N   LIG    1        2.200   9.034  -0.125  0.00  0.00    -0.680 N 
ATOM      4  H   LIG    1        1.355   9.502  -0.039  0.00  0.00    +0.410 HD
ENDROOT
BRANCH   3   5
ATOM      5  C   LIG    1        2.239   7.638  -0.041  0.00  0.00    +0.160 A 
ATOM      6  C   LIG    1        1.190   6.882  -0.548  0.00  0.00    -0.010 A 
ATOM      7  C   LIG    1        1.228   5.503  -0.465  0.00  0.00    +0.050 A 
ATOM      8  C   LIG    1        2.311   4.873   0.117  0.00  0.00    +0.000 A 
ATOM      9  C   LIG    1        3.359   5.624   0.630  0.00  0.00    +0.100 A 
ATOM     10  C   LIG    1        3.325   7.007   0.549  0.00  0.00    +0.030 A 
BRANCH   9  11
ATOM     11  O   LIG    1        4.421   5.003   1.208  0.00  0.00    -0.240 OA
BRANCH  11  12
ATOM     12  C   LIG    1        4.518   5.032   2.561  0.00  0.00    +0.270 A 
ATOM     13  C   LIG    1        5.529   4.324   3.203  0.00  0.00    +0.230 A 
ATOM     14  N   LIG    1        5.623   4.359   4.519  0.00  0.00    -0.400 NA
ATOM     15  C   LIG    1        4.752   5.057   5.227  0.00  0.00    +0.190 A 
ATOM     16  C   LIG    1        3.747   5.763   4.592  0.00  0.00    +0.260 A 
ATOM     17  N   LIG    1        3.650   5.736   3.274  0.00  0.00    -0.480 NA
ENDBRANCH  11  12
ENDBRANCH   9  11
ENDBRANCH   3   5
BRANCH   2  18
ATOM     18  C   LIG    1        3.285  11.222  -0.520  0.00  0.00    +0.130 C 
BRANCH  18  19
ATOM     19  C   LIG    1        4.681  11.752  -0.724  0.00  0.00    -0.100 A 
ATOM     20  C   LIG    1        5.209  11.838  -1.998  0.00  0.00    +0.060 A 
ATOM     21  C   LIG    1        6.488  12.322  -2.183  0.00  0.00    -0.020 A 
ATOM     22  C   LIG    1        7.248  12.727  -1.091  0.00  0.00    +0.140 A 
ATOM     23  O   LIG    1        8.504  13.194  -1.312  0.00  0.00    -0.320 OA
ATOM     24  C   LIG    1        9.132  13.941  -0.269  0.00  0.00    +0.240 C 
ATOM     25  C   LIG    1        8.990  13.156   1.041  0.00  0.00    +0.010 C 
ATOM     26  C   LIG    1        7.503  13.076   1.395  0.00  0.00    +0.080 C 
ATOM     27  C   LIG    1        6.715  12.643   0.184  0.00  0.00    -0.160 A 
ATOM     28  C   LIG    1        5.431  12.158   0.363  0.00  0.00    +0.050 A 
ENDBRANCH  18  19
ENDBRANCH   2  18
TORSDOF 5
