REMARK  Name = ZINCBu0000000aG7.1
REMARK                            x       y       z     vdW  Elec       q    Type
REMARK                         _______ _______ _______ _____ _____    ______ ____
ROOT
ATOM      1  N   LIG    1        0.424   8.271  -1.162  0.00  0.00    -0.460 NA
ATOM      2  C   LIG    1        1.871   8.023  -1.201  0.00  0.00    +0.220 C 
ATOM      3  C   LIG    1        2.472   8.715  -2.430  0.00  0.00    +0.320 C 
ATOM      4  N   LIG    1        2.084  10.133  -2.403  0.00  0.00    -0.620 N 
ATOM      5  C   LIG    1        0.661  10.463  -2.228  0.00  0.00    +0.310 C 
ATOM      6  C   LIG    1        3.008  11.106  -2.535  0.00  0.00    +0.570 C 
ATOM      7  O   LIG    1        2.671  12.270  -2.510  0.00  0.00    -0.540 OA
ATOM      8  C   LIG    1        0.132   9.702  -1.007  0.00  0.00    +0.250 C 
ENDROOT
BRANCH   1  13
ATOM      9  C   LIG    1       -1.033   3.351   1.834  0.00  0.00    +0.220 C 
ATOM     10  C   LIG    1       -0.428   4.078   0.833  0.00  0.00    -0.060 C 
ATOM     11  C   LIG    1       -0.584   5.469   0.800  0.00  0.00    +0.210 C 
ATOM     12  N   LIG    1       -0.015   6.222  -0.155  0.00  0.00    -0.560 NA
ATOM     13  C   LIG    1       -0.179   7.531  -0.160  0.00  0.00    +0.630 C 
ATOM     14  N   LIG    1       -0.900   8.168   0.757  0.00  0.00    -0.580 NA
ATOM     15  C   LIG    1       -1.501   7.515   1.741  0.00  0.00    +0.550 C 
ATOM     16  H   LIG    1        0.520   5.800  -0.846  0.00  0.00    +0.440 HD
ATOM     17  C   LIG    1       -1.361   6.107   1.798  0.00  0.00    -0.180 C 
ATOM     18  C   LIG    1       -1.965   5.344   2.805  0.00  0.00    +0.040 C 
ATOM     19  C   LIG    1       -1.805   3.988   2.815  0.00  0.00    +0.120 C 
BRANCH  15  20
ATOM     20  N   LIG    1       -2.245   8.189   2.687  0.00  0.00    -0.770 NA
ATOM     21  H   LIG    1       -2.681   7.699   3.401  0.00  0.00    +0.430 HD
ATOM     22  H   LIG    1       -2.333   9.154   2.637  0.00  0.00    +0.430 HD
ENDBRANCH  15  20
BRANCH   9  24
ATOM     23  C   LIG    1       -0.090   1.410   0.837  0.00  0.00    +0.270 C 
ATOM     24  O   LIG    1       -0.884   2.001   1.868  0.00  0.00    -0.280 OA
ENDBRANCH   9  24
BRANCH  19  25
ATOM     25  O   LIG    1       -2.397   3.248   3.791  0.00  0.00    -0.290 OA
ATOM     26  C   LIG    1       -3.171   3.955   4.762  0.00  0.00    +0.250 C 
ENDBRANCH  19  25
ENDBRANCH   1  13
BRANCH   6  27
ATOM     27  C   LIG    1        4.461  10.745  -2.714  0.00  0.00    +0.080 C 
BRANCH  27  28
ATOM     28  C   LIG    1        5.288  12.023  -2.868  0.00  0.00    +0.300 C 
ATOM     29  C   LIG    1        6.620  11.687  -3.490  0.00  0.00    -0.100 A 
ATOM     30  C   LIG    1        6.621  10.889  -4.626  0.00  0.00    +0.010 A 
ATOM     31  C   LIG    1        7.808  10.555  -5.246  0.00  0.00    +0.010 A 
ATOM     32  C   LIG    1        9.004  11.020  -4.732  0.00  0.00    +0.020 A 
ATOM     33  C   LIG    1        9.004  11.810  -3.602  0.00  0.00    +0.010 A 
ATOM     34  C   LIG    1        7.811  12.143  -2.972  0.00  0.00    -0.070 A 
ATOM     35  C   LIG    1        7.891  12.987  -1.727  0.00  0.00    +0.070 C 
ATOM     36  C   LIG    1        6.548  13.656  -1.438  0.00  0.00    +0.280 C 
ATOM     37  N   LIG    1        5.498  12.631  -1.550  0.00  0.00    -0.600 N 
ATOM     38  C   LIG    1        4.758  12.266  -0.484  0.00  0.00    +0.530 C 
ATOM     39  O   LIG    1        3.972  11.347  -0.577  0.00  0.00    -0.550 OA
ATOM     40  C   LIG    1        4.907  13.000   0.824  0.00  0.00    +0.090 C 
ENDBRANCH  27  28
ENDBRANCH   6  27
TORSDOF 6
