REMARK  Name = ZINCvU0000000FgF.0
REMARK                            x       y       z     vdW  Elec       q    Type
REMARK                         _______ _______ _______ _____ _____    ______ ____
ROOT
ATOM      1  C   LIG    1       -3.478   1.490  -1.080  0.00  0.00    +0.550 C 
ATOM      2  O   LIG    1       -3.533   2.672  -1.356  0.00  0.00    -0.480 OA
ENDROOT
BRANCH   1   3
ATOM      3  C   LIG    1       -4.594   0.602  -1.427  0.00  0.00    -0.030 A 
ATOM      4  C   LIG    1       -5.735   0.989  -2.056  0.00  0.00    -0.050 A 
ATOM      5  C   LIG    1       -6.551  -0.216  -2.193  0.00  0.00    -0.150 A 
ATOM      6  C   LIG    1       -7.809  -0.484  -2.739  0.00  0.00    +0.080 A 
ATOM      7  C   LIG    1       -8.304  -1.757  -2.708  0.00  0.00    -0.100 A 
ATOM      8  C   LIG    1       -7.566  -2.785  -2.137  0.00  0.00    +0.070 A 
ATOM      9  C   LIG    1       -6.323  -2.542  -1.593  0.00  0.00    +0.030 A 
ATOM     10  C   LIG    1       -5.798  -1.255  -1.613  0.00  0.00    +0.080 A 
ATOM     11  C   LIG    1       -6.088   2.380  -2.518  0.00  0.00    +0.150 C 
ATOM     12  O   LIG    1       -4.640  -0.723  -1.176  0.00  0.00    -0.170 OA
BRANCH   7  13
ATOM     13  C   LIG    1       -9.660  -2.047  -3.296  0.00  0.00    +0.090 C 
BRANCH  13  14
ATOM     14  C   LIG    1       -9.507  -2.415  -4.774  0.00  0.00    +0.030 C 
BRANCH  14  15
ATOM     15  C   LIG    1      -10.864  -2.705  -5.362  0.00  0.00    +0.350 C 
ATOM     16  O   LIG    1      -11.851  -2.626  -4.672  0.00  0.00    -0.460 OA
ATOM     17  C   LIG    1      -10.988  -3.094  -6.813  0.00  0.00    +0.050 C 
ENDBRANCH  14  15
ENDBRANCH  13  14
ENDBRANCH   7  13
ENDBRANCH   1   3
BRANCH   1  18
ATOM     18  O   LIG    1       -2.391   0.993  -0.455  0.00  0.00    -0.310 OA
BRANCH  18  19
ATOM     19  C   LIG    1       -1.326   1.929  -0.142  0.00  0.00    +0.190 C 
ATOM     20  C   LIG    1       -1.564   2.527   1.246  0.00  0.00    +0.080 C 
BRANCH  19  23
ATOM     21  N   LIG    1        1.143   1.898   0.001  0.00  0.00    -0.670 N 
ATOM     22  H   LIG    1        1.123   2.867   0.053  0.00  0.00    +0.410 HD
ATOM     23  C   LIG    1       -0.003   1.208  -0.157  0.00  0.00    +0.520 C 
ATOM     24  O   LIG    1        0.031   0.006  -0.318  0.00  0.00    -0.490 OA
BRANCH  21  28
ATOM     25  C   LIG    1        4.775  -0.126   0.270  0.00  0.00    -0.090 A 
ATOM     26  C   LIG    1        4.722   1.121  -0.327  0.00  0.00    +0.030 A 
ATOM     27  C   LIG    1        3.520   1.794  -0.417  0.00  0.00    -0.010 A 
ATOM     28  C   LIG    1        2.363   1.219   0.092  0.00  0.00    +0.140 A 
ATOM     29  C   LIG    1        2.421  -0.031   0.696  0.00  0.00    +0.010 A 
ATOM     30  C   LIG    1        3.625  -0.702   0.777  0.00  0.00    +0.030 A 
BRANCH  25  32
ATOM     31  C   LIG    1        6.785  -0.484   1.677  0.00  0.00    +0.030 C 
ATOM     32  C   LIG    1        6.089  -0.858   0.367  0.00  0.00    +0.050 C 
ENDBRANCH  25  32
ENDBRANCH  21  28
ENDBRANCH  19  23
ENDBRANCH  18  19
ENDBRANCH   1  18
TORSDOF 9
