REMARK  Name = ZINCrD000000CNyH.0
REMARK                            x       y       z     vdW  Elec       q    Type
REMARK                         _______ _______ _______ _____ _____    ______ ____
ROOT
ATOM      1  C   LIG    1       -0.072  -2.735   1.970  0.00  0.00    +0.530 C 
ATOM      2  N   LIG    1       -1.080  -3.336   2.632  0.00  0.00    -0.660 N 
ATOM      3  H   LIG    1       -1.917  -3.519   2.178  0.00  0.00    +0.420 HD
ATOM      4  O   LIG    1        0.939  -2.419   2.561  0.00  0.00    -0.480 OA
ENDROOT
BRANCH   1   9
ATOM      5  O   LIG    1        2.904  -2.497  -1.076  0.00  0.00    -0.490 OA
ATOM      6  C   LIG    1        1.784  -2.709  -0.661  0.00  0.00    +0.550 C 
ATOM      7  C   LIG    1        1.081  -4.046  -0.721  0.00  0.00    +0.110 C 
ATOM      8  C   LIG    1       -0.389  -3.721  -0.356  0.00  0.00    +0.120 C 
ATOM      9  C   LIG    1       -0.201  -2.454   0.495  0.00  0.00    +0.120 C 
ATOM     10  S   LIG    1       -1.501  -1.224   0.110  0.00  0.00    -0.070 S 
ATOM     11  C   LIG    1       -0.382   0.157   0.082  0.00  0.00    -0.120 A 
ATOM     12  C   LIG    1       -0.597   1.519   0.103  0.00  0.00    +0.080 A 
ATOM     13  C   LIG    1        0.480   2.387   0.151  0.00  0.00    +0.030 A 
ATOM     14  C   LIG    1        1.763   1.873   0.197  0.00  0.00    +0.050 A 
ATOM     15  C   LIG    1        1.981   0.512   0.163  0.00  0.00    +0.030 A 
ATOM     16  C   LIG    1        0.908  -0.382   0.071  0.00  0.00    +0.150 A 
ATOM     17  N   LIG    1        0.987  -1.782  -0.080  0.00  0.00    -0.550 N 
ENDBRANCH   1   9
BRANCH   2  18
ATOM     18  C   LIG    1       -0.919  -3.696   3.973  0.00  0.00    +0.170 A 
ATOM     19  C   LIG    1        0.327  -4.103   4.436  0.00  0.00    +0.020 A 
ATOM     20  C   LIG    1        0.490  -4.454   5.759  0.00  0.00    +0.080 A 
ATOM     21  C   LIG    1       -0.599  -4.410   6.631  0.00  0.00    -0.040 A 
ATOM     22  C   LIG    1       -1.850  -4.006   6.160  0.00  0.00    +0.110 A 
ATOM     23  C   LIG    1       -2.006  -3.651   4.838  0.00  0.00    +0.000 A 
BRANCH  21  24
ATOM     24  C   LIG    1       -0.429  -4.792   8.048  0.00  0.00    +0.220 A 
ATOM     25  N   LIG    1       -1.362  -4.792   8.972  0.00  0.00    -0.280 NA
ATOM     26  N   LIG    1       -0.854  -5.185  10.087  0.00  0.00    -0.290 NA
ATOM     27  C   LIG    1        0.413  -5.440   9.923  0.00  0.00    +0.420 A 
ATOM     28  O   LIG    1        0.714  -5.199   8.635  0.00  0.00    -0.220 OA
ENDBRANCH  21  24
ENDBRANCH   2  18
TORSDOF 3
