REMARK  Name = ZINCpe000000YfTU.0
REMARK                            x       y       z     vdW  Elec       q    Type
REMARK                         _______ _______ _______ _____ _____    ______ ____
ROOT
ATOM      1  C   LIG    1        1.619   5.446  -0.198  0.00  0.00    +0.580 C 
ATOM      2  N   LIG    1        2.420   5.015  -1.192  0.00  0.00    -0.600 N 
ATOM      3  C   LIG    1        3.066   5.971  -2.101  0.00  0.00    +0.270 C 
ATOM      4  C   LIG    1        4.574   5.700  -2.111  0.00  0.00    +0.030 C 
ATOM      5  C   LIG    1        4.822   4.232  -2.465  0.00  0.00    +0.060 C 
ATOM      6  C   LIG    1        4.177   3.335  -1.406  0.00  0.00    -0.470 C 
ATOM      7  C   LIG    1        2.665   3.579  -1.387  0.00  0.00    +0.330 C 
ATOM      8  O   LIG    1        1.023   4.643   0.495  0.00  0.00    -0.520 OA
ENDROOT
BRANCH   1  12
ATOM      9  C   LIG    1       -0.493   9.728  -1.312  0.00  0.00    +0.330 C 
ATOM     10  N   LIG    1        0.443   8.956  -0.489  0.00  0.00    -0.490 N 
ATOM     11  C   LIG    1        0.592   7.638  -0.716  0.00  0.00    +0.350 A 
ATOM     12  C   LIG    1        1.463   6.891   0.050  0.00  0.00    -0.240 A 
ATOM     13  C   LIG    1        2.211   7.524   1.072  0.00  0.00    +0.150 A 
ATOM     14  C   LIG    1        2.048   8.858   1.279  0.00  0.00    -0.070 A 
ATOM     15  C   LIG    1        1.143   9.578   0.476  0.00  0.00    +0.510 A 
ATOM     16  O   LIG    1        0.994  10.775   0.658  0.00  0.00    -0.540 OA
ENDBRANCH   1  12
BRANCH   6  17
ATOM     17  S   LIG    1        4.505   1.596  -1.804  0.00  0.00    +2.610 S 
ATOM     18  O   LIG    1        3.804   1.213  -2.979  0.00  0.00    -0.950 OA
ATOM     19  O   LIG    1        5.886   1.300  -1.646  0.00  0.00    -0.940 OA
BRANCH  17  20
ATOM     20  N   LIG    1        3.764   0.747  -0.591  0.00  0.00    -1.110 NA
ATOM     21  H   LIG    1        3.022   0.156  -0.796  0.00  0.00    +0.420 HD
BRANCH  20  22
ATOM     22  C   LIG    1        4.228   0.888   0.791  0.00  0.00    +0.240 C 
ATOM     23  C   LIG    1        5.133  -0.305   1.184  0.00  0.00    +0.020 C 
ATOM     24  C   LIG    1        5.018  -0.328   2.728  0.00  0.00    +0.010 C 
ATOM     25  C   LIG    1        3.542   0.027   3.003  0.00  0.00    +0.020 C 
ATOM     26  C   LIG    1        3.039   0.801   1.771  0.00  0.00    +0.010 C 
ENDBRANCH  20  22
ENDBRANCH  17  20
ENDBRANCH   6  17
TORSDOF 4
