REMARK  Name = ZINCpk00000y6wgc.0
REMARK                            x       y       z     vdW  Elec       q    Type
REMARK                         _______ _______ _______ _____ _____    ______ ____
ROOT
ATOM      1  N   LIG    1       -6.203   2.574   3.512  0.00  0.00    -1.010 NA
ATOM      2  C   LIG    1       -6.216   4.019   3.242  0.00  0.00    +0.280 C 
ATOM      3  C   LIG    1       -7.628   4.377   2.731  0.00  0.00    +0.010 C 
ATOM      4  C   LIG    1       -8.166   3.017   2.212  0.00  0.00    +0.090 C 
ATOM      5  C   LIG    1       -7.542   2.027   3.227  0.00  0.00    +0.280 C 
ENDROOT
BRANCH   4   6
ATOM      6  C   LIG    1       -9.672   2.974   2.272  0.00  0.00    -0.230 A 
ATOM      7  C   LIG    1      -10.501   2.683   1.243  0.00  0.00    +0.250 A 
ATOM      8  N   LIG    1      -11.768   2.747   1.705  0.00  0.00    -0.380 N 
ATOM      9  N   LIG    1      -11.715   3.098   3.060  0.00  0.00    -0.290 NA
ATOM     10  C   LIG    1      -12.983   2.500   0.925  0.00  0.00    +0.360 C 
ATOM     11  C   LIG    1      -10.458   3.233   3.399  0.00  0.00    +0.240 A 
ENDBRANCH   4   6
BRANCH   1  12
ATOM     12  S   LIG    1       -4.901   1.706   4.053  0.00  0.00    +2.710 S 
ATOM     13  O   LIG    1       -5.046   0.394   3.526  0.00  0.00    -0.940 OA
ATOM     14  O   LIG    1       -3.755   2.514   3.822  0.00  0.00    -0.930 OA
BRANCH  12  19
ATOM     15  C   LIG    1       -5.439   0.212   7.748  0.00  0.00    +0.120 A 
ATOM     16  C   LIG    1       -5.320   1.338   8.550  0.00  0.00    +0.010 A 
ATOM     17  C   LIG    1       -5.065   2.569   7.977  0.00  0.00    +0.060 A 
ATOM     18  C   LIG    1       -4.938   2.681   6.604  0.00  0.00    +0.010 A 
ATOM     19  C   LIG    1       -5.062   1.560   5.802  0.00  0.00    -0.640 A 
ATOM     20 CL   LIG    1       -4.624   4.230   5.886  0.00  0.00    -0.030 Cl
ATOM     21  C   LIG    1       -5.312   0.327   6.371  0.00  0.00    +0.120 A 
BRANCH  15  23
ATOM     22  C   LIG    1       -5.805  -1.044   9.734  0.00  0.00    +0.250 C 
ATOM     23  O   LIG    1       -5.686  -1.000   8.310  0.00  0.00    -0.310 OA
ENDBRANCH  15  23
ENDBRANCH  12  19
ENDBRANCH   1  12
BRANCH   3  24
ATOM     24  C   LIG    1       -7.554   5.399   1.594  0.00  0.00    +0.190 C 
BRANCH  24  25
ATOM     25  O   LIG    1       -7.167   6.669   2.121  0.00  0.00    -0.570 OA
ATOM     26  H   LIG    1       -7.099   7.367   1.455  0.00  0.00    +0.380 HD
ENDBRANCH  24  25
ENDBRANCH   3  24
TORSDOF 6
