REMARK  Name = ZINCqH0000035g3S.0
REMARK                            x       y       z     vdW  Elec       q    Type
REMARK                         _______ _______ _______ _____ _____    ______ ____
ROOT
ATOM      1  C   LIG    1        1.969   0.776  -0.013  0.00  0.00    +0.190 A 
ATOM      2  N   LIG    1        1.119   1.759   0.001  0.00  0.00    -0.380 NA
ATOM      3  O   LIG    1       -0.016   1.332   0.009  0.00  0.00    +0.080 OA
ATOM      4  C   LIG    1        0.002  -0.004   0.002  0.00  0.00    +0.170 A 
ATOM      5  N   LIG    1        1.262  -0.368  -0.012  0.00  0.00    -0.440 NA
ENDROOT
BRANCH   1   6
ATOM      6  C   LIG    1        3.471   0.895  -0.026  0.00  0.00    +0.040 C 
ATOM      7  C   LIG    1        4.049   0.210   1.214  0.00  0.00    +0.040 C 
ATOM      8  C   LIG    1        5.574   0.332   1.200  0.00  0.00    +0.020 C 
ATOM      9  C   LIG    1        5.968   1.810   1.204  0.00  0.00    +0.010 C 
ATOM     10  C   LIG    1        5.390   2.495  -0.036  0.00  0.00    +0.020 C 
ATOM     11  C   LIG    1        3.865   2.374  -0.022  0.00  0.00    +0.040 C 
BRANCH   6  12
ATOM     12  C   LIG    1        4.025   0.224  -1.284  0.00  0.00    +0.190 C 
BRANCH  12  14
ATOM     13  C   LIG    1        4.127  -1.881  -2.427  0.00  0.00    +0.200 C 
ATOM     14  O   LIG    1        3.657  -1.157  -1.288  0.00  0.00    -0.370 OA
ENDBRANCH  12  14
ENDBRANCH   6  12
ENDBRANCH   1   6
BRANCH   4  15
ATOM     15  C   LIG    1       -1.196  -0.918   0.009  0.00  0.00    +0.210 C 
BRANCH  15  16
ATOM     16  C   LIG    1       -1.588  -1.234   1.454  0.00  0.00    +0.210 C 
BRANCH  16  17
ATOM     17  C   LIG    1       -2.786  -2.148   1.461  0.00  0.00    +0.160 A 
ATOM     18  N   LIG    1       -2.762  -3.451   1.454  0.00  0.00    -0.270 NA
ATOM     19  N   LIG    1       -3.968  -3.900   1.464  0.00  0.00    -0.280 NA
ATOM     20  C   LIG    1       -4.802  -2.899   1.477  0.00  0.00    +0.180 A 
ATOM     21  O   LIG    1       -4.075  -1.769   1.480  0.00  0.00    -0.220 OA
BRANCH  20  22
ATOM     22  C   LIG    1       -6.306  -2.992   1.491  0.00  0.00    +0.110 C 
ATOM     23  C   LIG    1       -6.774  -3.799   2.720  0.00  0.00    +0.040 C 
ATOM     24  C   LIG    1       -7.987  -4.612   2.200  0.00  0.00    +0.030 C 
ATOM     25  C   LIG    1       -7.549  -5.000   0.765  0.00  0.00    +0.020 C 
ATOM     26  C   LIG    1       -6.799  -3.755   0.249  0.00  0.00    +0.040 C 
ENDBRANCH  20  22
ENDBRANCH  16  17
ENDBRANCH  15  16
ENDBRANCH   4  15
TORSDOF 7
