REMARK  Name = ZINCrg000000tOFJ.0
REMARK                            x       y       z     vdW  Elec       q    Type
REMARK                         _______ _______ _______ _____ _____    ______ ____
ROOT
ATOM      1  O   LIG    1       -4.847  -0.031   2.000  0.00  0.00    -0.480 OA
ATOM      2  C   LIG    1       -5.012   1.103   1.595  0.00  0.00    +0.570 A 
ATOM      3  N   LIG    1       -6.201   1.728   1.746  0.00  0.00    -0.660 N 
ATOM      4  H   LIG    1       -6.931   1.265   2.184  0.00  0.00    +0.440 HD
ATOM      5  C   LIG    1       -6.387   2.980   1.298  0.00  0.00    +0.710 A 
ATOM      6  N   LIG    1       -5.425   3.686   0.681  0.00  0.00    -0.500 N 
ATOM      7  C   LIG    1       -4.171   3.146   0.474  0.00  0.00    +0.420 A 
ATOM      8  N   LIG    1       -3.218   3.836  -0.133  0.00  0.00    -0.500 NA
ATOM      9  C   LIG    1       -2.018   3.332  -0.332  0.00  0.00    +0.380 A 
ATOM     10  C   LIG    1       -1.696   2.035   0.081  0.00  0.00    -0.220 A 
ATOM     11  C   LIG    1       -2.670   1.264   0.728  0.00  0.00    +0.250 A 
ATOM     12  O   LIG    1       -7.475   3.498   1.458  0.00  0.00    -0.520 OA
ATOM     13  C   LIG    1       -3.923   1.834   0.924  0.00  0.00    -0.250 A 
ENDROOT
BRANCH  10  14
ATOM     14  C   LIG    1       -0.346   1.488  -0.158  0.00  0.00    +0.560 C 
ATOM     15  N   LIG    1        0.741   2.246   0.086  0.00  0.00    -0.610 N 
ATOM     16  C   LIG    1        0.607   3.646   0.518  0.00  0.00    +0.250 C 
ATOM     17  C   LIG    1        1.474   3.852   1.766  0.00  0.00    +0.220 C 
ATOM     18  O   LIG    1        2.802   3.396   1.496  0.00  0.00    -0.370 OA
ATOM     19  C   LIG    1        2.892   1.999   1.204  0.00  0.00    +0.220 C 
ATOM     20  C   LIG    1        2.098   1.696  -0.067  0.00  0.00    +0.210 C 
ATOM     21  O   LIG    1       -0.215   0.355  -0.580  0.00  0.00    -0.490 OA
BRANCH  20  22
ATOM     22  C   LIG    1        2.020   0.183  -0.276  0.00  0.00    +0.070 C 
BRANCH  22  23
ATOM     23  C   LIG    1        1.742  -0.115  -1.750  0.00  0.00    -0.040 C 
ATOM     24  C   LIG    1        0.648  -1.135  -2.071  0.00  0.00    +0.050 C 
ATOM     25  C   LIG    1        2.119  -1.502  -2.274  0.00  0.00    -0.020 C 
ENDBRANCH  22  23
ENDBRANCH  20  22
ENDBRANCH  10  14
BRANCH   6  26
ATOM     26  C   LIG    1       -5.710   5.048   0.222  0.00  0.00    +0.210 C 
ATOM     27  C   LIG    1       -4.692   6.137   0.566  0.00  0.00    +0.070 C 
ATOM     28  C   LIG    1       -6.042   6.097   1.286  0.00  0.00    +0.050 C 
ENDBRANCH   6  26
TORSDOF 4
