REMARK  Name = ZINCrD00000F5LBD.0
REMARK                            x       y       z     vdW  Elec       q    Type
REMARK                         _______ _______ _______ _____ _____    ______ ____
ROOT
ATOM      1  C   LIG    1        3.725  -4.756  -0.058  0.00  0.00    +0.250 C 
ENDROOT
BRANCH   1   2
ATOM      2  C   LIG    1        3.634  -6.260  -0.065  0.00  0.00    +0.520 C 
ATOM      3  N   LIG    1        4.758  -7.003  -0.080  0.00  0.00    -0.560 N 
ATOM      4  C   LIG    1        6.086  -6.370  -0.089  0.00  0.00    +0.340 C 
ATOM      5  C   LIG    1        6.976  -7.111  -1.054  0.00  0.00    +0.510 C 
ATOM      6  N   LIG    1        6.789  -8.422  -1.298  0.00  0.00    -0.650 N 
ATOM      7  H   LIG    1        7.394  -8.889  -1.895  0.00  0.00    +0.420 HD
ATOM      8  C   LIG    1        5.732  -9.117  -0.701  0.00  0.00    +0.130 A 
ATOM      9  C   LIG    1        5.698 -10.502  -0.714  0.00  0.00    +0.010 A 
ATOM     10  C   LIG    1        4.641 -11.170  -0.123  0.00  0.00    +0.030 A 
ATOM     11  C   LIG    1        3.618 -10.463   0.482  0.00  0.00    +0.010 A 
ATOM     12  C   LIG    1        3.645  -9.079   0.501  0.00  0.00    +0.060 A 
ATOM     13  O   LIG    1        7.873  -6.519  -1.617  0.00  0.00    -0.510 OA
ATOM     14  C   LIG    1        4.700  -8.406  -0.080  0.00  0.00    +0.110 A 
ATOM     15  O   LIG    1        2.549  -6.803  -0.057  0.00  0.00    -0.490 OA
ENDBRANCH   1   2
BRANCH   1  16
ATOM     16  O   LIG    1        2.409  -4.200  -0.043  0.00  0.00    -0.220 OA
BRANCH  16  18
ATOM     17  C   LIG    1        1.250  -2.159  -0.021  0.00  0.00    +0.290 C 
ATOM     18  N   LIG    1        2.382  -2.784  -0.035  0.00  0.00    -0.340 NA
BRANCH  17  22
ATOM     19  C   LIG    1        1.170   2.086   0.002  0.00  0.00    -0.050 A 
ATOM     20  C   LIG    1       -0.017   1.375   0.010  0.00  0.00    +0.010 A 
ATOM     21  C   LIG    1        0.002  -0.004   0.002  0.00  0.00    +0.050 A 
ATOM     22  C   LIG    1        1.222  -0.682  -0.013  0.00  0.00    -0.070 A 
ATOM     23  C   LIG    1        2.416   0.042  -0.021  0.00  0.00    +0.060 A 
ATOM     24  C   LIG    1        2.383   1.421  -0.013  0.00  0.00    +0.000 A 
BRANCH  19  26
ATOM     25  C   LIG    1        0.423   4.083   1.268  0.00  0.00    +0.040 C 
ATOM     26  C   LIG    1        1.142   3.593   0.010  0.00  0.00    -0.030 C 
ATOM     27  C   LIG    1        0.399   4.096  -1.230  0.00  0.00    +0.040 C 
ATOM     28  C   LIG    1        2.574   4.130  -0.001  0.00  0.00    +0.030 C 
ENDBRANCH  19  26
ENDBRANCH  17  22
ENDBRANCH  16  18
ENDBRANCH   1  16
TORSDOF 5
