REMARK  Name = ZINCqH0000008oKX.0
REMARK                            x       y       z     vdW  Elec       q    Type
REMARK                         _______ _______ _______ _____ _____    ______ ____
ROOT
ATOM      1  N   LIG    1       -3.574  -0.982  -0.190  0.00  0.00    -0.730 N 
ATOM      2  H   LIG    1       -4.418  -0.504  -0.183  0.00  0.00    +0.400 HD
ATOM      3  C   LIG    1       -2.414  -0.303  -0.090  0.00  0.00    +0.710 C 
ATOM      4  N   LIG    1       -2.428   1.040   0.019  0.00  0.00    -0.690 N 
ATOM      5  H   LIG    1       -3.272   1.513   0.092  0.00  0.00    +0.410 HD
ATOM      6  O   LIG    1       -1.356  -0.902  -0.098  0.00  0.00    -0.560 OA
ENDROOT
BRANCH   4   7
ATOM      7  C   LIG    1       -1.223   1.754   0.028  0.00  0.00    +0.220 A 
ATOM      8  C   LIG    1       -0.095   1.207   0.625  0.00  0.00    +0.030 A 
ATOM      9  C   LIG    1        1.093   1.911   0.627  0.00  0.00    +0.070 A 
ATOM     10  C   LIG    1        1.159   3.161   0.040  0.00  0.00    +0.000 A 
ATOM     11  C   LIG    1        0.035   3.711  -0.551  0.00  0.00    +0.090 A 
ATOM     12  C   LIG    1       -1.156   3.012  -0.557  0.00  0.00    -0.220 A 
BRANCH  12  13
ATOM     13  C   LIG    1       -2.379   3.611  -1.201  0.00  0.00    +0.510 C 
ATOM     14  F   LIG    1       -3.393   3.742  -0.246  0.00  0.00    -0.180 F 
ATOM     15  F   LIG    1       -2.817   2.777  -2.235  0.00  0.00    -0.170 F 
ATOM     16  F   LIG    1       -2.062   4.871  -1.720  0.00  0.00    -0.170 F 
ENDBRANCH  12  13
ENDBRANCH   4   7
BRANCH   1  18
ATOM     17  C   LIG    1       -3.375  -2.833  -1.776  0.00  0.00    +0.040 C 
ATOM     18  C   LIG    1       -3.560  -2.442  -0.308  0.00  0.00    +0.310 C 
BRANCH  18  19
ATOM     19  C   LIG    1       -4.865  -3.000   0.199  0.00  0.00    -0.080 A 
ATOM     20  C   LIG    1       -6.051  -2.349  -0.089  0.00  0.00    +0.030 A 
ATOM     21  C   LIG    1       -7.252  -2.852   0.372  0.00  0.00    +0.040 A 
ATOM     22  C   LIG    1       -7.269  -4.015   1.127  0.00  0.00    +0.090 A 
ATOM     23  N   LIG    1       -8.289  -4.755   1.720  0.00  0.00    -0.640 N 
ATOM     24  H   LIG    1       -9.235  -4.544   1.690  0.00  0.00    +0.440 HD
ATOM     25  C   LIG    1       -7.737  -5.814   2.343  0.00  0.00    +0.680 A 
ATOM     26  N   LIG    1       -6.401  -5.792   2.179  0.00  0.00    -0.640 N 
ATOM     27  H   LIG    1       -5.775  -6.443   2.530  0.00  0.00    +0.440 HD
ATOM     28  O   LIG    1       -8.353  -6.662   2.961  0.00  0.00    -0.550 OA
ATOM     29  C   LIG    1       -6.071  -4.673   1.417  0.00  0.00    +0.100 A 
ATOM     30  C   LIG    1       -4.872  -4.163   0.946  0.00  0.00    +0.050 A 
ENDBRANCH  18  19
ENDBRANCH   1  18
TORSDOF 4
