REMARK  Name = ZINCrD000001YJn2.0
REMARK                            x       y       z     vdW  Elec       q    Type
REMARK                         _______ _______ _______ _____ _____    ______ ____
ROOT
ATOM      1  C   LIG    1        5.211  -4.861  -3.326  0.00  0.00    +0.550 C 
ATOM      2  N   LIG    1        4.798  -4.046  -2.336  0.00  0.00    -0.610 N 
ATOM      3  C   LIG    1        4.074  -4.585  -1.176  0.00  0.00    +0.280 C 
ATOM      4  C   LIG    1        4.788  -4.136   0.103  0.00  0.00    +0.060 C 
ATOM      5  C   LIG    1        4.923  -2.612   0.099  0.00  0.00    -0.030 C 
ATOM      6  C   LIG    1        5.765  -2.176  -1.102  0.00  0.00    +0.030 C 
ATOM      7  C   LIG    1        5.062  -2.602  -2.395  0.00  0.00    +0.270 C 
ATOM      8  O   LIG    1        4.876  -6.030  -3.332  0.00  0.00    -0.540 OA
ENDROOT
BRANCH   5   9
ATOM      9  C   LIG    1        5.595  -2.165   1.372  0.00  0.00    -0.080 A 
ATOM     10  C   LIG    1        6.848  -1.583   1.324  0.00  0.00    +0.020 A 
ATOM     11  C   LIG    1        7.463  -1.167   2.491  0.00  0.00    +0.010 A 
ATOM     12  C   LIG    1        6.829  -1.344   3.706  0.00  0.00    +0.010 A 
ATOM     13  C   LIG    1        5.578  -1.932   3.755  0.00  0.00    +0.020 A 
ATOM     14  C   LIG    1        4.962  -2.341   2.587  0.00  0.00    +0.010 A 
ENDBRANCH   5   9
BRANCH   5  15
ATOM     15  C   LIG    1        3.555  -1.987   0.007  0.00  0.00    +0.530 C 
ATOM     16  N   LIG    1        3.426  -0.703  -0.384  0.00  0.00    -0.670 N 
ATOM     17  H   LIG    1        4.201  -0.211  -0.697  0.00  0.00    +0.410 HD
ATOM     18  O   LIG    1        2.571  -2.638   0.285  0.00  0.00    -0.500 OA
BRANCH  16  19
ATOM     19  C   LIG    1        2.177  -0.083  -0.338  0.00  0.00    +0.190 A 
ATOM     20  C   LIG    1        1.007  -0.816  -0.530  0.00  0.00    -0.040 A 
ATOM     21  C   LIG    1       -0.208  -0.165  -0.478  0.00  0.00    +0.280 A 
ATOM     22  N   LIG    1       -0.271   1.133  -0.250  0.00  0.00    -0.490 NA
ATOM     23  C   LIG    1        0.814   1.862  -0.064  0.00  0.00    +0.150 A 
ATOM     24  C   LIG    1        2.067   1.286  -0.100  0.00  0.00    -0.060 A 
BRANCH  23  25
ATOM     25  C   LIG    1        0.681   3.341   0.192  0.00  0.00    +0.090 C 
ATOM     26  C   LIG    1       -0.125   3.984  -0.938  0.00  0.00    +0.040 C 
ENDBRANCH  23  25
ENDBRANCH  16  19
ENDBRANCH   5  15
BRANCH   1  28
ATOM     27  C   LIG    1        6.367  -5.102  -5.447  0.00  0.00    +0.150 C 
ATOM     28  C   LIG    1        6.068  -4.336  -4.401  0.00  0.00    -0.090 C 
ENDBRANCH   1  28
TORSDOF 5
