REMARK  Name = ZINCpe000000XEUR.0
REMARK                            x       y       z     vdW  Elec       q    Type
REMARK                         _______ _______ _______ _____ _____    ______ ____
ROOT
ATOM      1  C   LIG    1       -1.397   2.835  -1.960  0.00  0.00    +0.610 C 
ATOM      2  N   LIG    1       -2.412   2.165  -1.379  0.00  0.00    -0.700 N 
ATOM      3  H   LIG    1       -2.324   1.217  -1.193  0.00  0.00    +0.420 HD
ATOM      4  O   LIG    1       -1.508   4.022  -2.193  0.00  0.00    -0.510 OA
ENDROOT
BRANCH   1  12
ATOM      5  C   LIG    1        3.734   2.886  -4.137  0.00  0.00    +0.160 C 
ATOM      6  C   LIG    1        3.113   1.632  -3.579  0.00  0.00    +0.210 A 
ATOM      7  C   LIG    1        3.797   0.460  -3.593  0.00  0.00    -0.040 A 
ATOM      8  C   LIG    1        3.195  -0.692  -3.068  0.00  0.00    +0.240 A 
ATOM      9  N   LIG    1        1.983  -0.637  -2.567  0.00  0.00    -0.460 NA
ATOM     10  C   LIG    1        1.298   0.515  -2.548  0.00  0.00    +0.460 A 
ATOM     11  N   LIG    1        0.087   0.826  -2.109  0.00  0.00    -0.500 NA
ATOM     12  C   LIG    1       -0.147   2.124  -2.315  0.00  0.00    +0.240 A 
ATOM     13  N   LIG    1        0.906   2.673  -2.890  0.00  0.00    -0.270 NA
ATOM     14  C   LIG    1        3.943  -2.000  -3.078  0.00  0.00    +0.180 C 
ATOM     15  N   LIG    1        1.857   1.657  -3.053  0.00  0.00    -0.330 N 
ENDBRANCH   1  12
BRANCH   2  16
ATOM     16  C   LIG    1       -3.648   2.868  -1.028  0.00  0.00    +0.280 C 
BRANCH  16  17
ATOM     17  C   LIG    1       -4.672   1.864  -0.493  0.00  0.00    +0.180 C 
BRANCH  17  18
ATOM     18  N   LIG    1       -4.099   1.145   0.653  0.00  0.00    -0.530 NA
ATOM     19  C   LIG    1       -5.155   0.529   1.469  0.00  0.00    +0.160 C 
ATOM     20  C   LIG    1       -4.513  -0.258   2.615  0.00  0.00    +0.220 C 
ATOM     21  O   LIG    1       -3.680   0.617   3.380  0.00  0.00    -0.380 OA
ATOM     22  C   LIG    1       -2.640   1.234   2.616  0.00  0.00    +0.220 C 
ATOM     23  C   LIG    1       -3.263   2.036   1.470  0.00  0.00    +0.140 C 
ENDBRANCH  17  18
BRANCH  17  24
ATOM     24  C   LIG    1       -5.933   2.609  -0.049  0.00  0.00    -0.040 C 
ATOM     25  C   LIG    1       -6.481   3.426  -1.220  0.00  0.00    +0.030 C 
ATOM     26  C   LIG    1       -5.590   3.546   1.111  0.00  0.00    +0.020 C 
ENDBRANCH  17  24
ENDBRANCH  16  17
ENDBRANCH   2  16
TORSDOF 5
