REMARK  Name = ZINCvU00000006zw.0
REMARK                            x       y       z     vdW  Elec       q    Type
REMARK                         _______ _______ _______ _____ _____    ______ ____
ROOT
ATOM      1  C   LIG    1       -1.742   0.951  -1.843  0.00  0.00    +0.150 A 
ATOM      2  N   LIG    1       -2.097   1.736  -2.836  0.00  0.00    -0.290 NA
ATOM      3  N   LIG    1       -1.376   2.800  -2.838  0.00  0.00    -0.250 NA
ATOM      4  C   LIG    1       -0.519   2.763  -1.841  0.00  0.00    +0.260 A 
ATOM      5  N   LIG    1       -0.731   1.578  -1.171  0.00  0.00    -0.450 N 
ENDROOT
BRANCH   4   6
ATOM      6  C   LIG    1        0.477   3.792  -1.505  0.00  0.00    +0.040 A 
ATOM      7  C   LIG    1        0.883   4.808  -2.317  0.00  0.00    +0.030 A 
ATOM      8  C   LIG    1        1.838   5.548  -1.594  0.00  0.00    -0.050 A 
ATOM      9  C   LIG    1        1.975   4.952  -0.393  0.00  0.00    +0.190 A 
ATOM     10  O   LIG    1        1.151   3.891  -0.342  0.00  0.00    -0.170 OA
ENDBRANCH   4   6
BRANCH   1  11
ATOM     11  S   LIG    1       -2.444  -0.617  -1.450  0.00  0.00    +0.090 S 
BRANCH  11  12
ATOM     12  C   LIG    1       -3.684  -0.745  -2.761  0.00  0.00    +0.110 C 
BRANCH  12  15
ATOM     13  N   LIG    1       -5.409  -2.359  -3.494  0.00  0.00    -0.660 N 
ATOM     14  H   LIG    1       -5.678  -1.718  -4.171  0.00  0.00    +0.420 HD
ATOM     15  C   LIG    1       -4.431  -2.046  -2.621  0.00  0.00    +0.540 C 
ATOM     16  O   LIG    1       -4.152  -2.812  -1.723  0.00  0.00    -0.500 OA
BRANCH  13  20
ATOM     17  C   LIG    1       -7.278  -6.077  -3.285  0.00  0.00    -0.090 A 
ATOM     18  C   LIG    1       -6.869  -5.444  -2.126  0.00  0.00    +0.030 A 
ATOM     19  C   LIG    1       -6.249  -4.211  -2.192  0.00  0.00    +0.020 A 
ATOM     20  C   LIG    1       -6.037  -3.608  -3.424  0.00  0.00    +0.130 A 
ATOM     21  C   LIG    1       -6.453  -4.244  -4.586  0.00  0.00    -0.010 A 
ATOM     22  C   LIG    1       -7.068  -5.478  -4.514  0.00  0.00    +0.030 A 
BRANCH  17  24
ATOM     23  C   LIG    1       -9.355  -7.322  -3.818  0.00  0.00    +0.040 C 
ATOM     24  C   LIG    1       -7.955  -7.421  -3.209  0.00  0.00    +0.020 C 
ATOM     25  C   LIG    1       -7.132  -8.450  -3.986  0.00  0.00    +0.030 C 
ENDBRANCH  17  24
ENDBRANCH  13  20
ENDBRANCH  12  15
ENDBRANCH  11  12
ENDBRANCH   1  11
BRANCH   5  26
ATOM     26  C   LIG    1       -0.017   1.089   0.011  0.00  0.00    +0.370 C 
BRANCH  26  27
ATOM     27  C   LIG    1       -0.721   1.566   1.256  0.00  0.00    -0.130 A 
ATOM     28  C   LIG    1       -0.366   2.771   1.832  0.00  0.00    +0.030 A 
ATOM     29  C   LIG    1       -1.015   3.210   2.971  0.00  0.00    +0.010 A 
ATOM     30  C   LIG    1       -2.012   2.439   3.539  0.00  0.00    +0.030 A 
ATOM     31  C   LIG    1       -2.363   1.231   2.966  0.00  0.00    +0.010 A 
ATOM     32  C   LIG    1       -1.717   0.794   1.824  0.00  0.00    +0.040 A 
ENDBRANCH  26  27
ENDBRANCH   5  26
TORSDOF 8
