REMARK  Name = ZINCrD000000D515.1
REMARK                            x       y       z     vdW  Elec       q    Type
REMARK                         _______ _______ _______ _____ _____    ______ ____
ROOT
ATOM      1  N   LIG    1       -0.900   1.880  -1.312  0.00  0.00    -1.040 N 
ATOM      2  H   LIG    1       -1.253   1.208  -1.917  0.00  0.00    +0.440 HD
ENDROOT
BRANCH   1   3
ATOM      3  C   LIG    1       -1.215   3.230  -1.506  0.00  0.00    +0.170 A 
ATOM      4  C   LIG    1       -0.273   4.209  -1.230  0.00  0.00    +0.000 A 
ATOM      5  C   LIG    1       -0.586   5.544  -1.427  0.00  0.00    +0.110 A 
ATOM      6  C   LIG    1       -1.840   5.902  -1.889  0.00  0.00    +0.030 A 
ATOM      7  C   LIG    1       -2.785   4.929  -2.161  0.00  0.00    +0.000 A 
ATOM      8  F   LIG    1        0.334   6.498  -1.163  0.00  0.00    -0.130 F 
ATOM      9  C   LIG    1       -2.478   3.592  -1.971  0.00  0.00    +0.100 A 
BRANCH   9  10
ATOM     10  O   LIG    1       -3.407   2.635  -2.237  0.00  0.00    -0.300 OA
BRANCH  10  11
ATOM     11  C   LIG    1       -4.679   3.080  -2.711  0.00  0.00    +0.230 C 
BRANCH  11  12
ATOM     12  C   LIG    1       -5.585   1.871  -2.953  0.00  0.00    +0.470 C 
ATOM     13  F   LIG    1       -4.998   1.033  -3.908  0.00  0.00    -0.170 F 
ATOM     14  F   LIG    1       -6.831   2.307  -3.417  0.00  0.00    -0.170 F 
ATOM     15  F   LIG    1       -5.753   1.167  -1.756  0.00  0.00    -0.170 F 
ENDBRANCH  11  12
ENDBRANCH  10  11
ENDBRANCH   9  10
ENDBRANCH   1   3
BRANCH   1  17
ATOM     16  O   LIG    1        0.087   0.009  -0.042  0.00  0.00    -0.940 OA
ATOM     17  S   LIG    1        0.075   1.429  -0.052  0.00  0.00    +2.700 S 
ATOM     18  O   LIG    1        1.253   2.216  -0.155  0.00  0.00    -0.940 OA
BRANCH  17  19
ATOM     19  C   LIG    1       -0.729   1.930   1.434  0.00  0.00    -0.680 A 
ATOM     20  C   LIG    1       -0.481   3.182   1.965  0.00  0.00    +0.140 A 
ATOM     21  C   LIG    1       -1.113   3.580   3.128  0.00  0.00    +0.020 A 
ATOM     22  C   LIG    1       -1.990   2.720   3.771  0.00  0.00    +0.110 A 
ATOM     23  O   LIG    1       -2.598   3.123   4.920  0.00  0.00    -0.300 OA
ATOM     24  C   LIG    1       -3.752   2.381   5.331  0.00  0.00    +0.230 C 
ATOM     25  C   LIG    1       -3.428   0.886   5.216  0.00  0.00    +0.230 C 
ATOM     26  O   LIG    1       -3.098   0.602   3.852  0.00  0.00    -0.300 OA
ATOM     27  C   LIG    1       -2.237   1.460   3.240  0.00  0.00    +0.030 A 
ATOM     28  C   LIG    1       -1.603   1.068   2.070  0.00  0.00    +0.140 A 
ENDBRANCH  17  19
ENDBRANCH   1  17
TORSDOF 6
