REMARK  Name = ZINCrH000004ppzg.0
REMARK                            x       y       z     vdW  Elec       q    Type
REMARK                         _______ _______ _______ _____ _____    ______ ____
ROOT
ATOM      1  C   LIG    1        1.029  -2.556   4.935  0.00  0.00    +0.170 C 
ATOM      2  C   LIG    1        2.305  -1.712   4.948  0.00  0.00    +0.070 C 
ENDROOT
BRANCH   1   3
ATOM      3  N   LIG    1        0.571  -2.730   3.550  0.00  0.00    -0.510 NA
ATOM      4  C   LIG    1       -0.763  -3.346   3.510  0.00  0.00    +0.180 C 
ATOM      5  C   LIG    1       -1.169  -3.582   2.054  0.00  0.00    +0.180 C 
ATOM      6  N   LIG    1       -1.161  -2.303   1.331  0.00  0.00    -0.530 NA
ATOM      7  C   LIG    1        0.173  -1.687   1.371  0.00  0.00    +0.180 C 
ATOM      8  C   LIG    1        0.579  -1.450   2.828  0.00  0.00    +0.200 C 
BRANCH   6   9
ATOM      9  C   LIG    1       -1.619  -2.477  -0.053  0.00  0.00    +0.230 C 
BRANCH   9  10
ATOM     10  C   LIG    1       -1.832  -1.125  -0.686  0.00  0.00    -0.060 A 
ATOM     11  C   LIG    1       -0.793  -0.502  -1.352  0.00  0.00    +0.020 A 
ATOM     12  C   LIG    1       -0.988   0.737  -1.932  0.00  0.00    +0.020 A 
ATOM     13  C   LIG    1       -2.222   1.354  -1.847  0.00  0.00    +0.020 A 
ATOM     14  C   LIG    1       -3.262   0.731  -1.181  0.00  0.00    -0.030 A 
ATOM     15 CL   LIG    1       -4.812   1.505  -1.074  0.00  0.00    -0.070 Cl
ATOM     16  C   LIG    1       -3.068  -0.511  -0.604  0.00  0.00    +0.040 A 
ENDBRANCH   9  10
ENDBRANCH   6   9
ENDBRANCH   1   3
BRANCH   1  19
ATOM     17  N   LIG    1       -0.146  -2.083   7.060  0.00  0.00    -0.720 N 
ATOM     18  H   LIG    1        0.469  -2.692   7.499  0.00  0.00    +0.400 HD
ATOM     19  C   LIG    1       -0.042  -1.860   5.735  0.00  0.00    +0.490 C 
ATOM     20  O   LIG    1       -0.810  -1.099   5.186  0.00  0.00    -0.530 OA
BRANCH  17  22
ATOM     21  C   LIG    1       -2.489  -2.205   7.749  0.00  0.00    +0.030 C 
ATOM     22  C   LIG    1       -1.187  -1.406   7.837  0.00  0.00    +0.280 C 
BRANCH  22  23
ATOM     23  C   LIG    1       -0.754  -1.308   9.277  0.00  0.00    -0.090 A 
ATOM     24  C   LIG    1       -0.109  -2.371   9.880  0.00  0.00    +0.000 A 
ATOM     25  C   LIG    1        0.292  -2.279  11.199  0.00  0.00    +0.000 A 
ATOM     26  C   LIG    1        0.039  -1.127  11.920  0.00  0.00    +0.000 A 
ATOM     27  C   LIG    1       -0.612  -0.065  11.319  0.00  0.00    +0.020 A 
ATOM     28  C   LIG    1       -1.009  -0.156   9.998  0.00  0.00    +0.010 A 
ENDBRANCH  22  23
ENDBRANCH  17  22
ENDBRANCH   1  19
TORSDOF 6
