REMARK  Name = ZINCqH00000094Fo.0
REMARK                            x       y       z     vdW  Elec       q    Type
REMARK                         _______ _______ _______ _____ _____    ______ ____
ROOT
ATOM      1  C   LIG    1       -0.017  11.632   1.504  0.00  0.00    +0.030 C 
ATOM      2  C   LIG    1       -0.122  10.106   1.496  0.00  0.00    +0.240 C 
ENDROOT
BRANCH   2   3
ATOM      3  N   LIG    1       -1.362   9.698   2.160  0.00  0.00    -0.730 N 
ATOM      4  H   LIG    1       -2.159   9.525   1.635  0.00  0.00    +0.400 HD
ATOM      5  C   LIG    1       -1.396   9.564   3.501  0.00  0.00    +0.510 C 
ATOM      6  O   LIG    1       -0.400   9.781   4.157  0.00  0.00    -0.540 OA
BRANCH   5   7
ATOM      7  C   LIG    1       -2.672   9.145   4.185  0.00  0.00    +0.050 C 
BRANCH   7   8
ATOM      8  C   LIG    1       -2.441   9.069   5.695  0.00  0.00    +0.130 C 
BRANCH   8   9
ATOM      9  C   LIG    1       -3.716   8.650   6.379  0.00  0.00    -0.240 A 
ATOM     10  C   LIG    1       -4.681   9.479   6.842  0.00  0.00    +0.230 A 
ATOM     11  N   LIG    1       -5.655   8.716   7.381  0.00  0.00    -0.380 N 
ATOM     12  N   LIG    1       -5.272   7.374   7.252  0.00  0.00    -0.300 NA
ATOM     13  C   LIG    1       -6.891   9.204   7.997  0.00  0.00    +0.360 C 
ATOM     14  C   LIG    1       -4.110   7.336   6.652  0.00  0.00    +0.230 A 
ENDBRANCH   8   9
ENDBRANCH   7   8
ENDBRANCH   5   7
ENDBRANCH   2   3
BRANCH   2  15
ATOM     15  C   LIG    1       -0.128   9.603   0.051  0.00  0.00    +0.080 C 
BRANCH  15  16
ATOM     16  C   LIG    1       -0.108   8.096   0.044  0.00  0.00    -0.080 A 
ATOM     17  C   LIG    1       -1.298   7.391   0.051  0.00  0.00    +0.010 A 
ATOM     18  C   LIG    1       -1.285   6.011   0.044  0.00  0.00    +0.010 A 
ATOM     19  C   LIG    1       -0.070   5.328   0.029  0.00  0.00    -0.050 A 
ATOM     20  C   LIG    1        1.125   6.043   0.027  0.00  0.00    +0.020 A 
ATOM     21  C   LIG    1        1.101   7.423   0.029  0.00  0.00    +0.010 A 
BRANCH  19  22
ATOM     22  C   LIG    1       -0.050   3.844   0.022  0.00  0.00    -0.050 A 
ATOM     23  C   LIG    1        1.164   3.161   0.007  0.00  0.00    +0.010 A 
ATOM     24  C   LIG    1        1.177   1.781   0.000  0.00  0.00    +0.000 A 
ATOM     25  C   LIG    1       -0.013   1.076   0.008  0.00  0.00    +0.000 A 
ATOM     26  C   LIG    1       -1.221   1.748   0.017  0.00  0.00    +0.000 A 
ATOM     27  C   LIG    1       -1.246   3.128   0.030  0.00  0.00    +0.010 A 
ENDBRANCH  19  22
ENDBRANCH  15  16
ENDBRANCH   2  15
TORSDOF 7
