REMARK  Name = ZINCpk00000ebuD6.0
REMARK                            x       y       z     vdW  Elec       q    Type
REMARK                         _______ _______ _______ _____ _____    ______ ____
ROOT
ATOM      1  O   LIG    1        1.027   8.039   2.181  0.00  0.00    -0.510 OA
ATOM      2  C   LIG    1        1.053   7.369   3.191  0.00  0.00    +0.520 C 
ATOM      3  N   LIG    1        1.055   7.969   4.398  0.00  0.00    -0.730 N 
ATOM      4  H   LIG    1        1.076   7.433   5.206  0.00  0.00    +0.400 HD
ENDROOT
BRANCH   3   5
ATOM      5  C   LIG    1        1.025   9.431   4.489  0.00  0.00    +0.260 C 
BRANCH   5   6
ATOM      6  C   LIG    1        1.033   9.851   5.961  0.00  0.00    +0.070 C 
BRANCH   6   7
ATOM      7  C   LIG    1        1.003  11.354   6.054  0.00  0.00    -0.100 A 
ATOM      8  C   LIG    1        2.186  12.069   6.089  0.00  0.00    +0.050 A 
ATOM      9  C   LIG    1        2.159  13.448   6.169  0.00  0.00    -0.010 A 
ATOM     10  C   LIG    1        0.946  14.114   6.227  0.00  0.00    +0.100 A 
ATOM     11  C   LIG    1       -0.238  13.397   6.198  0.00  0.00    -0.010 A 
ATOM     12  F   LIG    1        0.919  15.462   6.312  0.00  0.00    -0.140 F 
ATOM     13  C   LIG    1       -0.209  12.018   6.112  0.00  0.00    +0.050 A 
ENDBRANCH   6   7
ENDBRANCH   5   6
ENDBRANCH   3   5
BRANCH   2  14
ATOM     14  C   LIG    1        1.084   5.865   3.098  0.00  0.00    +0.250 C 
BRANCH  14  15
ATOM     15  O   LIG    1        1.076   5.467   1.701  0.00  0.00    -0.330 OA
BRANCH  15  16
ATOM     16  C   LIG    1        1.101   4.150   1.443  0.00  0.00    +0.450 C 
ATOM     17  O   LIG    1        1.128   3.356   2.354  0.00  0.00    -0.500 OA
BRANCH  16  18
ATOM     18  C   LIG    1        1.094   3.662   0.018  0.00  0.00    +0.380 C 
BRANCH  18  19
ATOM     19  N   LIG    1        1.125   2.197   0.003  0.00  0.00    -0.600 N 
ATOM     20  C   LIG    1        2.417   1.493  -0.019  0.00  0.00    +0.280 C 
ATOM     21  C   LIG    1        2.649   0.851   1.350  0.00  0.00    +0.010 C 
ATOM     22  C   LIG    1        2.006  -0.521   1.420  0.00  0.00    +0.010 C 
ATOM     23  C   LIG    1        0.489  -0.491   1.369  0.00  0.00    +0.040 C 
ATOM     24  C   LIG    1        0.002  -0.004   0.002  0.00  0.00    +0.060 C 
ATOM     25  C   LIG    1       -0.018   1.510   0.010  0.00  0.00    +0.520 C 
ATOM     26  O   LIG    1       -1.078   2.100   0.019  0.00  0.00    -0.540 OA
ENDBRANCH  18  19
ENDBRANCH  16  18
ENDBRANCH  15  16
ENDBRANCH  14  15
ENDBRANCH   2  14
TORSDOF 8
