REMARK  Name = ZINCqH0000004FJh.0
REMARK                            x       y       z     vdW  Elec       q    Type
REMARK                         _______ _______ _______ _____ _____    ______ ____
ROOT
ATOM      1  C   LIG    1       -4.446   1.119   1.333  0.00  0.00    +0.190 C 
ATOM      2  C   LIG    1       -3.639   1.626   0.132  0.00  0.00    +0.270 C 
ATOM      3  N   LIG    1       -2.340   0.934   0.120  0.00  0.00    -0.630 N 
ATOM      4  C   LIG    1       -2.338  -0.535   0.218  0.00  0.00    +0.290 C 
ATOM      5  C   LIG    1       -3.208  -0.936   1.420  0.00  0.00    +0.220 C 
ATOM      6  C   LIG    1       -1.187   1.624   0.017  0.00  0.00    +0.710 C 
ATOM      7  N   LIG    1       -1.206   2.971   0.024  0.00  0.00    -0.650 N 
ATOM      8  H   LIG    1       -2.052   3.445   0.028  0.00  0.00    +0.400 HD
ATOM      9  O   LIG    1       -0.131   1.031  -0.083  0.00  0.00    -0.580 OA
ATOM     10  O   LIG    1       -4.488  -0.310   1.302  0.00  0.00    -0.370 OA
ENDROOT
BRANCH   1  14
ATOM     11  C   LIG    1       -8.421   2.668   1.137  0.00  0.00    -0.070 A 
ATOM     12  C   LIG    1       -7.462   3.320   1.889  0.00  0.00    +0.000 A 
ATOM     13  C   LIG    1       -6.175   2.819   1.952  0.00  0.00    +0.020 A 
ATOM     14  C   LIG    1       -5.848   1.665   1.264  0.00  0.00    -0.100 A 
ATOM     15  C   LIG    1       -6.807   1.016   0.509  0.00  0.00    +0.050 A 
ATOM     16  C   LIG    1       -8.095   1.515   0.449  0.00  0.00    +0.000 A 
BRANCH  11  18
ATOM     17  C   LIG    1       -9.936   4.190  -0.104  0.00  0.00    +0.030 C 
ATOM     18  C   LIG    1       -9.824   3.214   1.069  0.00  0.00    +0.050 C 
ENDBRANCH  11  18
ENDBRANCH   1  14
BRANCH   7  19
ATOM     19  C   LIG    1        0.004   3.692   0.030  0.00  0.00    +0.010 A 
ATOM     20  C   LIG    1        1.252   3.159   0.025  0.00  0.00    +0.250 A 
ATOM     21  N   LIG    1        2.139   4.188   0.035  0.00  0.00    -0.380 N 
ATOM     22  N   LIG    1        1.409   5.384   0.047  0.00  0.00    -0.270 NA
ATOM     23  C   LIG    1        3.599   4.069   0.033  0.00  0.00    +0.370 C 
ATOM     24  C   LIG    1        0.134   5.088   0.038  0.00  0.00    +0.070 A 
BRANCH  24  25
ATOM     25  C   LIG    1       -1.001   6.080   0.040  0.00  0.00    +0.070 C 
ATOM     26  C   LIG    1       -0.907   6.965  -1.204  0.00  0.00    +0.030 C 
ATOM     27  C   LIG    1       -0.915   6.952   1.294  0.00  0.00    +0.030 C 
ENDBRANCH  24  25
ENDBRANCH   7  19
TORSDOF 4
