REMARK  Name = ZINCqH0000005bxd.0
REMARK                            x       y       z     vdW  Elec       q    Type
REMARK                         _______ _______ _______ _____ _____    ______ ____
ROOT
ATOM      1  N   LIG    1        0.292   8.171  -7.022  0.00  0.00    -0.740 N 
ATOM      2  H   LIG    1        1.233   8.354  -7.167  0.00  0.00    +0.400 HD
ATOM      3  C   LIG    1       -0.133   7.731  -5.821  0.00  0.00    +0.700 C 
ATOM      4  N   LIG    1        0.751   7.547  -4.820  0.00  0.00    -0.640 N 
ATOM      5  H   LIG    1        1.693   7.731  -4.964  0.00  0.00    +0.420 HD
ATOM      6  O   LIG    1       -1.313   7.501  -5.640  0.00  0.00    -0.520 OA
ENDROOT
BRANCH   4   7
ATOM      7  C   LIG    1        0.314   7.094  -3.581  0.00  0.00    +0.280 A 
ATOM      8  N   LIG    1       -0.918   6.820  -3.283  0.00  0.00    -0.470 NA
ATOM      9  C   LIG    1       -1.156   6.399  -2.054  0.00  0.00    +0.250 A 
ATOM     10  C   LIG    1       -0.075   6.314  -1.278  0.00  0.00    -0.230 A 
ATOM     11  S   LIG    1        1.320   6.824  -2.225  0.00  0.00    +0.130 S 
BRANCH  10  12
ATOM     12  C   LIG    1       -0.051   5.867   0.161  0.00  0.00    +0.190 C 
BRANCH  12  13
ATOM     13  C   LIG    1        0.153   4.375   0.220  0.00  0.00    -0.080 A 
ATOM     14  C   LIG    1        1.432   3.854   0.278  0.00  0.00    +0.010 A 
ATOM     15  C   LIG    1        1.620   2.486   0.332  0.00  0.00    +0.000 A 
ATOM     16  C   LIG    1        0.528   1.638   0.328  0.00  0.00    +0.000 A 
ATOM     17  C   LIG    1       -0.751   2.158   0.263  0.00  0.00    +0.000 A 
ATOM     18  C   LIG    1       -0.939   3.527   0.214  0.00  0.00    +0.010 A 
ENDBRANCH  12  13
ENDBRANCH  10  12
ENDBRANCH   4   7
BRANCH   1  19
ATOM     19  C   LIG    1       -0.669   8.370  -8.110  0.00  0.00    +0.280 C 
BRANCH  19  20
ATOM     20  C   LIG    1        0.067   8.869  -9.355  0.00  0.00    +0.020 C 
BRANCH  20  21
ATOM     21  C   LIG    1       -0.936   9.078 -10.491  0.00  0.00    +0.180 C 
BRANCH  21  23
ATOM     22  C   LIG    1        0.633   8.507 -12.244  0.00  0.00    +0.210 C 
ATOM     23  N   LIG    1       -0.230   9.557 -11.687  0.00  0.00    -0.540 NA
BRANCH  23  24
ATOM     24  C   LIG    1       -1.176  10.052 -12.695  0.00  0.00    +0.220 C 
BRANCH  24  25
ATOM     25  C   LIG    1       -1.676  11.439 -12.288  0.00  0.00    +0.460 C 
ATOM     26  F   LIG    1       -2.432  11.338 -11.116  0.00  0.00    -0.180 F 
ATOM     27  F   LIG    1       -2.471  11.967 -13.312  0.00  0.00    -0.180 F 
ATOM     28  F   LIG    1       -0.582  12.282 -12.066  0.00  0.00    -0.170 F 
ENDBRANCH  24  25
ENDBRANCH  23  24
ENDBRANCH  21  23
ENDBRANCH  20  21
ENDBRANCH  19  20
ENDBRANCH   1  19
TORSDOF 9
