REMARK  Name = ZINCpe00000zaE65.0
REMARK                            x       y       z     vdW  Elec       q    Type
REMARK                         _______ _______ _______ _____ _____    ______ ____
ROOT
ATOM      1  C   LIG    1       -2.070   2.122  -1.161  0.00  0.00    +0.580 C 
ATOM      2  N   LIG    1       -0.727   2.011  -1.176  0.00  0.00    -0.710 N 
ATOM      3  H   LIG    1       -0.230   2.253  -1.973  0.00  0.00    +0.410 HD
ATOM      4  O   LIG    1       -2.694   1.818  -0.162  0.00  0.00    -0.540 OA
ENDROOT
BRANCH   1   9
ATOM      5  C   LIG    1       -7.351   3.209  -2.933  0.00  0.00    +0.180 C 
ATOM      6  C   LIG    1       -6.147   3.420  -3.814  0.00  0.00    +0.140 A 
ATOM      7  C   LIG    1       -4.832   3.182  -3.464  0.00  0.00    -0.210 A 
ATOM      8  C   LIG    1       -4.162   2.710  -2.319  0.00  0.00    +0.160 A 
ATOM      9  C   LIG    1       -2.784   2.610  -2.357  0.00  0.00    -0.010 A 
ATOM     10  N   LIG    1       -2.076   2.938  -3.445  0.00  0.00    -0.440 NA
ATOM     11  C   LIG    1       -2.615   3.379  -4.550  0.00  0.00    +0.340 A 
ATOM     12  C   LIG    1       -4.017   3.533  -4.643  0.00  0.00    +0.060 A 
ATOM     13  N   LIG    1       -4.855   3.938  -5.575  0.00  0.00    -0.270 NA
ATOM     14  N   LIG    1       -6.161   3.872  -5.075  0.00  0.00    -0.410 N 
ATOM     15  H   LIG    1       -6.959   4.117  -5.569  0.00  0.00    +0.450 HD
ENDBRANCH   1   9
BRANCH   2  16
ATOM     16  C   LIG    1       -0.019   1.526   0.010  0.00  0.00    +0.240 C 
ATOM     17  C   LIG    1        0.002  -0.004   0.002  0.00  0.00    +0.030 C 
ATOM     18  C   LIG    1        0.718  -0.497  -1.257  0.00  0.00    +0.010 C 
ATOM     19  C   LIG    1        2.154   0.032  -1.268  0.00  0.00    +0.020 C 
ATOM     20  C   LIG    1        2.133   1.562  -1.259  0.00  0.00    +0.010 C 
ATOM     21  C   LIG    1        1.417   2.055  -0.000  0.00  0.00    +0.240 C 
BRANCH  21  22
ATOM     22  N   LIG    1        1.397   3.520   0.008  0.00  0.00    -0.720 N 
ATOM     23  H   LIG    1        0.626   3.997  -0.338  0.00  0.00    +0.400 HD
ATOM     24  C   LIG    1        2.450   4.206   0.495  0.00  0.00    +0.490 C 
ATOM     25  O   LIG    1        3.414   3.610   0.926  0.00  0.00    -0.530 OA
BRANCH  24  26
ATOM     26  C   LIG    1        2.430   5.713   0.503  0.00  0.00    +0.210 C 
ATOM     27  C   LIG    1        2.409   6.230  -0.937  0.00  0.00    +0.040 C 
BRANCH  26  28
ATOM     28  O   LIG    1        3.596   6.201   1.168  0.00  0.00    -0.540 OA
ATOM     29  H   LIG    1        4.427   5.929   0.755  0.00  0.00    +0.380 HD
ENDBRANCH  26  28
ENDBRANCH  24  26
ENDBRANCH  21  22
ENDBRANCH   2  16
TORSDOF 5
