REMARK  Name = ZINCvU00000008tv.0
REMARK                            x       y       z     vdW  Elec       q    Type
REMARK                         _______ _______ _______ _____ _____    ______ ____
ROOT
ATOM      1  C   LIG    1        1.756   2.096  -0.004  0.00  0.00    +0.160 C 
ATOM      2  C   LIG    1        2.384   1.586   1.295  0.00  0.00    +0.110 C 
ENDROOT
BRANCH   1   3
ATOM      3  C   LIG    1        1.984   3.581  -0.121  0.00  0.00    +0.200 A 
ATOM      4  N   LIG    1        2.846   4.176  -0.907  0.00  0.00    -0.450 NA
ATOM      5  C   LIG    1        2.695   5.500  -0.677  0.00  0.00    +0.210 A 
ATOM      6  N   LIG    1        1.764   5.629   0.232  0.00  0.00    -0.360 NA
ATOM      7  O   LIG    1        1.347   4.539   0.560  0.00  0.00    +0.100 OA
BRANCH   5   8
ATOM      8  C   LIG    1        3.448   6.600  -1.330  0.00  0.00    -0.020 A 
ATOM      9  C   LIG    1        4.418   6.311  -2.288  0.00  0.00    +0.110 A 
ATOM     10  C   LIG    1        5.115   7.337  -2.892  0.00  0.00    +0.030 A 
ATOM     11  C   LIG    1        4.852   8.651  -2.548  0.00  0.00    +0.100 A 
ATOM     12  C   LIG    1        3.891   8.944  -1.598  0.00  0.00    -0.180 A 
ATOM     13  C   LIG    1        3.184   7.925  -0.991  0.00  0.00    +0.110 A 
BRANCH  12  14
ATOM     14  C   LIG    1        3.610  10.377  -1.229  0.00  0.00    +0.510 C 
ATOM     15  F   LIG    1        3.858  10.566   0.135  0.00  0.00    -0.170 F 
ATOM     16  F   LIG    1        2.271  10.676  -1.504  0.00  0.00    -0.170 F 
ATOM     17  F   LIG    1        4.439  11.222  -1.975  0.00  0.00    -0.170 F 
ENDBRANCH  12  14
ENDBRANCH   5   8
ENDBRANCH   1   3
BRANCH   1  18
ATOM     18  S   LIG    1       -0.022   1.758   0.012  0.00  0.00    +0.060 S 
BRANCH  18  23
ATOM     19  N   LIG    1       -1.086  -0.832   0.013  0.00  0.00    -0.410 N 
ATOM     20  C   LIG    1       -0.582  -2.105  -0.003  0.00  0.00    +0.410 A 
ATOM     21  N   LIG    1        0.718  -2.007  -0.015  0.00  0.00    -0.280 NA
ATOM     22  N   LIG    1        1.068  -0.771  -0.012  0.00  0.00    -0.290 NA
ATOM     23  C   LIG    1        0.002  -0.004   0.002  0.00  0.00    +0.170 A 
BRANCH  19  29
ATOM     24  C   LIG    1       -2.989   0.233  -1.043  0.00  0.00    +0.150 A 
ATOM     25  C   LIG    1       -4.325   0.597  -1.018  0.00  0.00    -0.060 A 
ATOM     26  C   LIG    1       -5.107   0.286   0.079  0.00  0.00    +0.080 A 
ATOM     27  C   LIG    1       -4.559  -0.392   1.152  0.00  0.00    +0.000 A 
ATOM     28  C   LIG    1       -3.228  -0.764   1.133  0.00  0.00    +0.080 A 
ATOM     29  C   LIG    1       -2.438  -0.456   0.035  0.00  0.00    +0.060 A 
BRANCH  24  31
ATOM     30  C   LIG    1       -2.850   1.250  -3.188  0.00  0.00    +0.250 C 
ATOM     31  O   LIG    1       -2.218   0.542  -2.119  0.00  0.00    -0.300 OA
ENDBRANCH  24  31
ENDBRANCH  19  29
ENDBRANCH  18  23
ENDBRANCH   1  18
TORSDOF 7
