REMARK  Name = ZINCqH0000003Oy8.0
REMARK                            x       y       z     vdW  Elec       q    Type
REMARK                         _______ _______ _______ _____ _____    ______ ____
ROOT
ATOM      1  C   LIG    1        2.640   5.499   0.006  0.00  0.00    +0.550 C 
ATOM      2  O   LIG    1        1.666   6.226   0.020  0.00  0.00    -0.480 OA
ENDROOT
BRANCH   1   8
ATOM      3  C   LIG    1        7.982   8.339  -0.030  0.00  0.00    +0.110 A 
ATOM      4  C   LIG    1        8.454   7.029  -0.042  0.00  0.00    -0.010 A 
ATOM      5  C   LIG    1        7.579   5.966  -0.040  0.00  0.00    +0.070 A 
ATOM      6  C   LIG    1        6.208   6.193  -0.025  0.00  0.00    +0.050 A 
ATOM      7  O   LIG    1        5.138   5.371  -0.019  0.00  0.00    -0.170 OA
ATOM      8  C   LIG    1        3.989   6.079  -0.003  0.00  0.00    -0.020 A 
ATOM      9  C   LIG    1        4.269   7.409  -0.004  0.00  0.00    -0.060 A 
ATOM     10  C   LIG    1        3.277   8.543   0.004  0.00  0.00    +0.150 C 
ATOM     11  C   LIG    1        5.727   7.516  -0.013  0.00  0.00    -0.110 A 
ATOM     12  C   LIG    1        6.624   8.587  -0.015  0.00  0.00    +0.040 A 
BRANCH   3  13
ATOM     13  O   LIG    1        8.861   9.377  -0.033  0.00  0.00    -0.310 OA
BRANCH  13  15
ATOM     14  C   LIG    1       11.079  10.336  -0.049  0.00  0.00    +0.070 C 
ATOM     15  C   LIG    1       10.251   9.049  -0.048  0.00  0.00    +0.170 C 
ENDBRANCH  13  15
ENDBRANCH   3  13
ENDBRANCH   1   8
BRANCH   1  16
ATOM     16  O   LIG    1        2.482   4.160   0.001  0.00  0.00    -0.320 OA
BRANCH  16  17
ATOM     17  C   LIG    1        1.120   3.657   0.011  0.00  0.00    +0.270 C 
BRANCH  17  18
ATOM     18  C   LIG    1        1.140   2.151   0.003  0.00  0.00    +0.520 C 
ATOM     19  N   LIG    1       -0.018   1.461   0.010  0.00  0.00    -0.720 N 
ATOM     20  H   LIG    1       -0.864   1.934   0.017  0.00  0.00    +0.400 HD
ATOM     21  O   LIG    1        2.199   1.558  -0.011  0.00  0.00    -0.510 OA
BRANCH  19  22
ATOM     22  C   LIG    1        0.002  -0.004   0.002  0.00  0.00    +0.240 C 
ATOM     23  C   LIG    1        0.121  -0.505  -1.439  0.00  0.00    +0.000 C 
ATOM     24  C   LIG    1        0.142  -2.034  -1.447  0.00  0.00    +0.020 C 
ATOM     25  C   LIG    1       -1.153  -2.565  -0.828  0.00  0.00    +0.010 C 
ATOM     26  C   LIG    1       -1.272  -2.065   0.613  0.00  0.00    +0.020 C 
ATOM     27  C   LIG    1       -1.292  -0.535   0.621  0.00  0.00    +0.010 C 
ENDBRANCH  19  22
ENDBRANCH  17  18
ENDBRANCH  16  17
ENDBRANCH   1  16
TORSDOF 7
