REMARK  Name = ZINCrH000004s05W.0
REMARK                            x       y       z     vdW  Elec       q    Type
REMARK                         _______ _______ _______ _____ _____    ______ ____
ROOT
ATOM      1  N   LIG    1        2.471  -4.205  -3.687  0.00  0.00    -0.340 N 
ATOM      2  N   LIG    1        2.282  -5.590  -3.604  0.00  0.00    -0.270 NA
ATOM      3  C   LIG    1        1.674  -5.858  -2.477  0.00  0.00    +0.110 A 
ATOM      4  C   LIG    1        1.456  -4.657  -1.795  0.00  0.00    -0.080 A 
ATOM      5  C   LIG    1        1.958  -3.647  -2.557  0.00  0.00    +0.330 A 
ENDROOT
BRANCH   1  12
ATOM      6  C   LIG    1        4.972  -5.164  -4.652  0.00  0.00    +0.110 C 
ATOM      7  C   LIG    1        4.302  -3.951  -5.245  0.00  0.00    -0.070 A 
ATOM      8  C   LIG    1        4.899  -3.274  -6.290  0.00  0.00    +0.030 A 
ATOM      9  C   LIG    1        4.288  -2.157  -6.831  0.00  0.00    +0.020 A 
ATOM     10  C   LIG    1        3.076  -1.719  -6.331  0.00  0.00    +0.020 A 
ATOM     11  C   LIG    1        2.471  -2.395  -5.289  0.00  0.00    +0.000 A 
ATOM     12  C   LIG    1        3.082  -3.517  -4.744  0.00  0.00    +0.150 A 
ENDBRANCH   1  12
BRANCH   5  13
ATOM     13  N   LIG    1        1.944  -2.289  -2.240  0.00  0.00    -0.660 N 
ATOM     14  H   LIG    1        2.408  -1.654  -2.808  0.00  0.00    +0.410 HD
ATOM     15  C   LIG    1        1.285  -1.859  -1.146  0.00  0.00    +0.710 C 
ATOM     16  N   LIG    1        1.271  -0.546  -0.840  0.00  0.00    -0.740 N 
ATOM     17  H   LIG    1        1.736   0.089  -1.407  0.00  0.00    +0.400 HD
ATOM     18  O   LIG    1        0.703  -2.655  -0.435  0.00  0.00    -0.550 OA
BRANCH  16  19
ATOM     19  C   LIG    1        0.555  -0.079   0.349  0.00  0.00    +0.280 C 
BRANCH  19  20
ATOM     20  C   LIG    1        0.696   1.440   0.466  0.00  0.00    -0.010 C 
ATOM     21  C   LIG    1       -0.075   2.145  -0.678  0.00  0.00    +0.020 C 
ATOM     22  C   LIG    1       -0.344   3.554  -0.089  0.00  0.00    -0.010 C 
ATOM     23  C   LIG    1       -0.645   3.292   1.401  0.00  0.00    +0.160 C 
ATOM     24  C   LIG    1        0.016   1.948   1.754  0.00  0.00    +0.050 C 
BRANCH  23  25
ATOM     25  O   LIG    1       -0.090   4.336   2.203  0.00  0.00    -0.570 OA
ATOM     26  H   LIG    1       -0.466   5.210   2.027  0.00  0.00    +0.380 HD
ENDBRANCH  23  25
ENDBRANCH  19  20
ENDBRANCH  16  19
ENDBRANCH   5  13
BRANCH   3  27
ATOM     27  C   LIG    1        1.276  -7.229  -1.994  0.00  0.00    +0.010 C 
ATOM     28  C   LIG    1        1.654  -7.381  -0.520  0.00  0.00    +0.040 C 
ATOM     29  C   LIG    1        2.005  -8.291  -2.820  0.00  0.00    +0.040 C 
ATOM     30  C   LIG    1       -0.235  -7.407  -2.154  0.00  0.00    +0.040 C 
ENDBRANCH   3  27
TORSDOF 6
