REMARK  Name = ZINCpe000000Yzx1.0
REMARK                            x       y       z     vdW  Elec       q    Type
REMARK                         _______ _______ _______ _____ _____    ______ ____
ROOT
ATOM      1  C   LIG    1        1.080   2.253  -0.109  0.00  0.00    +0.180 C 
ENDROOT
BRANCH   1   2
ATOM      2  C   LIG    1       -0.071   1.374   0.309  0.00  0.00    +0.530 C 
ATOM      3  N   LIG    1       -1.331   1.707  -0.033  0.00  0.00    -0.610 N 
ATOM      4  C   LIG    1       -1.594   2.883  -0.872  0.00  0.00    +0.250 C 
ATOM      5  C   LIG    1       -2.444   2.446  -2.075  0.00  0.00    +0.010 C 
ATOM      6  C   LIG    1       -3.705   1.740  -1.571  0.00  0.00    +0.020 C 
ATOM      7  C   LIG    1       -3.310   0.490  -0.780  0.00  0.00    +0.020 C 
ATOM      8  C   LIG    1       -2.470   0.903   0.432  0.00  0.00    +0.270 C 
ATOM      9  O   LIG    1        0.138   0.365   0.949  0.00  0.00    -0.520 OA
ENDBRANCH   1   2
BRANCH   1  13
ATOM     10  N   LIG    1        4.656   0.346  -1.301  0.00  0.00    -0.520 NA
ATOM     11  C   LIG    1        3.497  -0.500  -0.985  0.00  0.00    +0.190 C 
ATOM     12  C   LIG    1        2.220   0.340  -1.061  0.00  0.00    +0.190 C 
ATOM     13  N   LIG    1        2.319   1.465  -0.120  0.00  0.00    -0.510 NA
ATOM     14  C   LIG    1        3.478   2.311  -0.436  0.00  0.00    +0.190 C 
ATOM     15  C   LIG    1        4.756   1.471  -0.360  0.00  0.00    +0.190 C 
BRANCH  10  16
ATOM     16  C   LIG    1        5.895  -0.442  -1.312  0.00  0.00    +0.210 C 
BRANCH  16  20
ATOM     17  N   LIG    1        6.833  -2.344  -2.584  0.00  0.00    -0.860 N 
ATOM     18  H   LIG    1        6.804  -2.982  -3.315  0.00  0.00    +0.400 HD
ATOM     19  H   LIG    1        7.570  -2.362  -1.954  0.00  0.00    +0.400 HD
ATOM     20  C   LIG    1        5.850  -1.433  -2.446  0.00  0.00    +0.520 C 
ATOM     21  O   LIG    1        4.929  -1.411  -3.235  0.00  0.00    -0.520 OA
ENDBRANCH  16  20
ENDBRANCH  10  16
ENDBRANCH   1  13
BRANCH   1  22
ATOM     22  C   LIG    1        1.219   3.395   0.865  0.00  0.00    -0.080 A 
ATOM     23  C   LIG    1        1.726   3.166   2.130  0.00  0.00    +0.050 A 
ATOM     24  C   LIG    1        1.859   4.214   3.022  0.00  0.00    +0.000 A 
ATOM     25  C   LIG    1        1.475   5.489   2.652  0.00  0.00    +0.010 A 
ATOM     26  C   LIG    1        0.963   5.717   1.388  0.00  0.00    +0.000 A 
ATOM     27  C   LIG    1        0.835   4.670   0.495  0.00  0.00    +0.010 A 
ENDBRANCH   1  22
TORSDOF 5
