REMARK  Name = ZINCpk00000ebADT.0
REMARK                            x       y       z     vdW  Elec       q    Type
REMARK                         _______ _______ _______ _____ _____    ______ ____
ROOT
ATOM      1  O   LIG    1       -5.555   2.927   1.896  0.00  0.00    -0.580 OA
ATOM      2  C   LIG    1       -4.867   3.368   0.996  0.00  0.00    +0.730 C 
ATOM      3  N   LIG    1       -5.429   3.695  -0.184  0.00  0.00    -0.630 N 
ATOM      4  C   LIG    1       -4.741   4.242  -1.358  0.00  0.00    +0.310 C 
ATOM      5  C   LIG    1       -5.771   4.447  -2.439  0.00  0.00    -0.110 A 
ATOM      6  C   LIG    1       -5.654   4.931  -3.731  0.00  0.00    +0.040 A 
ATOM      7  C   LIG    1       -6.771   5.029  -4.538  0.00  0.00    +0.020 A 
ATOM      8  C   LIG    1       -8.007   4.644  -4.056  0.00  0.00    +0.020 A 
ATOM      9  C   LIG    1       -8.125   4.160  -2.767  0.00  0.00    +0.040 A 
ATOM     10  C   LIG    1       -7.007   4.062  -1.957  0.00  0.00    -0.100 A 
ATOM     11  C   LIG    1       -6.847   3.579  -0.538  0.00  0.00    +0.330 C 
ATOM     12  N   LIG    1       -3.541   3.530   1.179  0.00  0.00    -0.730 N 
ATOM     13  H   LIG    1       -2.992   3.882   0.461  0.00  0.00    +0.400 HD
ENDROOT
BRANCH  12  14
ATOM     14  C   LIG    1       -2.930   3.174   2.462  0.00  0.00    +0.290 C 
BRANCH  14  15
ATOM     15  C   LIG    1       -1.411   3.331   2.364  0.00  0.00    +0.170 C 
BRANCH  15  16
ATOM     16  N   LIG    1       -0.907   2.525   1.244  0.00  0.00    -0.530 NA
ATOM     17  C   LIG    1        0.433   2.971   0.836  0.00  0.00    +0.150 C 
ATOM     18  C   LIG    1        0.895   2.145  -0.368  0.00  0.00    +0.220 C 
ATOM     19  O   LIG    1        0.866   0.757  -0.028  0.00  0.00    -0.380 OA
ATOM     20  C   LIG    1       -0.424   0.289   0.374  0.00  0.00    +0.220 C 
ATOM     21  C   LIG    1       -0.899   1.095   1.586  0.00  0.00    +0.150 C 
ENDBRANCH  15  16
BRANCH  15  22
ATOM     22  C   LIG    1       -0.764   2.856   3.667  0.00  0.00    -0.050 C 
ATOM     23  C   LIG    1       -1.274   3.684   4.871  0.00  0.00    +0.010 C 
ATOM     24  C   LIG    1       -0.014   3.918   5.728  0.00  0.00    +0.190 C 
ATOM     25  O   LIG    1        1.075   3.237   5.082  0.00  0.00    -0.380 OA
ATOM     26  C   LIG    1        0.754   3.168   3.676  0.00  0.00    +0.210 C 
ENDBRANCH  15  22
ENDBRANCH  14  15
ENDBRANCH  12  14
TORSDOF 4
