REMARK  Name = ZINCrH000004u4xR.0
REMARK                            x       y       z     vdW  Elec       q    Type
REMARK                         _______ _______ _______ _____ _____    ______ ____
ROOT
ATOM      1  C   LIG    1        4.649   0.667   1.359  0.00  0.00    +0.340 C 
ATOM      2  C   LIG    1        6.014   1.003   0.746  0.00  0.00    +0.020 C 
ATOM      3  C   LIG    1        7.127   0.455   1.644  0.00  0.00    +0.040 C 
ATOM      4  C   LIG    1        7.185   1.270   2.942  0.00  0.00    +0.110 C 
ATOM      5  C   LIG    1        5.791   1.356   3.512  0.00  0.00    +0.090 A 
ATOM      6  N   LIG    1        5.426   1.697   4.759  0.00  0.00    -0.360 N 
ATOM      7  N   LIG    1        4.027   1.633   4.829  0.00  0.00    -0.300 NA
ATOM      8  C   LIG    1        3.572   1.265   3.656  0.00  0.00    +0.260 A 
ATOM      9  C   LIG    1        4.662   1.085   2.808  0.00  0.00    -0.250 A 
ENDROOT
BRANCH   1  12
ATOM     10  O   LIG    1        2.065  -0.097   1.255  0.00  0.00    -0.580 OA
ATOM     11  C   LIG    1        2.331   0.926   0.654  0.00  0.00    +0.710 C 
ATOM     12  N   LIG    1        3.596   1.392   0.645  0.00  0.00    -0.740 N 
ATOM     13  H   LIG    1        3.808   2.208   0.165  0.00  0.00    +0.390 HD
ATOM     14  N   LIG    1        1.362   1.593  -0.002  0.00  0.00    -0.740 N 
ATOM     15  H   LIG    1        1.574   2.409  -0.482  0.00  0.00    +0.400 HD
BRANCH  14  16
ATOM     16  C   LIG    1       -0.013   1.086   0.008  0.00  0.00    +0.320 C 
BRANCH  16  17
ATOM     17  C   LIG    1       -0.729   1.579   1.267  0.00  0.00    -0.060 C 
ATOM     18  C   LIG    1       -0.010   2.621   2.126  0.00  0.00    +0.010 C 
ATOM     19  C   LIG    1       -0.138   1.177   2.619  0.00  0.00    +0.030 C 
ENDBRANCH  16  17
BRANCH  16  20
ATOM     20  C   LIG    1       -0.753   1.593  -1.232  0.00  0.00    -0.060 C 
ATOM     21  C   LIG    1       -1.482   0.558  -2.091  0.00  0.00    +0.030 C 
ATOM     22  C   LIG    1       -0.190   1.202  -2.599  0.00  0.00    +0.030 C 
ENDBRANCH  16  20
ENDBRANCH  14  16
ENDBRANCH   1  12
BRANCH   6  23
ATOM     23  C   LIG    1        6.329   2.069   5.851  0.00  0.00    +0.370 C 
BRANCH  23  24
ATOM     24  C   LIG    1        6.721   0.835   6.621  0.00  0.00    -0.120 A 
ATOM     25  C   LIG    1        5.964   0.426   7.703  0.00  0.00    +0.030 A 
ATOM     26  C   LIG    1        6.321  -0.709   8.407  0.00  0.00    +0.010 A 
ATOM     27  C   LIG    1        7.440  -1.430   8.035  0.00  0.00    +0.010 A 
ATOM     28  C   LIG    1        8.200  -1.018   6.956  0.00  0.00    +0.010 A 
ATOM     29  C   LIG    1        7.841   0.114   6.250  0.00  0.00    +0.020 A 
ENDBRANCH  23  24
ENDBRANCH   6  23
TORSDOF 6
