REMARK  Name = ZINCrg00001Jdv7a.0
REMARK                            x       y       z     vdW  Elec       q    Type
REMARK                         _______ _______ _______ _____ _____    ______ ____
ROOT
ATOM      1  C   LIG    1        5.656   0.251   2.411  0.00  0.00    +0.530 C 
ATOM      2  N   LIG    1        4.730   1.034   1.822  0.00  0.00    -0.720 N 
ATOM      3  H   LIG    1        4.005   1.407   2.347  0.00  0.00    +0.410 HD
ATOM      4  O   LIG    1        6.562  -0.215   1.754  0.00  0.00    -0.500 OA
ENDROOT
BRANCH   2   5
ATOM      5  C   LIG    1        4.819   1.321   0.388  0.00  0.00    +0.160 C 
ATOM      6  C   LIG    1        4.751   0.011  -0.407  0.00  0.00    +0.280 C 
ATOM      7  O   LIG    1        3.563  -0.685  -0.027  0.00  0.00    -0.300 OA
ATOM      8  C   LIG    1        2.396   0.009  -0.020  0.00  0.00    +0.130 A 
ATOM      9  C   LIG    1        1.200  -0.703  -0.010  0.00  0.00    -0.010 A 
ATOM     10  C   LIG    1       -0.006  -0.033   0.003  0.00  0.00    +0.050 A 
ATOM     11  C   LIG    1       -0.029   1.349   0.006  0.00  0.00    -0.020 A 
ATOM     12  C   LIG    1        1.156   2.059  -0.005  0.00  0.00    +0.050 A 
ATOM     13  C   LIG    1        2.370   1.393  -0.019  0.00  0.00    -0.160 A 
ATOM     14  C   LIG    1        3.642   2.202  -0.036  0.00  0.00    +0.140 C 
BRANCH   5  15
ATOM     15  C   LIG    1        6.116   2.029   0.091  0.00  0.00    +0.460 C 
ATOM     16  O   LIG    1        6.157   2.883  -0.762  0.00  0.00    -0.500 OA
BRANCH  15  17
ATOM     17  O   LIG    1        7.226   1.710   0.775  0.00  0.00    -0.320 OA
ATOM     18  C   LIG    1        8.440   2.432   0.436  0.00  0.00    +0.250 C 
ENDBRANCH  15  17
ENDBRANCH   5  15
ENDBRANCH   2   5
BRANCH   1  24
ATOM     19  C   LIG    1        3.202  -0.791   6.401  0.00  0.00    +0.550 C 
ATOM     20  N   LIG    1        4.224  -1.151   5.599  0.00  0.00    -0.610 N 
ATOM     21  C   LIG    1        5.343  -1.946   6.123  0.00  0.00    +0.260 C 
ATOM     22  C   LIG    1        6.654  -1.222   5.803  0.00  0.00    +0.010 C 
ATOM     23  C   LIG    1        6.728  -0.949   4.299  0.00  0.00    +0.060 C 
ATOM     24  C   LIG    1        5.564  -0.044   3.886  0.00  0.00    -0.020 C 
ATOM     25  C   LIG    1        4.240  -0.754   4.184  0.00  0.00    +0.300 C 
ATOM     26  O   LIG    1        2.330  -0.054   5.982  0.00  0.00    -0.540 OA
BRANCH  19  28
ATOM     27  C   LIG    1        2.084  -1.018   8.543  0.00  0.00    +0.140 C 
ATOM     28  C   LIG    1        3.141  -1.291   7.783  0.00  0.00    -0.090 C 
ENDBRANCH  19  28
ENDBRANCH   1  24
TORSDOF 5
