REMARK  Name = ZINCnE000005u944.1
REMARK                            x       y       z     vdW  Elec       q    Type
REMARK                         _______ _______ _______ _____ _____    ______ ____
ROOT
ATOM      1  N   LIG    1       -1.413  -1.998   0.005  0.00  0.00    -0.700 N 
ATOM      2  H   LIG    1       -0.567  -2.472  -0.006  0.00  0.00    +0.420 HD
ENDROOT
BRANCH   1   3
ATOM      3  C   LIG    1       -2.608  -2.710   0.012  0.00  0.00    +0.450 A 
ATOM      4  N   LIG    1       -3.760  -2.058   0.032  0.00  0.00    -0.520 NA
ATOM      5  C   LIG    1       -4.916  -2.695   0.035  0.00  0.00    +0.390 A 
ATOM      6  C   LIG    1       -4.965  -4.074   0.028  0.00  0.00    -0.310 A 
ATOM      7  C   LIG    1       -3.779  -4.797   0.012  0.00  0.00    +0.180 A 
ATOM      8  C   LIG    1       -2.582  -4.102   0.005  0.00  0.00    -0.160 A 
ATOM      9 CL   LIG    1       -1.070  -4.954  -0.014  0.00  0.00    -0.040 Cl
BRANCH   6  10
ATOM     10  C   LIG    1       -6.292  -4.789   0.037  0.00  0.00    +0.530 C 
ATOM     11  F   LIG    1       -6.167  -6.013  -0.630  0.00  0.00    -0.180 F 
ATOM     12  F   LIG    1       -7.250  -4.001  -0.609  0.00  0.00    -0.180 F 
ATOM     13  F   LIG    1       -6.689  -5.017   1.359  0.00  0.00    -0.180 F 
ENDBRANCH   6  10
ENDBRANCH   1   3
BRANCH   1  14
ATOM     14  C   LIG    1       -1.433  -0.534   0.013  0.00  0.00    +0.280 C 
BRANCH  14  15
ATOM     15  C   LIG    1        0.002  -0.004   0.002  0.00  0.00    +0.250 C 
BRANCH  15  18
ATOM     16  O   LIG    1        2.201   1.557  -0.011  0.00  0.00    -0.620 OA
ATOM     17  C   LIG    1        1.140   2.151   0.003  0.00  0.00    +0.660 C 
ATOM     18  N   LIG    1       -0.018   1.461   0.010  0.00  0.00    -0.740 N 
ATOM     19  H   LIG    1       -0.864   1.934   0.017  0.00  0.00    +0.390 HD
ATOM     20  N   LIG    1        1.122   3.498   0.010  0.00  0.00    -0.710 NA
BRANCH  20  21
ATOM     21  C   LIG    1        2.316   4.209   0.003  0.00  0.00    +0.360 A 
ATOM     22  N   LIG    1        3.498   3.676  -0.006  0.00  0.00    -0.570 NA
ATOM     23  C   LIG    1        4.526   4.504  -0.017  0.00  0.00    +0.230 A 
ATOM     24  C   LIG    1        4.198   5.797  -0.007  0.00  0.00    -0.220 A 
ATOM     25  S   LIG    1        2.440   5.915   0.011  0.00  0.00    +0.000 S 
ENDBRANCH  20  21
ENDBRANCH  15  18
ENDBRANCH  14  15
ENDBRANCH   1  14
TORSDOF 6
