REMARK  Name = ZINCb80000004Tbt.0
REMARK                            x       y       z     vdW  Elec       q    Type
REMARK                         _______ _______ _______ _____ _____    ______ ____
ROOT
ATOM      1  C   LIG    1       -1.234   1.750   0.018  0.00  0.00    +0.270 A 
ATOM      2  C   LIG    1       -0.013   1.076   0.008  0.00  0.00    -0.050 A 
ATOM      3  C   LIG    1        1.162   1.766   0.000  0.00  0.00    +0.170 A 
ATOM      4  C   LIG    1        1.153   3.168   0.008  0.00  0.00    -0.060 A 
ATOM      5  N   LIG    1        2.133   4.094   0.004  0.00  0.00    -0.190 NA
ATOM      6  N   LIG    1        1.629   5.277   0.015  0.00  0.00    -0.000 NA
ATOM      7  N   LIG    1        0.230   5.189   0.028  0.00  0.00    -0.280 N 
ATOM      8  C   LIG    1       -0.077   3.849   0.024  0.00  0.00    +0.150 A 
ATOM      9  C   LIG    1       -1.268   3.133   0.031  0.00  0.00    -0.100 A 
ENDROOT
BRANCH   1  10
ATOM     10  N   LIG    1       -2.429   1.025   0.019  0.00  0.00    -0.860 N 
ATOM     11  H   LIG    1       -3.279   1.491   0.026  0.00  0.00    +0.400 HD
ATOM     12  H   LIG    1       -2.407   0.055   0.014  0.00  0.00    +0.410 HD
ENDBRANCH   1  10
BRANCH   7  13
ATOM     13  O   LIG    1       -0.687   6.269   0.043  0.00  0.00    -0.260 OA
ATOM     14  H   LIG    1       -0.950   6.574  -0.837  0.00  0.00    +0.390 HD
ENDBRANCH   7  13
TORSDOF 2
