REMARK  Name = ZINCtV000002z5RR.0
REMARK                            x       y       z     vdW  Elec       q    Type
REMARK                         _______ _______ _______ _____ _____    ______ ____
ROOT
ATOM      1  C   LIG    1        0.081  -0.111   0.214  0.00  0.00    +0.300 C 
ATOM      2  C   LIG    1        0.451  -0.698   1.577  0.00  0.00    +0.040 C 
ENDROOT
BRANCH   1   3
ATOM      3  C   LIG    1        1.184  -0.396  -0.772  0.00  0.00    -0.080 A 
ATOM      4  C   LIG    1        2.167   0.547  -1.002  0.00  0.00    +0.030 A 
ATOM      5  C   LIG    1        3.181   0.285  -1.907  0.00  0.00    +0.080 A 
ATOM      6  C   LIG    1        3.212  -0.922  -2.584  0.00  0.00    +0.030 A 
ATOM      7  C   LIG    1        2.230  -1.867  -2.357  0.00  0.00    -0.020 A 
ATOM      8  F   LIG    1        4.142   1.209  -2.131  0.00  0.00    -0.140 F 
ATOM      9  C   LIG    1        1.216  -1.608  -1.447  0.00  0.00    +0.120 A 
BRANCH   9  10
ATOM     10  O   LIG    1        0.252  -2.539  -1.218  0.00  0.00    -0.250 OA
BRANCH  10  11
ATOM     11  C   LIG    1        0.328  -3.715  -1.896  0.00  0.00    +0.080 A 
ATOM     12  C   LIG    1       -0.300  -3.850  -3.126  0.00  0.00    +0.030 A 
ATOM     13  C   LIG    1       -0.219  -5.044  -3.815  0.00  0.00    +0.040 A 
ATOM     14  C   LIG    1        0.481  -6.109  -3.275  0.00  0.00    -0.030 A 
ATOM     15  C   LIG    1        1.104  -5.978  -2.046  0.00  0.00    +0.040 A 
ATOM     16 CL   LIG    1        0.576  -7.611  -4.139  0.00  0.00    -0.060 Cl
ATOM     17  C   LIG    1        1.029  -4.784  -1.356  0.00  0.00    +0.030 A 
ENDBRANCH  10  11
ENDBRANCH   9  10
ENDBRANCH   1   3
BRANCH   1  18
ATOM     18  N   LIG    1       -0.100   1.338   0.339  0.00  0.00    -0.740 N 
ATOM     19  H   LIG    1        0.636   1.937   0.139  0.00  0.00    +0.400 HD
BRANCH  18  26
ATOM     20  N   LIG    1       -3.201   5.008   1.467  0.00  0.00    -0.410 N 
ATOM     21  N   LIG    1       -4.538   4.935   1.872  0.00  0.00    -0.270 NA
ATOM     22  C   LIG    1       -4.921   3.692   1.929  0.00  0.00    +0.270 A 
ATOM     23  C   LIG    1       -3.789   2.857   1.542  0.00  0.00    -0.230 A 
ATOM     24  C   LIG    1       -3.600   1.476   1.417  0.00  0.00    +0.140 A 
ATOM     25  C   LIG    1       -2.390   0.988   1.023  0.00  0.00    -0.090 A 
ATOM     26  C   LIG    1       -1.333   1.856   0.742  0.00  0.00    +0.270 A 
ATOM     27  C   LIG    1       -1.496   3.224   0.864  0.00  0.00    -0.120 A 
ATOM     28  C   LIG    1       -2.726   3.738   1.260  0.00  0.00    +0.180 A 
BRANCH  20  30
ATOM     29  C   LIG    1       -1.742   6.605   2.607  0.00  0.00    +0.020 C 
ATOM     30  C   LIG    1       -2.432   6.242   1.290  0.00  0.00    +0.320 C 
ENDBRANCH  20  30
ENDBRANCH  18  26
ENDBRANCH   1  18
TORSDOF 6
