REMARK  Name = ZINCrH000004sYx8.0
REMARK                            x       y       z     vdW  Elec       q    Type
REMARK                         _______ _______ _______ _____ _____    ______ ____
ROOT
ATOM      1  C   LIG    1        5.368   8.626   0.455  0.00  0.00    +0.540 C 
ATOM      2  N   LIG    1        6.533   9.120  -0.009  0.00  0.00    -0.560 N 
ATOM      3  O   LIG    1        4.566   9.363   0.989  0.00  0.00    -0.500 OA
ENDROOT
BRANCH   2   4
ATOM      4  C   LIG    1        6.776  10.498   0.036  0.00  0.00    +0.120 A 
ATOM      5  C   LIG    1        6.040  11.360  -0.768  0.00  0.00    +0.060 A 
ATOM      6  C   LIG    1        6.278  12.720  -0.719  0.00  0.00    +0.000 A 
ATOM      7  C   LIG    1        7.256  13.223   0.123  0.00  0.00    +0.110 A 
ATOM      8  C   LIG    1        7.994  12.365   0.921  0.00  0.00    +0.000 A 
ATOM      9  F   LIG    1        7.491  14.553   0.165  0.00  0.00    -0.140 F 
ATOM     10  C   LIG    1        7.756  11.005   0.879  0.00  0.00    +0.060 A 
ENDBRANCH   2   4
BRANCH   1  11
ATOM     11  C   LIG    1        5.061   7.158   0.308  0.00  0.00    +0.110 C 
BRANCH  11  12
ATOM     12  S   LIG    1        3.435   6.807   1.023  0.00  0.00    +0.090 S 
BRANCH  12  15
ATOM     13  C   LIG    1        1.047   4.628   1.722  0.00  0.00    +0.360 C 
ATOM     14  N   LIG    1        2.295   4.252   1.053  0.00  0.00    -0.460 N 
ATOM     15  C   LIG    1        3.336   5.074   0.722  0.00  0.00    +0.140 A 
ATOM     16  N   LIG    1        4.247   4.332   0.134  0.00  0.00    -0.290 NA
ATOM     17  N   LIG    1        3.853   3.110   0.077  0.00  0.00    -0.260 NA
ATOM     18  C   LIG    1        2.665   2.995   0.628  0.00  0.00    +0.260 A 
BRANCH  18  19
ATOM     19  C   LIG    1        1.877   1.759   0.760  0.00  0.00    -0.140 A 
ATOM     20  C   LIG    1        2.357   0.507   0.598  0.00  0.00    +0.080 A 
ATOM     21  C   LIG    1        1.425  -0.494   0.772  0.00  0.00    +0.010 A 
ATOM     22  C   LIG    1        0.192  -0.074   1.073  0.00  0.00    -0.030 A 
ATOM     23  S   LIG    1        0.164   1.683   1.151  0.00  0.00    +0.130 S 
ENDBRANCH  18  19
ENDBRANCH  12  15
ENDBRANCH  11  12
ENDBRANCH   1  11
BRANCH   2  24
ATOM     24  C   LIG    1        7.545   8.215  -0.558  0.00  0.00    +0.310 C 
BRANCH  24  25
ATOM     25  C   LIG    1        7.315   8.045  -2.061  0.00  0.00    +0.180 C 
BRANCH  25  26
ATOM     26  C   LIG    1        8.332   7.136  -2.614  0.00  0.00    +0.200 C 
ATOM     27  N   LIG    1        9.117   6.434  -3.040  0.00  0.00    -0.410 NA
ENDBRANCH  25  26
ENDBRANCH  24  25
ENDBRANCH   2  24
TORSDOF 8
