REMARK  Name = ZINCrD0000074MsL.0
REMARK                            x       y       z     vdW  Elec       q    Type
REMARK                         _______ _______ _______ _____ _____    ______ ____
ROOT
ATOM      1  C   LIG    1       -3.561   6.044   0.742  0.00  0.00    +0.250 C 
ENDROOT
BRANCH   1   8
ATOM      2  C   LIG    1        2.434   1.007  -0.479  0.00  0.00    +0.110 C 
ATOM      3  C   LIG    1        1.162   1.773  -0.220  0.00  0.00    -0.070 A 
ATOM      4  C   LIG    1        1.187   3.133  -0.225  0.00  0.00    -0.060 A 
ATOM      5  C   LIG    1        0.004   3.853   0.016  0.00  0.00    +0.150 A 
ATOM      6  N   LIG    1       -0.002   5.190   0.017  0.00  0.00    -0.460 NA
ATOM      7  C   LIG    1       -1.103   5.867   0.242  0.00  0.00    +0.230 A 
ATOM      8  C   LIG    1       -2.319   5.229   0.489  0.00  0.00    -0.120 A 
ATOM      9  C   LIG    1       -2.381   3.865   0.502  0.00  0.00    +0.110 A 
ATOM     10 CL   LIG    1       -1.047   7.602   0.230  0.00  0.00    -0.010 Cl
ATOM     11  C   LIG    1       -1.197   3.143   0.261  0.00  0.00    -0.100 A 
ATOM     12  C   LIG    1       -1.187   1.738   0.253  0.00  0.00    +0.030 A 
ATOM     13  C   LIG    1        2.478   3.865  -0.487  0.00  0.00    +0.110 C 
ATOM     14  C   LIG    1       -0.020   1.076   0.021  0.00  0.00    +0.030 A 
ENDBRANCH   1   8
BRANCH   1  15
ATOM     15  N   LIG    1       -3.508   6.610   2.096  0.00  0.00    -0.530 NA
ATOM     16  C   LIG    1       -3.563   5.551   3.112  0.00  0.00    +0.170 C 
ATOM     17  C   LIG    1       -3.324   6.163   4.497  0.00  0.00    +0.270 C 
ATOM     18  N   LIG    1       -4.280   7.263   4.693  0.00  0.00    -0.610 N 
ATOM     19  C   LIG    1       -4.380   8.293   3.647  0.00  0.00    +0.300 C 
ATOM     20  C   LIG    1       -5.045   7.327   5.801  0.00  0.00    +0.520 C 
ATOM     21  O   LIG    1       -5.827   8.242   5.946  0.00  0.00    -0.520 OA
ATOM     22  C   LIG    1       -4.578   7.597   2.296  0.00  0.00    +0.170 C 
BRANCH  20  23
ATOM     23  C   LIG    1       -4.926   6.261   6.860  0.00  0.00    +0.160 C 
ATOM     24  C   LIG    1       -5.387   4.896   6.303  0.00  0.00    +0.020 C 
ATOM     25  C   LIG    1       -6.113   4.231   7.494  0.00  0.00    +0.010 C 
ATOM     26  C   LIG    1       -6.005   5.273   8.629  0.00  0.00    +0.210 C 
ATOM     27  O   LIG    1       -5.828   6.537   7.954  0.00  0.00    -0.340 OA
ENDBRANCH  20  23
ENDBRANCH   1  15
TORSDOF 3
