REMARK  Name = ZINCrD000000AyW3.0
REMARK                            x       y       z     vdW  Elec       q    Type
REMARK                         _______ _______ _______ _____ _____    ______ ____
ROOT
ATOM      1  N   LIG    1       -1.845   9.598  -0.401  0.00  0.00    -0.520 N 
ATOM      2  H   LIG    1       -2.801   9.746  -0.474  0.00  0.00    +0.430 HD
ATOM      3  C   LIG    1       -1.366   8.345  -0.270  0.00  0.00    +0.560 C 
ATOM      4  O   LIG    1       -0.167   8.158  -0.179  0.00  0.00    -0.510 OA
ENDROOT
BRANCH   3   5
ATOM      5  C   LIG    1       -2.294   7.200  -0.238  0.00  0.00    -0.180 A 
ATOM      6  C   LIG    1       -3.675   7.400  -0.343  0.00  0.00    +0.120 A 
ATOM      7  C   LIG    1       -4.504   6.292  -0.307  0.00  0.00    -0.040 A 
ATOM      8  C   LIG    1       -3.951   5.031  -0.171  0.00  0.00    +0.320 A 
ATOM      9  N   LIG    1       -2.647   4.863  -0.079  0.00  0.00    -0.480 NA
ATOM     10  C   LIG    1       -1.808   5.888  -0.102  0.00  0.00    +0.150 A 
BRANCH  10  11
ATOM     11  S   LIG    1       -0.074   5.604   0.032  0.00  0.00    +0.140 S 
BRANCH  11  12
ATOM     12  C   LIG    1       -0.050   3.843   0.017  0.00  0.00    -0.170 A 
ATOM     13  C   LIG    1       -0.048   3.156  -1.191  0.00  0.00    +0.060 A 
ATOM     14  C   LIG    1       -0.028   1.776  -1.199  0.00  0.00    +0.000 A 
ATOM     15  C   LIG    1       -0.011   1.076  -0.006  0.00  0.00    +0.040 A 
ATOM     16  C   LIG    1       -0.018   1.756   1.198  0.00  0.00    +0.000 A 
ATOM     17  C   LIG    1       -0.032   3.136   1.214  0.00  0.00    +0.070 A 
ENDBRANCH  11  12
ENDBRANCH  10  11
ENDBRANCH   3   5
BRANCH   1  20
ATOM     18  O   LIG    1       -2.637  12.124  -0.654  0.00  0.00    -0.530 OA
ATOM     19  C   LIG    1       -1.442  11.938  -0.563  0.00  0.00    +0.520 C 
ATOM     20  N   LIG    1       -0.963  10.685  -0.432  0.00  0.00    -0.520 N 
ATOM     21  H   LIG    1       -0.007  10.537  -0.359  0.00  0.00    +0.430 HD
BRANCH  19  22
ATOM     22  C   LIG    1       -0.493  13.108  -0.596  0.00  0.00    +0.130 C 
BRANCH  22  23
ATOM     23  C   LIG    1       -1.276  14.386  -0.748  0.00  0.00    -0.080 A 
ATOM     24  C   LIG    1       -1.554  14.880  -2.009  0.00  0.00    +0.060 A 
ATOM     25  C   LIG    1       -2.278  16.049  -2.150  0.00  0.00    -0.010 A 
ATOM     26  C   LIG    1       -2.714  16.732  -1.028  0.00  0.00    +0.100 A 
ATOM     27  C   LIG    1       -2.430  16.240   0.235  0.00  0.00    -0.010 A 
ATOM     28  F   LIG    1       -3.416  17.879  -1.164  0.00  0.00    -0.140 F 
ATOM     29  C   LIG    1       -1.711  15.068   0.373  0.00  0.00    +0.060 A 
ENDBRANCH  22  23
ENDBRANCH  19  22
ENDBRANCH   1  20
TORSDOF 6
