REMARK  Name = ZINCpe000000T5GL.0
REMARK                            x       y       z     vdW  Elec       q    Type
REMARK                         _______ _______ _______ _____ _____    ______ ____
ROOT
ATOM      1  N   LIG    1       -2.524   8.063  -0.622  0.00  0.00    -0.540 NA
ATOM      2  C   LIG    1       -3.751   7.269  -0.763  0.00  0.00    +0.190 C 
ATOM      3  C   LIG    1       -3.754   6.149   0.283  0.00  0.00    +0.300 C 
ATOM      4  N   LIG    1       -2.502   5.388   0.156  0.00  0.00    -0.610 N 
ATOM      5  C   LIG    1       -1.232   6.130   0.156  0.00  0.00    +0.280 C 
ATOM      6  C   LIG    1       -2.517   4.044   0.047  0.00  0.00    +0.560 C 
ATOM      7  O   LIG    1       -3.575   3.454  -0.041  0.00  0.00    -0.520 OA
ATOM      8  C   LIG    1       -1.329   7.251  -0.891  0.00  0.00    +0.180 C 
ENDROOT
BRANCH   6   9
ATOM      9  C   LIG    1       -1.241   3.286   0.035  0.00  0.00    -0.020 A 
ATOM     10  C   LIG    1       -0.525   3.097   1.202  0.00  0.00    -0.050 A 
ATOM     11  C   LIG    1        0.686   2.376   1.153  0.00  0.00    +0.510 A 
ATOM     12  N   LIG    1        1.124   1.874  -0.017  0.00  0.00    -0.500 N 
ATOM     13  C   LIG    1        0.422   2.053  -1.164  0.00  0.00    +0.310 A 
ATOM     14  C   LIG    1        2.381   1.122  -0.051  0.00  0.00    +0.330 C 
ATOM     15  O   LIG    1        1.334   2.203   2.172  0.00  0.00    -0.540 OA
ATOM     16  C   LIG    1       -0.742   2.742  -1.168  0.00  0.00    -0.060 A 
ENDBRANCH   6   9
BRANCH   1  17
ATOM     17  C   LIG    1       -2.561   9.248  -1.490  0.00  0.00    +0.360 C 
BRANCH  17  21
ATOM     18  C   LIG    1        0.469  11.124  -1.059  0.00  0.00    +0.180 A 
ATOM     19  N   LIG    1       -0.338  11.687  -0.211  0.00  0.00    -0.380 NA
ATOM     20  O   LIG    1       -1.426  11.152  -0.248  0.00  0.00    +0.090 OA
ATOM     21  C   LIG    1       -1.413  10.160  -1.144  0.00  0.00    +0.190 A 
ATOM     22  N   LIG    1       -0.211  10.137  -1.669  0.00  0.00    -0.480 NA
BRANCH  18  24
ATOM     23  C   LIG    1        1.968  12.960  -1.788  0.00  0.00    +0.040 C 
ATOM     24  C   LIG    1        1.905  11.507  -1.313  0.00  0.00    +0.100 C 
ATOM     25  C   LIG    1        2.709  11.358  -0.021  0.00  0.00    +0.040 C 
ENDBRANCH  18  24
ENDBRANCH  17  21
ENDBRANCH   1  17
TORSDOF 4
