REMARK  Name = ZINCpk00000eakgU.0
REMARK                            x       y       z     vdW  Elec       q    Type
REMARK                         _______ _______ _______ _____ _____    ______ ____
ROOT
ATOM      1  C   LIG    1        3.078   6.745  -0.175  0.00  0.00    +0.170 C 
ATOM      2  C   LIG    1        2.356   7.861  -0.975  0.00  0.00    +0.080 C 
ATOM      3  C   LIG    1        0.877   7.426  -0.918  0.00  0.00    +0.340 C 
ATOM      4  N   LIG    1        0.857   5.981  -0.649  0.00  0.00    -0.580 N 
ATOM      5  C   LIG    1       -0.248   5.223  -0.505  0.00  0.00    +0.590 C 
ATOM      6  O   LIG    1       -1.349   5.731  -0.596  0.00  0.00    -0.520 OA
ATOM      7  C   LIG    1        2.247   5.498  -0.558  0.00  0.00    +0.290 C 
ENDROOT
BRANCH   3   8
ATOM      8  C   LIG    1        0.207   7.712  -2.237  0.00  0.00    +0.150 A 
ATOM      9  N   LIG    1        0.369   7.037  -3.349  0.00  0.00    -0.230 NA
ATOM     10  N   LIG    1       -0.351   7.547  -4.287  0.00  0.00    -0.250 NA
ATOM     11  C   LIG    1       -1.015   8.585  -3.813  0.00  0.00    +0.130 A 
ATOM     12  C   LIG    1       -1.930   9.504  -4.363  0.00  0.00    +0.410 A 
ATOM     13  N   LIG    1       -2.441  10.443  -3.603  0.00  0.00    -0.450 NA
ATOM     14  C   LIG    1       -2.103  10.557  -2.316  0.00  0.00    +0.240 A 
ATOM     15  C   LIG    1       -1.227   9.705  -1.741  0.00  0.00    +0.200 A 
ATOM     16  N   LIG    1       -0.671   8.703  -2.486  0.00  0.00    -0.370 N 
ENDBRANCH   3   8
BRANCH   5  17
ATOM     17  C   LIG    1       -0.122   3.772  -0.236  0.00  0.00    +0.080 A 
ATOM     18  N   LIG    1        1.076   3.201  -0.255  0.00  0.00    -0.450 NA
ATOM     19  C   LIG    1        1.231   1.916  -0.021  0.00  0.00    +0.250 A 
ATOM     20  C   LIG    1        0.142   1.106   0.255  0.00  0.00    +0.000 A 
ATOM     21  C   LIG    1       -1.129   1.660   0.278  0.00  0.00    +0.050 A 
ATOM     22  C   LIG    1       -1.262   3.018   0.034  0.00  0.00    -0.070 A 
ATOM     23  C   LIG    1       -2.621   3.668   0.055  0.00  0.00    +0.120 C 
ENDBRANCH   5  17
BRANCH   1  25
ATOM     24  C   LIG    1        4.117   6.485   1.969  0.00  0.00    +0.210 C 
ATOM     25  O   LIG    1        3.004   6.992   1.231  0.00  0.00    -0.380 OA
ENDBRANCH   1  25
TORSDOF 3
