REMARK  Name = ZINCqH0000038hQc.0
REMARK                            x       y       z     vdW  Elec       q    Type
REMARK                         _______ _______ _______ _____ _____    ______ ____
ROOT
ATOM      1  N   LIG    1       -0.011   0.966   0.007  0.00  0.00    -0.650 N 
ATOM      2  H   LIG    1       -0.035  -0.004  -0.012  0.00  0.00    +0.420 HD
ATOM      3  C   LIG    1        1.172   1.611   0.008  0.00  0.00    +0.520 C 
ATOM      4  O   LIG    1        1.203   2.821  -0.073  0.00  0.00    -0.510 OA
ENDROOT
BRANCH   1   9
ATOM      5  C   LIG    1       -3.462  -2.043  -2.015  0.00  0.00    +0.130 C 
ATOM      6  C   LIG    1       -3.506  -0.644  -1.455  0.00  0.00    +0.160 A 
ATOM      7  N   LIG    1       -2.405  -0.111  -0.984  0.00  0.00    -0.480 NA
ATOM      8  C   LIG    1       -2.393   1.125  -0.477  0.00  0.00    +0.120 A 
ATOM      9  C   LIG    1       -1.204   1.693   0.029  0.00  0.00    +0.170 A 
ATOM     10  C   LIG    1       -1.229   2.969   0.549  0.00  0.00    +0.030 A 
ATOM     11  C   LIG    1       -2.409   3.706   0.571  0.00  0.00    +0.040 A 
ATOM     12  C   LIG    1       -3.571   3.184   0.090  0.00  0.00    +0.010 A 
ATOM     13  C   LIG    1       -3.587   1.885  -0.443  0.00  0.00    -0.090 A 
ATOM     14  C   LIG    1       -4.772   1.316  -0.948  0.00  0.00    +0.090 A 
ATOM     15  C   LIG    1       -4.715   0.048  -1.451  0.00  0.00    -0.030 A 
ENDBRANCH   1   9
BRANCH   3  16
ATOM     16  C   LIG    1        2.457   0.830   0.108  0.00  0.00    +0.000 C 
ATOM     17  C   LIG    1        3.682   1.782   0.089  0.00  0.00    +0.080 C 
ATOM     18  C   LIG    1        4.787   0.856  -0.478  0.00  0.00    +0.270 C 
ATOM     19  N   LIG    1        4.102   0.024  -1.484  0.00  0.00    -0.610 N 
ATOM     20  C   LIG    1        4.691  -0.584  -2.533  0.00  0.00    +0.670 C 
ATOM     21  O   LIG    1        4.025  -1.248  -3.303  0.00  0.00    -0.560 OA
ATOM     22  C   LIG    1        2.671  -0.034  -1.153  0.00  0.00    +0.300 C 
BRANCH  20  23
ATOM     23  O   LIG    1        6.016  -0.454  -2.729  0.00  0.00    -0.360 OA
BRANCH  23  24
ATOM     24  C   LIG    1        6.582  -1.135  -3.880  0.00  0.00    +0.140 C 
ATOM     25  C   LIG    1        6.330  -2.640  -3.756  0.00  0.00    +0.040 C 
ATOM     26  C   LIG    1        8.089  -0.874  -3.937  0.00  0.00    +0.080 C 
ATOM     27  C   LIG    1        5.925  -0.611  -5.158  0.00  0.00    +0.040 C 
ENDBRANCH  23  24
ENDBRANCH  20  23
ENDBRANCH   3  16
TORSDOF 4
