REMARK  Name = ZINCrg00001JduZc.0
REMARK                            x       y       z     vdW  Elec       q    Type
REMARK                         _______ _______ _______ _____ _____    ______ ____
ROOT
ATOM      1  C   LIG    1        3.553  -1.141   0.728  0.00  0.00    +0.250 C 
ATOM      2  C   LIG    1        3.530  -1.658  -0.712  0.00  0.00    +0.300 C 
ATOM      3  N   LIG    1        2.340  -2.501  -0.891  0.00  0.00    -0.600 N 
ATOM      4  C   LIG    1        1.020  -1.940  -0.572  0.00  0.00    +0.240 C 
ATOM      5  C   LIG    1        1.043  -1.425   0.873  0.00  0.00    +0.290 C 
ATOM      6  C   LIG    1        0.709  -0.784  -1.524  0.00  0.00    +0.040 C 
ATOM      7  C   LIG    1        2.458  -3.766  -1.341  0.00  0.00    +0.570 C 
ATOM      8  O   LIG    1        1.462  -4.412  -1.604  0.00  0.00    -0.510 OA
ATOM      9  N   LIG    1        2.233  -0.582   1.052  0.00  0.00    -0.600 N 
ATOM     10  C   LIG    1        2.115   0.683   1.501  0.00  0.00    +0.570 C 
ATOM     11  O   LIG    1        3.093   1.403   1.552  0.00  0.00    -0.500 OA
ENDROOT
BRANCH   7  12
ATOM     12  C   LIG    1        3.797  -4.368  -1.515  0.00  0.00    -0.190 A 
ATOM     13  C   LIG    1        4.808  -3.671  -2.187  0.00  0.00    +0.090 A 
ATOM     14  C   LIG    1        6.044  -4.279  -2.322  0.00  0.00    -0.020 A 
ATOM     15  C   LIG    1        6.239  -5.542  -1.794  0.00  0.00    +0.280 A 
ATOM     16  N   LIG    1        5.267  -6.175  -1.165  0.00  0.00    -0.480 NA
ATOM     17  C   LIG    1        4.076  -5.637  -1.006  0.00  0.00    +0.330 A 
ENDBRANCH   7  12
BRANCH  10  18
ATOM     18  C   LIG    1        0.797   1.195   1.933  0.00  0.00    -0.180 A 
ATOM     19  C   LIG    1        0.377   2.479   1.565  0.00  0.00    +0.120 A 
ATOM     20  C   LIG    1       -0.865   2.911   1.995  0.00  0.00    -0.020 A 
ATOM     21  C   LIG    1       -1.645   2.069   2.768  0.00  0.00    +0.290 A 
ATOM     22  N   LIG    1       -1.224   0.861   3.095  0.00  0.00    -0.480 NA
ATOM     23  C   LIG    1       -0.049   0.407   2.715  0.00  0.00    +0.290 A 
ENDBRANCH  10  18
BRANCH   1  24
ATOM     24  C   LIG    1        4.603  -0.069   0.862  0.00  0.00    +0.480 C 
ATOM     25  O   LIG    1        4.684   0.805   0.031  0.00  0.00    -0.490 OA
BRANCH  24  27
ATOM     26  C   LIG    1        6.434   0.980   1.969  0.00  0.00    +0.270 C 
ATOM     27  O   LIG    1        5.449  -0.084   1.904  0.00  0.00    -0.360 OA
ENDBRANCH  24  27
ENDBRANCH   1  24
TORSDOF 4
