REMARK  Name = ZINCrg000000tSc8.0
REMARK                            x       y       z     vdW  Elec       q    Type
REMARK                         _______ _______ _______ _____ _____    ______ ____
ROOT
ATOM      1  C   LIG    1       -0.054   4.159   0.024  0.00  0.00    -0.170 A 
ATOM      2  C   LIG    1        1.153   3.486   0.009  0.00  0.00    +0.070 A 
ATOM      3  C   LIG    1        1.176   2.105   0.002  0.00  0.00    -0.050 A 
ATOM      4  C   LIG    1       -0.017   1.393   0.010  0.00  0.00    +0.210 A 
ATOM      5  C   LIG    1       -1.228   2.072   0.019  0.00  0.00    -0.050 A 
ATOM      6  C   LIG    1       -1.243   3.453   0.031  0.00  0.00    +0.050 A 
ENDROOT
BRANCH   1  10
ATOM      7  O   LIG    1       -2.053   5.642   2.971  0.00  0.00    -0.490 OA
ATOM      8  C   LIG    1       -1.759   5.924   1.829  0.00  0.00    +0.520 C 
ATOM      9  C   LIG    1       -0.318   6.165   1.458  0.00  0.00    +0.100 C 
ATOM     10  C   LIG    1       -0.075   5.666   0.032  0.00  0.00    +0.310 C 
ATOM     11  N   LIG    1       -1.147   6.144  -0.843  0.00  0.00    -0.720 N 
ATOM     12  H   LIG    1       -0.943   6.391  -1.759  0.00  0.00    +0.430 HD
ATOM     13  C   LIG    1       -2.409   6.244  -0.397  0.00  0.00    +0.710 C 
ATOM     14  O   LIG    1       -3.292   6.544  -1.176  0.00  0.00    -0.550 OA
ATOM     15  N   LIG    1       -2.720   6.021   0.891  0.00  0.00    -0.680 N 
ATOM     16  H   LIG    1       -3.650   5.927   1.149  0.00  0.00    +0.430 HD
ENDBRANCH   1  10
BRANCH   4  17
ATOM     17  N   LIG    1        0.002  -0.004   0.002  0.00  0.00    -0.730 N 
ATOM     18  H   LIG    1        0.849  -0.478  -0.009  0.00  0.00    +0.410 HD
BRANCH  17  19
ATOM     19  C   LIG    1       -1.256  -0.754   0.010  0.00  0.00    +0.270 C 
ATOM     20  C   LIG    1       -1.048  -2.171  -0.560  0.00  0.00    +0.110 C 
ATOM     21  C   LIG    1       -1.413  -3.075   0.602  0.00  0.00    +0.530 C 
ATOM     22  N   LIG    1       -1.770  -2.322   1.650  0.00  0.00    -0.580 N 
ATOM     23  O   LIG    1       -1.387  -4.287   0.584  0.00  0.00    -0.460 OA
ATOM     24  C   LIG    1       -1.719  -1.003   1.429  0.00  0.00    +0.500 C 
ATOM     25  O   LIG    1       -1.999  -0.144   2.237  0.00  0.00    -0.440 OA
BRANCH  22  26
ATOM     26  C   LIG    1       -2.182  -2.896   2.934  0.00  0.00    +0.340 C 
BRANCH  26  27
ATOM     27  C   LIG    1       -3.696  -3.118   2.930  0.00  0.00    +0.440 C 
ATOM     28  F   LIG    1       -4.346  -1.895   2.735  0.00  0.00    -0.170 F 
ATOM     29  F   LIG    1       -4.090  -3.666   4.156  0.00  0.00    -0.170 F 
ATOM     30  F   LIG    1       -4.035  -3.997   1.896  0.00  0.00    -0.170 F 
ENDBRANCH  26  27
ENDBRANCH  22  26
ENDBRANCH  17  19
ENDBRANCH   4  17
TORSDOF 5
