REMARK  Name = ZINCpk00000eaumR.0
REMARK                            x       y       z     vdW  Elec       q    Type
REMARK                         _______ _______ _______ _____ _____    ______ ____
ROOT
ATOM      1  N   LIG    1        0.403  -4.080  -1.511  0.00  0.00    -0.740 N 
ATOM      2  H   LIG    1        0.739  -3.971  -2.415  0.00  0.00    +0.400 HD
ATOM      3  C   LIG    1        0.531  -3.076  -0.620  0.00  0.00    +0.710 C 
ATOM      4  N   LIG    1        1.125  -1.923  -0.985  0.00  0.00    -0.730 N 
ATOM      5  H   LIG    1        1.461  -1.815  -1.889  0.00  0.00    +0.400 HD
ATOM      6  O   LIG    1        0.110  -3.212   0.512  0.00  0.00    -0.560 OA
ENDROOT
BRANCH   1  12
ATOM      7  C   LIG    1       -1.986 -10.041  -1.415  0.00  0.00    +0.160 A 
ATOM      8  C   LIG    1       -2.472  -9.410  -2.551  0.00  0.00    -0.110 A 
ATOM      9  C   LIG    1       -2.087  -8.116  -2.838  0.00  0.00    +0.090 A 
ATOM     10  C   LIG    1       -1.218  -7.441  -1.998  0.00  0.00    -0.190 A 
ATOM     11  C   LIG    1       -0.820  -6.029  -2.349  0.00  0.00    +0.090 C 
ATOM     12  C   LIG    1       -0.243  -5.333  -1.115  0.00  0.00    +0.240 C 
ATOM     13  C   LIG    1        0.792  -6.268  -0.474  0.00  0.00    +0.230 C 
ATOM     14  O   LIG    1        0.115  -7.435  -0.006  0.00  0.00    -0.300 OA
ATOM     15  C   LIG    1       -0.732  -8.065  -0.861  0.00  0.00    +0.170 A 
ATOM     16  C   LIG    1       -1.117  -9.368  -0.572  0.00  0.00    -0.040 A 
BRANCH   7  18
ATOM     17  C   LIG    1       -3.261 -11.947  -2.044  0.00  0.00    +0.250 C 
ATOM     18  O   LIG    1       -2.362 -11.316  -1.130  0.00  0.00    -0.310 OA
ENDBRANCH   7  18
ENDBRANCH   1  12
BRANCH   4  19
ATOM     19  C   LIG    1        1.264  -0.832  -0.017  0.00  0.00    +0.370 C 
ATOM     20  C   LIG    1        2.429   0.079  -0.426  0.00  0.00    +0.050 C 
ATOM     21  C   LIG    1        2.386   1.360   0.412  0.00  0.00    +0.060 C 
ATOM     22  C   LIG    1        1.170   2.199   0.003  0.00  0.00    +0.310 C 
ATOM     23  N   LIG    1       -0.016   1.343   0.009  0.00  0.00    -0.380 N 
ATOM     24  N   LIG    1       -1.360   1.724   0.030  0.00  0.00    -0.310 NA
ATOM     25  C   LIG    1       -2.063   0.619   0.026  0.00  0.00    +0.410 A 
ATOM     26  N   LIG    1       -1.231  -0.425   0.013  0.00  0.00    -0.510 NA
ATOM     27  C   LIG    1        0.002  -0.004   0.002  0.00  0.00    +0.250 A 
ENDBRANCH   4  19
TORSDOF 3
