REMARK  Name = ZINCpe000000Z50A.0
REMARK                            x       y       z     vdW  Elec       q    Type
REMARK                         _______ _______ _______ _____ _____    ______ ____
ROOT
ATOM      1  C   LIG    1        1.100   3.246  -0.415  0.00  0.00    -0.010 C 
ATOM      2  C   LIG    1        1.300   1.788   0.005  0.00  0.00    +0.090 C 
ATOM      3  C   LIG    1       -0.017   1.069   0.019  0.00  0.00    -0.030 C 
ATOM      4  C   LIG    1       -1.168   1.662   0.026  0.00  0.00    -0.040 C 
ATOM      5  C   LIG    1       -1.346   3.152   0.023  0.00  0.00    +0.090 C 
ATOM      6  C   LIG    1       -0.039   3.841   0.423  0.00  0.00    +0.010 C 
ENDROOT
BRANCH   6   7
ATOM      7  C   LIG    1       -0.144   5.320   0.157  0.00  0.00    +0.520 C 
ATOM      8  N   LIG    1        0.629   6.185   0.842  0.00  0.00    -0.620 N 
ATOM      9  C   LIG    1        1.658   5.704   1.778  0.00  0.00    +0.250 C 
ATOM     10  C   LIG    1        2.981   6.411   1.441  0.00  0.00    +0.220 C 
ATOM     11  O   LIG    1        2.762   7.824   1.410  0.00  0.00    -0.380 OA
ATOM     12  C   LIG    1        1.843   8.252   0.403  0.00  0.00    +0.220 C 
ATOM     13  C   LIG    1        0.466   7.639   0.682  0.00  0.00    +0.250 C 
ATOM     14  O   LIG    1       -0.925   5.733  -0.674  0.00  0.00    -0.520 OA
ENDBRANCH   6   7
BRANCH   1  16
ATOM     15  O   LIG    1        0.212   2.353  -2.411  0.00  0.00    -0.520 OA
ATOM     16  C   LIG    1        0.738   3.306  -1.877  0.00  0.00    +0.520 C 
ATOM     17  N   LIG    1        0.998   4.420  -2.590  0.00  0.00    -0.720 N 
ATOM     18  H   LIG    1        1.418   5.182  -2.163  0.00  0.00    +0.400 HD
BRANCH  17  19
ATOM     19  C   LIG    1        0.646   4.478  -4.011  0.00  0.00    +0.270 C 
BRANCH  19  20
ATOM     20  C   LIG    1        1.045   5.841  -4.580  0.00  0.00    +0.020 C 
BRANCH  20  21
ATOM     21  C   LIG    1        0.678   5.902  -6.064  0.00  0.00    +0.330 C 
BRANCH  21  22
ATOM     22  N   LIG    1        1.060   7.208  -6.608  0.00  0.00    -0.370 N 
ATOM     23  C   LIG    1        1.860   7.420  -7.674  0.00  0.00    +0.220 A 
ATOM     24  C   LIG    1        1.961   8.757  -7.854  0.00  0.00    -0.120 A 
ATOM     25  C   LIG    1        1.206   9.384  -6.857  0.00  0.00    +0.220 A 
ATOM     26  N   LIG    1        0.665   8.456  -6.110  0.00  0.00    -0.290 NA
ENDBRANCH  21  22
ENDBRANCH  20  21
ENDBRANCH  19  20
ENDBRANCH  17  19
ENDBRANCH   1  16
TORSDOF 6
