REMARK  Name = ZINCvU000000091I.0
REMARK                            x       y       z     vdW  Elec       q    Type
REMARK                         _______ _______ _______ _____ _____    ______ ____
ROOT
ATOM      1  C   LIG    1       -9.236  -2.179   0.284  0.00  0.00    +0.170 A 
ATOM      2  N   LIG    1       -7.945  -2.340   0.213  0.00  0.00    -0.280 NA
ATOM      3  N   LIG    1       -7.349  -1.224   0.440  0.00  0.00    -0.290 NA
ATOM      4  C   LIG    1       -8.236  -0.285   0.678  0.00  0.00    +0.150 A 
ATOM      5  N   LIG    1       -9.468  -0.865   0.583  0.00  0.00    -0.450 N 
ENDROOT
BRANCH   1   6
ATOM      6  C   LIG    1      -10.281  -3.245   0.075  0.00  0.00    +0.270 C 
BRANCH   6   7
ATOM      7  N   LIG    1       -9.958  -4.018  -1.132  0.00  0.00    -0.510 NA
ATOM      8  C   LIG    1       -8.688  -4.740  -0.970  0.00  0.00    +0.210 C 
ATOM      9  C   LIG    1       -9.924  -3.152  -2.318  0.00  0.00    +0.190 C 
ENDBRANCH   6   7
BRANCH   6  11
ATOM     10  C   LIG    1      -11.430  -5.204   1.117  0.00  0.00    +0.040 C 
ATOM     11  C   LIG    1      -10.307  -4.179   1.287  0.00  0.00    +0.030 C 
ENDBRANCH   6  11
ENDBRANCH   1   6
BRANCH   4  12
ATOM     12  S   LIG    1       -7.899   1.405   1.044  0.00  0.00    +0.060 S 
BRANCH  12  13
ATOM     13  C   LIG    1       -6.090   1.384   0.991  0.00  0.00    +0.110 C 
BRANCH  13  14
ATOM     14  C   LIG    1       -5.563   2.765   1.283  0.00  0.00    +0.450 C 
ATOM     15  O   LIG    1       -6.335   3.675   1.506  0.00  0.00    -0.420 OA
BRANCH  14  16
ATOM     16  C   LIG    1       -4.165   3.002   1.298  0.00  0.00    -0.070 A 
ATOM     17  C   LIG    1       -3.573   4.200   1.559  0.00  0.00    +0.090 A 
ATOM     18  C   LIG    1       -2.173   3.995   1.470  0.00  0.00    -0.150 A 
ATOM     19  C   LIG    1       -1.061   4.830   1.619  0.00  0.00    +0.080 A 
ATOM     20  C   LIG    1        0.196   4.319   1.467  0.00  0.00    +0.000 A 
ATOM     21  C   LIG    1        0.379   2.977   1.164  0.00  0.00    +0.070 A 
ATOM     22  C   LIG    1       -0.703   2.136   1.012  0.00  0.00    +0.020 A 
ATOM     23  C   LIG    1       -1.992   2.634   1.158  0.00  0.00    +0.080 A 
ATOM     24  O   LIG    1       -3.213   2.071   1.066  0.00  0.00    -0.170 OA
ENDBRANCH  14  16
ENDBRANCH  13  14
ENDBRANCH  12  13
ENDBRANCH   4  12
BRANCH   5  25
ATOM     25  C   LIG    1      -10.768  -0.215   0.762  0.00  0.00    +0.360 C 
BRANCH  25  26
ATOM     26  C   LIG    1      -11.251   0.317  -0.562  0.00  0.00    -0.120 A 
ATOM     27  C   LIG    1      -10.927   1.604  -0.950  0.00  0.00    +0.040 A 
ATOM     28  C   LIG    1      -11.366   2.090  -2.167  0.00  0.00    +0.010 A 
ATOM     29  C   LIG    1      -12.138   1.293  -2.992  0.00  0.00    +0.030 A 
ATOM     30  C   LIG    1      -12.467   0.009  -2.602  0.00  0.00    +0.010 A 
ATOM     31  C   LIG    1      -12.024  -0.479  -1.387  0.00  0.00    +0.020 A 
ENDBRANCH  25  26
ENDBRANCH   5  25
TORSDOF 9
