REMARK  Name = ZINCqH0000032eEe.0
REMARK                            x       y       z     vdW  Elec       q    Type
REMARK                         _______ _______ _______ _____ _____    ______ ____
ROOT
ATOM      1  C   LIG    1       -0.014   1.209   0.009  0.00  0.00    +0.520 C 
ATOM      2  N   LIG    1        1.143   1.898   0.001  0.00  0.00    -0.730 N 
ATOM      3  H   LIG    1        1.130   2.868   0.007  0.00  0.00    +0.400 HD
ATOM      4  O   LIG    1        0.002  -0.004   0.002  0.00  0.00    -0.520 OA
ENDROOT
BRANCH   2   5
ATOM      5  C   LIG    1        2.422   1.183  -0.015  0.00  0.00    +0.280 C 
ATOM      6  C   LIG    1        2.819   0.817   1.417  0.00  0.00    +0.040 C 
BRANCH   5   7
ATOM      7  C   LIG    1        3.483   2.065  -0.621  0.00  0.00    -0.040 A 
ATOM      8  C   LIG    1        3.511   3.415  -0.325  0.00  0.00    -0.010 A 
ATOM      9  C   LIG    1        4.487   4.223  -0.878  0.00  0.00    +0.130 A 
ATOM     10  C   LIG    1        5.430   3.683  -1.733  0.00  0.00    -0.660 A 
ATOM     11  C   LIG    1        5.399   2.334  -2.032  0.00  0.00    +0.130 A 
ATOM     12  C   LIG    1        4.425   1.525  -1.476  0.00  0.00    +0.010 A 
BRANCH  10  13
ATOM     13  S   LIG    1        6.670   4.714  -2.442  0.00  0.00    +2.500 S 
ATOM     14  O   LIG    1        7.751   3.830  -2.708  0.00  0.00    -0.940 OA
ATOM     15  O   LIG    1        6.809   5.782  -1.515  0.00  0.00    -0.940 OA
ATOM     16  C   LIG    1        5.936   5.306  -3.991  0.00  0.00    -0.260 C 
ENDBRANCH  10  13
ENDBRANCH   5   7
ENDBRANCH   2   5
BRANCH   1  17
ATOM     17  C   LIG    1       -1.330   1.944   0.019  0.00  0.00    +0.100 C 
BRANCH  17  21
ATOM     18  C   LIG    1       -4.539  -0.875   0.019  0.00  0.00    -0.080 A 
ATOM     19  C   LIG    1       -4.014  -0.425   1.216  0.00  0.00    +0.010 A 
ATOM     20  C   LIG    1       -2.975   0.487   1.216  0.00  0.00    +0.020 A 
ATOM     21  C   LIG    1       -2.462   0.950   0.019  0.00  0.00    -0.070 A 
ATOM     22  C   LIG    1       -2.990   0.504  -1.178  0.00  0.00    +0.020 A 
ATOM     23  C   LIG    1       -4.025  -0.412  -1.178  0.00  0.00    +0.000 A 
BRANCH  18  24
ATOM     24  C   LIG    1       -5.671  -1.870   0.019  0.00  0.00    +0.060 C 
BRANCH  24  26
ATOM     25  C   LIG    1       -8.153  -2.128  -0.097  0.00  0.00    +0.020 C 
ATOM     26  C   LIG    1       -7.006  -1.123   0.029  0.00  0.00    -0.020 C 
ATOM     27  C   LIG    1       -7.147  -0.349   1.341  0.00  0.00    +0.010 C 
ENDBRANCH  24  26
ENDBRANCH  18  24
ENDBRANCH  17  21
ENDBRANCH   1  17
TORSDOF 7
