REMARK  Name = ZINCrH000004lCXl.0
REMARK                            x       y       z     vdW  Elec       q    Type
REMARK                         _______ _______ _______ _____ _____    ______ ____
ROOT
ATOM      1  C   LIG    1        0.933   1.443  -4.300  0.00  0.00    +0.170 A 
ATOM      2  N   LIG    1        1.483   2.469  -3.722  0.00  0.00    -0.360 NA
ATOM      3  O   LIG    1        0.977   2.661  -2.636  0.00  0.00    +0.100 OA
ATOM      4  C   LIG    1        0.027   1.748  -2.412  0.00  0.00    +0.200 A 
ATOM      5  N   LIG    1       -0.005   0.965  -3.463  0.00  0.00    -0.480 NA
ENDROOT
BRANCH   4   6
ATOM      6  C   LIG    1       -0.837   1.636  -1.182  0.00  0.00    +0.270 C 
ATOM      7  C   LIG    1       -0.013   1.086   0.008  0.00  0.00    +0.060 C 
ATOM      8  C   LIG    1       -0.815   1.624   1.222  0.00  0.00    +0.020 C 
ATOM      9  C   LIG    1       -1.304   3.004   0.731  0.00  0.00    +0.200 C 
ATOM     10  N   LIG    1       -1.287   2.974  -0.743  0.00  0.00    -0.520 NA
BRANCH  10  11
ATOM     11  C   LIG    1       -2.614   3.289  -1.291  0.00  0.00    +0.240 C 
BRANCH  11  12
ATOM     12  C   LIG    1       -3.145   4.537  -0.634  0.00  0.00    -0.100 A 
ATOM     13  C   LIG    1       -3.904   4.442   0.518  0.00  0.00    +0.050 A 
ATOM     14  C   LIG    1       -4.386   5.586   1.124  0.00  0.00    -0.010 A 
ATOM     15  C   LIG    1       -4.119   6.827   0.572  0.00  0.00    +0.100 A 
ATOM     16  C   LIG    1       -3.364   6.921  -0.585  0.00  0.00    -0.010 A 
ATOM     17  F   LIG    1       -4.595   7.946   1.160  0.00  0.00    -0.140 F 
ATOM     18  C   LIG    1       -2.878   5.776  -1.187  0.00  0.00    +0.070 A 
ENDBRANCH  11  12
ENDBRANCH  10  11
ENDBRANCH   4   6
BRANCH   1  19
ATOM     19  C   LIG    1        1.286   0.888  -5.656  0.00  0.00    +0.270 C 
BRANCH  19  22
ATOM     20  C   LIG    1        4.361  -0.877  -4.840  0.00  0.00    +0.040 A 
ATOM     21  N   LIG    1        3.514   0.093  -4.907  0.00  0.00    -0.440 NA
ATOM     22  C   LIG    1        2.366  -0.152  -5.507  0.00  0.00    +0.070 A 
ATOM     23  C   LIG    1        2.237  -1.399  -5.969  0.00  0.00    -0.060 A 
ATOM     24  S   LIG    1        3.719  -2.274  -5.589  0.00  0.00    +0.160 S 
BRANCH  20  25
ATOM     25  C   LIG    1        5.721  -0.792  -4.196  0.00  0.00    +0.300 C 
BRANCH  25  27
ATOM     26  C   LIG    1        6.858  -1.103  -2.108  0.00  0.00    +0.220 C 
ATOM     27  O   LIG    1        5.617  -1.151  -2.816  0.00  0.00    -0.380 OA
ENDBRANCH  25  27
ENDBRANCH  20  25
ENDBRANCH  19  22
ENDBRANCH   1  19
TORSDOF 7
