REMARK  Name = ZINCqH0000008Dd4.0
REMARK                            x       y       z     vdW  Elec       q    Type
REMARK                         _______ _______ _______ _____ _____    ______ ____
ROOT
ATOM      1  C   LIG    1        2.750   1.687  -4.008  0.00  0.00    +0.030 C 
ATOM      2  C   LIG    1        2.759   1.811  -2.483  0.00  0.00    -0.010 C 
ATOM      3  C   LIG    1        3.725   0.781  -1.894  0.00  0.00    +0.020 C 
ATOM      4  C   LIG    1        3.757   0.931  -0.370  0.00  0.00    +0.260 C 
ATOM      5  N   LIG    1        2.384   0.833   0.144  0.00  0.00    -0.600 N 
ATOM      6  C   LIG    1        1.354   1.716  -0.420  0.00  0.00    +0.220 C 
ATOM      7  C   LIG    1        2.075  -0.051   1.114  0.00  0.00    +0.580 C 
ATOM      8  O   LIG    1        0.914  -0.210   1.444  0.00  0.00    -0.480 OA
ATOM      9  C   LIG    1        1.348   1.561  -1.944  0.00  0.00    +0.040 C 
ENDROOT
BRANCH   6  10
ATOM     10  C   LIG    1        0.004   1.335   0.132  0.00  0.00    +0.530 C 
ATOM     11  O   LIG    1       -0.424   0.213  -0.035  0.00  0.00    -0.500 OA
ATOM     12  N   LIG    1       -0.729   2.243   0.805  0.00  0.00    -0.860 N 
ATOM     13  H   LIG    1       -0.386   3.141   0.939  0.00  0.00    +0.400 HD
ATOM     14  H   LIG    1       -1.599   1.999   1.157  0.00  0.00    +0.400 HD
ENDBRANCH   6  10
BRANCH   7  15
ATOM     15  C   LIG    1        3.137  -0.820   1.770  0.00  0.00    -0.230 A 
ATOM     16  C   LIG    1        2.996  -2.081   2.279  0.00  0.00    +0.100 A 
ATOM     17  C   LIG    1        4.128  -2.601   2.843  0.00  0.00    +0.080 A 
ATOM     18  C   LIG    1        5.214  -1.771   2.816  0.00  0.00    -0.150 A 
ATOM     19  S   LIG    1        4.783  -0.258   2.030  0.00  0.00    +0.210 S 
BRANCH  18  20
ATOM     20  C   LIG    1        6.542  -2.094   3.361  0.00  0.00    +0.180 A 
ATOM     21  N   LIG    1        6.851  -3.206   3.943  0.00  0.00    -0.450 NA
ATOM     22  C   LIG    1        8.104  -3.357   4.386  0.00  0.00    +0.090 A 
ATOM     23  C   LIG    1        8.683  -4.466   5.042  0.00  0.00    +0.080 A 
ATOM     24  C   LIG    1        9.987  -4.439   5.429  0.00  0.00    +0.030 A 
ATOM     25  C   LIG    1       10.776  -3.323   5.187  0.00  0.00    +0.050 A 
ATOM     26  C   LIG    1       10.241  -2.225   4.550  0.00  0.00    +0.060 A 
ATOM     27  C   LIG    1        8.908  -2.235   4.146  0.00  0.00    -0.170 A 
ATOM     28  S   LIG    1        7.934  -1.020   3.322  0.00  0.00    +0.070 S 
ENDBRANCH  18  20
ENDBRANCH   7  15
TORSDOF 3
