REMARK  Name = ZINCrH000004srKd.1
REMARK                            x       y       z     vdW  Elec       q    Type
REMARK                         _______ _______ _______ _____ _____    ______ ____
ROOT
ATOM      1  C   LIG    1       -0.090   1.141   0.280  0.00  0.00    +0.520 C 
ATOM      2  N   LIG    1        1.045   1.865   0.206  0.00  0.00    -0.610 N 
ATOM      3  C   LIG    1        1.007   3.334   0.257  0.00  0.00    +0.280 C 
ATOM      4  C   LIG    1        2.003   3.805   1.329  0.00  0.00    +0.170 C 
ATOM      5  N   LIG    1        3.324   3.227   1.050  0.00  0.00    -0.530 NA
ATOM      6  C   LIG    1        3.295   1.761   1.140  0.00  0.00    +0.170 C 
ATOM      7  C   LIG    1        2.353   1.206   0.066  0.00  0.00    +0.300 C 
ATOM      8  O   LIG    1       -0.041  -0.070   0.232  0.00  0.00    -0.540 OA
ENDROOT
BRANCH   1   9
ATOM      9  C   LIG    1       -1.419   1.836   0.418  0.00  0.00    +0.060 C 
BRANCH   9  10
ATOM     10  C   LIG    1       -2.537   0.793   0.473  0.00  0.00    +0.210 C 
BRANCH  10  15
ATOM     11  C   LIG    1       -6.867   3.045  -0.660  0.00  0.00    +0.160 C 
ATOM     12  C   LIG    1       -5.728   2.455   0.132  0.00  0.00    -0.020 A 
ATOM     13  C   LIG    1       -5.632   2.414   1.471  0.00  0.00    -0.050 A 
ATOM     14  O   LIG    1       -4.467   1.803   1.766  0.00  0.00    -0.200 OA
ATOM     15  C   LIG    1       -3.867   1.488   0.611  0.00  0.00    +0.190 A 
ATOM     16  C   LIG    1       -6.639   2.946   2.458  0.00  0.00    +0.180 C 
ATOM     17  N   LIG    1       -4.625   1.877  -0.375  0.00  0.00    -0.470 NA
ENDBRANCH  10  15
ENDBRANCH   9  10
ENDBRANCH   1   9
BRANCH   5  18
ATOM     18  C   LIG    1        4.344   3.789   1.946  0.00  0.00    +0.180 C 
BRANCH  18  19
ATOM     19  C   LIG    1        5.704   3.284   1.539  0.00  0.00    -0.080 A 
ATOM     20  C   LIG    1        6.026   3.169   0.199  0.00  0.00    +0.040 A 
ATOM     21  C   LIG    1        7.275   2.711  -0.174  0.00  0.00    -0.010 A 
ATOM     22  C   LIG    1        8.199   2.357   0.791  0.00  0.00    +0.000 A 
ATOM     23  C   LIG    1        7.875   2.466   2.131  0.00  0.00    +0.000 A 
ATOM     24  C   LIG    1        6.628   2.930   2.504  0.00  0.00    +0.010 A 
ENDBRANCH  18  19
BRANCH  18  25
ATOM     25  C   LIG    1        4.318   5.316   1.855  0.00  0.00    -0.020 C 
ATOM     26  C   LIG    1        4.572   5.744   0.408  0.00  0.00    +0.030 C 
ATOM     27  C   LIG    1        5.407   5.899   2.758  0.00  0.00    +0.020 C 
ENDBRANCH  18  25
ENDBRANCH   5  18
TORSDOF 6
