REMARK  Name = ZINCtj00000vTumx.0
REMARK                            x       y       z     vdW  Elec       q    Type
REMARK                         _______ _______ _______ _____ _____    ______ ____
ROOT
ATOM      1  O   LIG    1        2.515   5.550   1.962  0.00  0.00    -0.510 OA
ATOM      2  C   LIG    1        2.339   5.577   0.763  0.00  0.00    +0.520 C 
ATOM      3  N   LIG    1        1.794   4.514   0.138  0.00  0.00    -0.720 N 
ATOM      4  H   LIG    1        1.653   4.535  -0.821  0.00  0.00    +0.400 HD
ENDROOT
BRANCH   3   5
ATOM      5  C   LIG    1        1.414   3.327   0.908  0.00  0.00    +0.260 C 
ATOM      6  C   LIG    1        1.419   2.085  -0.000  0.00  0.00    +0.050 C 
ATOM      7  C   LIG    1       -0.019   1.526   0.010  0.00  0.00    -0.020 C 
ATOM      8  C   LIG    1       -0.621   2.052   1.337  0.00  0.00    +0.020 C 
ATOM      9  C   LIG    1       -0.026   3.479   1.440  0.00  0.00    +0.150 C 
BRANCH   9  10
ATOM     10  O   LIG    1       -0.014   3.921   2.798  0.00  0.00    -0.550 OA
ATOM     11  H   LIG    1       -0.894   4.034   3.183  0.00  0.00    +0.380 HD
ENDBRANCH   9  10
BRANCH   7  12
ATOM     12  C   LIG    1        0.002  -0.004   0.002  0.00  0.00    +0.310 C 
BRANCH  12  13
ATOM     13  N   LIG    1       -1.368  -0.510  -0.108  0.00  0.00    -0.460 N 
ATOM     14  C   LIG    1       -2.042  -0.784  -1.267  0.00  0.00    +0.110 A 
ATOM     15  C   LIG    1       -3.264  -1.226  -0.913  0.00  0.00    +0.140 A 
ATOM     16  N   LIG    1       -3.334  -1.222   0.427  0.00  0.00    -0.490 NA
ATOM     17  C   LIG    1       -2.200  -0.800   0.916  0.00  0.00    +0.380 A 
ENDBRANCH  12  13
ENDBRANCH   7  12
ENDBRANCH   3   5
BRANCH   2  18
ATOM     18  C   LIG    1        2.729   6.798  -0.029  0.00  0.00    +0.070 C 
BRANCH  18  19
ATOM     19  C   LIG    1        3.319   7.849   0.912  0.00  0.00    +0.290 C 
BRANCH  19  20
ATOM     20  N   LIG    1        3.700   9.040   0.140  0.00  0.00    -0.390 N 
ATOM     21  C   LIG    1        4.785   8.695  -0.788  0.00  0.00    +0.270 C 
ATOM     22  C   LIG    1        5.169   9.930  -1.606  0.00  0.00    +0.230 C 
ATOM     23  N   LIG    1        5.600  11.001  -0.697  0.00  0.00    -0.490 N 
ATOM     24  C   LIG    1        4.532  11.340   0.254  0.00  0.00    +0.220 C 
ATOM     25  C   LIG    1        4.154  10.094   1.057  0.00  0.00    +0.280 C 
ATOM     26  H   LIG    1        2.903   9.370  -0.383  0.00  0.00    +0.420 HD
BRANCH  23  27
ATOM     27  C   LIG    1        6.011  12.129  -1.412  0.00  0.00    +0.080 A 
ATOM     28  C   LIG    1        5.411  13.359  -1.175  0.00  0.00    -0.030 A 
ATOM     29  C   LIG    1        5.822  14.473  -1.880  0.00  0.00    +0.040 A 
ATOM     30  C   LIG    1        6.823  14.363  -2.828  0.00  0.00    +0.000 A 
ATOM     31  C   LIG    1        7.418  13.138  -3.070  0.00  0.00    +0.040 A 
ATOM     32  C   LIG    1        7.015  12.021  -2.365  0.00  0.00    +0.000 A 
ENDBRANCH  23  27
ENDBRANCH  19  20
ENDBRANCH  18  19
ENDBRANCH   2  18
TORSDOF 8
