REMARK  Name = ZINCrD00000F5Lnq.0
REMARK                            x       y       z     vdW  Elec       q    Type
REMARK                         _______ _______ _______ _____ _____    ______ ____
ROOT
ATOM      1  C   LIG    1       -3.392   2.987  -0.680  0.00  0.00    +0.460 A 
ATOM      2  N   LIG    1       -2.490   3.677  -0.073  0.00  0.00    -0.620 NA
ATOM      3  C   LIG    1       -1.248   3.157   0.011  0.00  0.00    +0.170 A 
ATOM      4  C   LIG    1       -0.101   3.708   0.621  0.00  0.00    +0.030 A 
ATOM      5  C   LIG    1        1.091   3.030   0.603  0.00  0.00    +0.010 A 
ATOM      6  C   LIG    1        1.187   1.782  -0.008  0.00  0.00    +0.070 A 
ATOM      7  C   LIG    1        0.072   1.223  -0.607  0.00  0.00    +0.090 A 
ATOM      8  C   LIG    1       -1.141   1.904  -0.601  0.00  0.00    -0.210 A 
ATOM      9  S   LIG    1       -2.716   1.473  -1.264  0.00  0.00    -0.010 S 
ENDROOT
BRANCH   6  10
ATOM     10  N   LIG    1        2.408   1.095  -0.015  0.00  0.00    -0.650 N 
ATOM     11  H   LIG    1        3.240   1.587  -0.088  0.00  0.00    +0.410 HD
ATOM     12  C   LIG    1        2.425  -0.249   0.079  0.00  0.00    +0.510 C 
ATOM     13  O   LIG    1        1.383  -0.870   0.086  0.00  0.00    -0.530 OA
BRANCH  12  14
ATOM     14  C   LIG    1        3.739  -0.981   0.176  0.00  0.00    +0.070 C 
BRANCH  14  15
ATOM     15  C   LIG    1        3.478  -2.486   0.272  0.00  0.00    +0.150 C 
BRANCH  15  16
ATOM     16  S   LIG    1        5.060  -3.366   0.389  0.00  0.00    -0.130 S 
BRANCH  16  17
ATOM     17  S   LIG    1        5.730  -2.865   2.260  0.00  0.00    -0.080 S 
BRANCH  17  18
ATOM     18  C   LIG    1        4.908  -4.079   3.328  0.00  0.00    +0.090 C 
BRANCH  18  19
ATOM     19  C   LIG    1        5.510  -5.464   3.082  0.00  0.00    +0.270 C 
BRANCH  19  20
ATOM     20  N   LIG    1        4.845  -6.448   3.947  0.00  0.00    -0.390 N 
ATOM     21  C   LIG    1        5.502  -7.753   3.800  0.00  0.00    +0.320 C 
ATOM     22  C   LIG    1        3.433  -6.564   3.559  0.00  0.00    +0.310 C 
ATOM     23  H   LIG    1        4.906  -6.147   4.908  0.00  0.00    +0.430 HD
ENDBRANCH  19  20
ENDBRANCH  18  19
ENDBRANCH  17  18
ENDBRANCH  16  17
ENDBRANCH  15  16
ENDBRANCH  14  15
ENDBRANCH  12  14
ENDBRANCH   6  10
BRANCH   1  24
ATOM     24  N   LIG    1       -4.705   3.380  -0.848  0.00  0.00    -1.050 NA
BRANCH  24  25
ATOM     25  S   LIG    1       -5.217   4.836  -0.248  0.00  0.00    +2.560 S 
ATOM     26  O   LIG    1       -4.468   5.799  -0.977  0.00  0.00    -1.000 OA
ATOM     27  O   LIG    1       -5.069   4.706   1.160  0.00  0.00    -1.000 OA
BRANCH  25  29
ATOM     28  C   LIG    1       -7.566   6.236  -0.192  0.00  0.00    +0.070 C 
ATOM     29  C   LIG    1       -6.972   4.920  -0.698  0.00  0.00    -0.370 C 
ENDBRANCH  25  29
ENDBRANCH  24  25
ENDBRANCH   1  24
TORSDOF 11
