REMARK  Name = ZINCnE000001MXsu.0
REMARK                            x       y       z     vdW  Elec       q    Type
REMARK                         _______ _______ _______ _____ _____    ______ ____
ROOT
ATOM      1  C   LIG    1        0.002  -0.004   0.002  0.00  0.00    +0.510 A 
ATOM      2  N   LIG    1       -0.016   1.321   0.009  0.00  0.00    -0.490 NA
ATOM      3  C   LIG    1        1.110   2.018   0.002  0.00  0.00    +0.330 A 
ATOM      4  C   LIG    1        2.320   1.348  -0.013  0.00  0.00    -0.080 A 
ATOM      5  C   LIG    1        2.308  -0.050  -0.020  0.00  0.00    +0.220 A 
ATOM      6  N   LIG    1        1.138  -0.684  -0.013  0.00  0.00    -0.530 NA
ENDROOT
BRANCH   1  10
ATOM      7  C   LIG    1       -3.019  -2.768  -2.595  0.00  0.00    +0.020 C 
ATOM      8  C   LIG    1       -2.805  -2.022  -1.276  0.00  0.00    +0.010 C 
ATOM      9  C   LIG    1       -1.411  -1.392  -1.265  0.00  0.00    +0.190 C 
ATOM     10  N   LIG    1       -1.197  -0.695   0.009  0.00  0.00    -0.470 N 
ATOM     11  C   LIG    1       -1.261  -1.627   1.142  0.00  0.00    +0.180 C 
ATOM     12  C   LIG    1       -2.651  -2.264   1.203  0.00  0.00    +0.050 C 
ATOM     13  C   LIG    1       -2.925  -3.005  -0.108  0.00  0.00    -0.090 C 
BRANCH  13  14
ATOM     14  C   LIG    1       -4.316  -3.584  -0.078  0.00  0.00    +0.500 C 
ATOM     15  O   LIG    1       -4.734  -4.217  -1.033  0.00  0.00    -0.690 OA
ATOM     16  O   LIG    1       -5.024  -3.420   0.901  0.00  0.00    -0.700 OA
ENDBRANCH  13  14
ENDBRANCH   1  10
BRANCH   5  17
ATOM     17  C   LIG    1        3.579  -0.814  -0.036  0.00  0.00    -0.040 A 
ATOM     18  C   LIG    1        4.799  -0.140  -0.050  0.00  0.00    +0.050 A 
ATOM     19  C   LIG    1        5.979  -0.856  -0.060  0.00  0.00    +0.040 A 
ATOM     20  C   LIG    1        5.951  -2.240  -0.066  0.00  0.00    -0.080 A 
ATOM     21  C   LIG    1        4.742  -2.913  -0.058  0.00  0.00    +0.040 A 
ATOM     22 BR   LIG    1        7.572  -3.214  -0.088  0.00  0.00    -0.050 Br
ATOM     23  C   LIG    1        3.557  -2.207  -0.043  0.00  0.00    +0.080 A 
ENDBRANCH   5  17
TORSDOF 3
