REMARK  Name = ZINCrD00000hQ4Fd.1
REMARK                            x       y       z     vdW  Elec       q    Type
REMARK                         _______ _______ _______ _____ _____    ______ ____
ROOT
ATOM      1  C   LIG    1        4.448  -5.246  -0.952  0.00  0.00    -0.170 A 
ATOM      2  C   LIG    1        3.228  -5.549  -0.344  0.00  0.00    +0.090 A 
ATOM      3  C   LIG    1        2.138  -4.721  -0.523  0.00  0.00    +0.000 A 
ATOM      4  C   LIG    1        2.240  -3.586  -1.303  0.00  0.00    +0.080 A 
ATOM      5  C   LIG    1        3.451  -3.264  -1.921  0.00  0.00    -0.170 A 
ATOM      6  C   LIG    1        4.562  -4.100  -1.750  0.00  0.00    +0.220 A 
ENDROOT
BRANCH   1  13
ATOM      7  C   LIG    1        7.816 -10.131   0.502  0.00  0.00    +0.090 C 
ATOM      8  C   LIG    1        6.619  -9.178   0.496  0.00  0.00    +0.020 C 
ATOM      9  S   LIG    1        5.076 -10.137   0.550  0.00  0.00    -0.250 S 
ATOM     10  C   LIG    1        3.811  -8.845   0.365  0.00  0.00    +0.100 C 
ATOM     11  C   LIG    1        4.110  -8.040  -0.904  0.00  0.00    +0.290 C 
ATOM     12  N   LIG    1        5.456  -7.471  -0.815  0.00  0.00    -0.610 N 
ATOM     13  C   LIG    1        5.612  -6.133  -0.760  0.00  0.00    +0.570 C 
ATOM     14  O   LIG    1        6.711  -5.657  -0.551  0.00  0.00    -0.510 OA
ATOM     15  C   LIG    1        6.634  -8.338  -0.792  0.00  0.00    +0.240 C 
ATOM     16  C   LIG    1        7.900  -7.480  -0.831  0.00  0.00    +0.060 C 
ENDBRANCH   1  13
BRANCH   5  17
ATOM     17  C   LIG    1        3.557  -2.052  -2.754  0.00  0.00    +0.570 C 
ATOM     18  N   LIG    1        2.551  -1.715  -3.586  0.00  0.00    -0.610 N 
ATOM     19  C   LIG    1        1.362  -2.564  -3.664  0.00  0.00    +0.290 C 
ATOM     20  C   LIG    1        0.145  -1.790  -3.146  0.00  0.00    +0.100 C 
ATOM     21  S   LIG    1       -0.045  -0.273  -4.129  0.00  0.00    -0.240 S 
ATOM     22  C   LIG    1        1.590   0.503  -3.965  0.00  0.00    +0.020 C 
ATOM     23  C   LIG    1        1.660   1.744  -4.857  0.00  0.00    +0.090 C 
ATOM     24  C   LIG    1        2.660  -0.504  -4.401  0.00  0.00    +0.240 C 
ATOM     25  C   LIG    1        4.048   0.113  -4.214  0.00  0.00    +0.070 C 
ATOM     26  O   LIG    1        4.553  -1.356  -2.691  0.00  0.00    -0.510 OA
ENDBRANCH   5  17
BRANCH   6  27
ATOM     27  O   LIG    1        5.739  -3.801  -2.349  0.00  0.00    -0.480 OA
ATOM     28  H   LIG    1        6.323  -3.247  -1.814  0.00  0.00    +0.410 HD
ENDBRANCH   6  27
TORSDOF 3
