REMARK  Name = ZINCrH000004v9QA.0
REMARK                            x       y       z     vdW  Elec       q    Type
REMARK                         _______ _______ _______ _____ _____    ______ ____
ROOT
ATOM      1  C   LIG    1       -1.200  -0.731   0.117  0.00  0.00    +0.050 A 
ATOM      2  N   LIG    1       -1.158  -2.053   0.254  0.00  0.00    -0.400 NA
ATOM      3  C   LIG    1       -0.010  -2.691   0.141  0.00  0.00    +0.260 A 
ATOM      4  C   LIG    1        1.161  -1.991  -0.121  0.00  0.00    +0.270 A 
ATOM      5  N   LIG    1        1.135  -0.680  -0.265  0.00  0.00    -0.390 NA
ATOM      6  C   LIG    1       -0.015  -0.021  -0.149  0.00  0.00    +0.190 A 
ENDROOT
BRANCH   6   7
ATOM      7  C   LIG    1       -0.049   1.448  -0.303  0.00  0.00    +0.120 A 
ATOM      8  N   LIG    1        0.992   2.200  -0.434  0.00  0.00    -0.410 NA
ATOM      9  C   LIG    1        0.805   3.517  -0.565  0.00  0.00    +0.070 A 
ATOM     10  C   LIG    1        1.772   4.537  -0.721  0.00  0.00    +0.090 A 
ATOM     11  C   LIG    1        1.391   5.837  -0.841  0.00  0.00    +0.030 A 
ATOM     12  C   LIG    1        0.048   6.191  -0.813  0.00  0.00    +0.050 A 
ATOM     13  C   LIG    1       -0.916   5.221  -0.662  0.00  0.00    +0.050 A 
ATOM     14  C   LIG    1       -0.547   3.883  -0.538  0.00  0.00    -0.170 A 
ATOM     15  S   LIG    1       -1.512   2.422  -0.343  0.00  0.00    +0.130 S 
ENDBRANCH   6   7
BRANCH   1  17
ATOM     16  O   LIG    1       -2.743   0.601   1.260  0.00  0.00    -0.470 OA
ATOM     17  C   LIG    1       -2.486  -0.011   0.242  0.00  0.00    +0.570 C 
ATOM     18  N   LIG    1       -3.373  -0.035  -0.773  0.00  0.00    -0.650 N 
ATOM     19  H   LIG    1       -3.198  -0.578  -1.557  0.00  0.00    +0.420 HD
BRANCH  18  20
ATOM     20  C   LIG    1       -4.546   0.725  -0.695  0.00  0.00    +0.150 A 
ATOM     21  C   LIG    1       -5.186   0.891   0.526  0.00  0.00    +0.060 A 
ATOM     22  C   LIG    1       -6.341   1.645   0.605  0.00  0.00    +0.060 A 
ATOM     23  C   LIG    1       -6.870   2.229  -0.534  0.00  0.00    +0.020 A 
ATOM     24  O   LIG    1       -7.980   3.003  -0.722  0.00  0.00    -0.310 OA
ATOM     25  C   LIG    1       -8.240   2.964  -2.137  0.00  0.00    +0.430 C 
ATOM     26  O   LIG    1       -6.944   2.727  -2.717  0.00  0.00    -0.310 OA
ATOM     27  C   LIG    1       -6.233   2.060  -1.762  0.00  0.00    +0.050 A 
ATOM     28  C   LIG    1       -5.073   1.309  -1.840  0.00  0.00    +0.020 A 
ENDBRANCH  18  20
ENDBRANCH   1  17
TORSDOF 3
