REMARK  Name = ZINCpe000027pHuv.0
REMARK                            x       y       z     vdW  Elec       q    Type
REMARK                         _______ _______ _______ _____ _____    ______ ____
ROOT
ATOM      1  C   LIG    1       -0.634   1.222  -1.415  0.00  0.00    +0.600 C 
ATOM      2  N   LIG    1       -0.390  -0.102  -1.347  0.00  0.00    -0.620 N 
ATOM      3  C   LIG    1        0.623  -0.699  -2.220  0.00  0.00    +0.330 C 
ATOM      4  C   LIG    1        1.767  -1.257  -1.360  0.00  0.00    -0.350 C 
ATOM      5  S   LIG    1        1.091  -2.485  -0.205  0.00  0.00    +2.420 S 
ATOM      6  C   LIG    1       -0.191  -1.515   0.640  0.00  0.00    -0.330 C 
ATOM      7  O   LIG    1        0.461  -3.516  -0.953  0.00  0.00    -0.930 OA
ATOM      8  O   LIG    1        2.099  -2.826   0.737  0.00  0.00    -0.930 OA
ATOM      9  C   LIG    1       -1.145  -0.932  -0.406  0.00  0.00    +0.340 C 
ATOM     10  O   LIG    1       -1.557   1.703  -0.786  0.00  0.00    -0.500 OA
ENDROOT
BRANCH   9  11
ATOM     11  C   LIG    1       -2.189  -0.089   0.280  0.00  0.00    -0.200 A 
ATOM     12  C   LIG    1       -3.523  -0.137   0.058  0.00  0.00    +0.230 A 
ATOM     13  N   LIG    1       -4.108   0.770   0.868  0.00  0.00    -0.380 N 
ATOM     14  N   LIG    1       -3.100   1.396   1.612  0.00  0.00    -0.300 NA
ATOM     15  C   LIG    1       -5.543   1.051   0.953  0.00  0.00    +0.350 C 
ATOM     16  C   LIG    1       -1.951   0.876   1.263  0.00  0.00    +0.280 A 
ENDBRANCH   9  11
BRANCH   1  19
ATOM     17  N   LIG    1        0.906   3.740  -3.521  0.00  0.00    -0.350 N 
ATOM     18  C   LIG    1       -0.159   3.274  -2.849  0.00  0.00    +0.310 A 
ATOM     19  C   LIG    1        0.215   2.085  -2.256  0.00  0.00    -0.300 A 
ATOM     20  C   LIG    1        1.563   1.849  -2.609  0.00  0.00    +0.260 A 
ATOM     21  N   LIG    1        1.962   2.837  -3.360  0.00  0.00    -0.290 NA
BRANCH  17  22
ATOM     22  C   LIG    1        0.952   4.982  -4.297  0.00  0.00    +0.320 C 
BRANCH  22  24
ATOM     23  C   LIG    1        2.237   7.088  -4.692  0.00  0.00    +0.040 C 
ATOM     24  C   LIG    1        2.111   5.849  -3.803  0.00  0.00    -0.020 C 
ATOM     25  C   LIG    1        1.845   6.283  -2.360  0.00  0.00    +0.020 C 
ENDBRANCH  22  24
ENDBRANCH  17  22
ENDBRANCH   1  19
TORSDOF 4
