REMARK  Name = ZINCpe000027pHuV.1
REMARK                            x       y       z     vdW  Elec       q    Type
REMARK                         _______ _______ _______ _____ _____    ______ ____
ROOT
ATOM      1  N   LIG    1       -3.642   1.713   0.136  0.00  0.00    -0.590 N 
ATOM      2  C   LIG    1       -2.525   1.042  -0.208  0.00  0.00    +0.570 C 
ATOM      3  O   LIG    1       -2.538  -0.171  -0.264  0.00  0.00    -0.520 OA
ATOM      4  C   LIG    1       -3.638   3.178   0.161  0.00  0.00    +0.300 C 
ENDROOT
BRANCH   1   9
ATOM      5  C   LIG    1       -8.790   1.207   1.656  0.00  0.00    +0.550 C 
ATOM      6  N   LIG    1       -7.566   0.783   1.285  0.00  0.00    -0.610 N 
ATOM      7  C   LIG    1       -6.526   0.527   2.290  0.00  0.00    +0.280 C 
ATOM      8  C   LIG    1       -5.272   1.324   1.917  0.00  0.00    +0.010 C 
ATOM      9  C   LIG    1       -4.860   0.978   0.484  0.00  0.00    +0.250 C 
ATOM     10  C   LIG    1       -5.984   1.367  -0.479  0.00  0.00    +0.010 C 
ATOM     11  C   LIG    1       -7.246   0.570  -0.133  0.00  0.00    +0.290 C 
ATOM     12  O   LIG    1       -9.073   1.291   2.836  0.00  0.00    -0.540 OA
BRANCH   5  14
ATOM     13  C   LIG    1      -10.956   2.082   0.999  0.00  0.00    +0.140 C 
ATOM     14  C   LIG    1       -9.786   1.566   0.634  0.00  0.00    -0.090 C 
ENDBRANCH   5  14
ENDBRANCH   1   9
BRANCH   2  15
ATOM     15  C   LIG    1       -1.277   1.787  -0.520  0.00  0.00    +0.160 A 
ATOM     16  C   LIG    1       -0.097   1.103  -0.732  0.00  0.00    -0.070 A 
ATOM     17  C   LIG    1        1.069   1.843  -1.032  0.00  0.00    +0.540 A 
ATOM     18  N   LIG    1        0.983   3.189  -1.095  0.00  0.00    -0.620 N 
ATOM     19  H   LIG    1        1.772   3.715  -1.299  0.00  0.00    +0.420 HD
ATOM     20  C   LIG    1       -0.205   3.807  -0.871  0.00  0.00    +0.580 A 
ATOM     21  O   LIG    1        2.130   1.278  -1.232  0.00  0.00    -0.510 OA
ATOM     22  N   LIG    1       -1.292   3.125  -0.591  0.00  0.00    -0.570 NA
BRANCH  20  23
ATOM     23  O   LIG    1       -0.271   5.153  -0.938  0.00  0.00    -0.300 OA
BRANCH  23  24
ATOM     24  C   LIG    1       -1.565   5.763  -0.690  0.00  0.00    +0.190 C 
ATOM     25  C   LIG    1       -2.328   5.892  -2.010  0.00  0.00    +0.050 C 
ATOM     26  C   LIG    1       -1.365   7.151  -0.078  0.00  0.00    +0.070 C 
ENDBRANCH  23  24
ENDBRANCH  20  23
ENDBRANCH   2  15
TORSDOF 5
