REMARK  Name = ZINCkj000005iT9I.0
REMARK                            x       y       z     vdW  Elec       q    Type
REMARK                         _______ _______ _______ _____ _____    ______ ____
ROOT
ATOM      1  N   LIG    1        3.625  -0.038   5.752  0.00  0.00    -0.380 N 
ATOM      2  C   LIG    1        4.223   0.379   7.000  0.00  0.00    +0.240 C 
ATOM      3  C   LIG    1        4.752  -0.704   7.906  0.00  0.00    +0.090 C 
ATOM      4  C   LIG    1        6.058  -1.293   7.348  0.00  0.00    +0.160 C 
ATOM      5  C   LIG    1        5.664  -2.251   6.234  0.00  0.00    +0.030 A 
ATOM      6  C   LIG    1        5.044  -1.872   5.108  0.00  0.00    -0.250 A 
ATOM      7  C   LIG    1        4.845  -3.027   4.331  0.00  0.00    -0.030 A 
ATOM      8  C   LIG    1        5.362  -4.054   5.035  0.00  0.00    +0.200 A 
ATOM      9  O   LIG    1        5.859  -3.573   6.191  0.00  0.00    -0.150 OA
ATOM     10  C   LIG    1        4.650  -0.446   4.772  0.00  0.00    +0.360 C 
ATOM     11  H   LIG    1        3.008  -0.817   5.925  0.00  0.00    +0.420 HD
ENDROOT
BRANCH   1  12
ATOM     12  C   LIG    1        2.846   1.077   5.196  0.00  0.00    +0.280 C 
BRANCH  12  16
ATOM     13  N   LIG    1        0.184   1.120   2.588  0.00  0.00    -1.020 NA
ATOM     14  C   LIG    1       -0.101  -0.174   3.225  0.00  0.00    +0.280 C 
ATOM     15  C   LIG    1        0.915  -0.353   4.373  0.00  0.00    +0.040 C 
ATOM     16  C   LIG    1        2.073   0.596   3.966  0.00  0.00    -0.030 C 
ATOM     17  C   LIG    1        1.300   1.764   3.304  0.00  0.00    +0.300 C 
BRANCH  13  19
ATOM     18  C   LIG    1        0.303   1.149  -0.153  0.00  0.00    -0.280 C 
ATOM     19  S   LIG    1       -0.621   1.753   1.287  0.00  0.00    +2.620 S 
ATOM     20  O   LIG    1       -1.906   1.150   1.343  0.00  0.00    -0.940 OA
ATOM     21  O   LIG    1       -0.463   3.158   1.427  0.00  0.00    -0.940 OA
ENDBRANCH  13  19
ENDBRANCH  12  16
ENDBRANCH   1  12
TORSDOF 3
