REMARK  Name = ZINCkj000005iT9I.1
REMARK                            x       y       z     vdW  Elec       q    Type
REMARK                         _______ _______ _______ _____ _____    ______ ____
ROOT
ATOM      1  N   LIG    1       -3.233   1.877  -1.033  0.00  0.00    -0.380 N 
ATOM      2  C   LIG    1       -2.275   1.996  -2.108  0.00  0.00    +0.230 C 
ATOM      3  C   LIG    1       -0.870   2.400  -1.738  0.00  0.00    +0.090 C 
ATOM      4  C   LIG    1       -0.810   3.892  -1.369  0.00  0.00    +0.160 C 
ATOM      5  C   LIG    1       -1.347   4.013   0.048  0.00  0.00    +0.030 A 
ATOM      6  C   LIG    1       -2.601   3.700   0.401  0.00  0.00    -0.260 A 
ATOM      7  C   LIG    1       -2.721   3.941   1.781  0.00  0.00    -0.030 A 
ATOM      8  C   LIG    1       -1.516   4.385   2.196  0.00  0.00    +0.200 A 
ATOM      9  O   LIG    1       -0.688   4.426   1.136  0.00  0.00    -0.150 OA
ATOM     10  C   LIG    1       -3.671   3.201  -0.552  0.00  0.00    +0.360 C 
ATOM     11  H   LIG    1       -2.810   1.372  -0.269  0.00  0.00    +0.420 HD
ENDROOT
BRANCH   1  12
ATOM     12  C   LIG    1       -4.402   1.129  -1.512  0.00  0.00    +0.280 C 
BRANCH  12  16
ATOM     13  N   LIG    1       -4.846  -2.554  -1.868  0.00  0.00    -1.020 NA
ATOM     14  C   LIG    1       -3.804  -2.520  -0.833  0.00  0.00    +0.280 C 
ATOM     15  C   LIG    1       -3.508  -1.036  -0.530  0.00  0.00    +0.040 C 
ATOM     16  C   LIG    1       -3.995  -0.315  -1.814  0.00  0.00    -0.020 C 
ATOM     17  C   LIG    1       -5.228  -1.170  -2.202  0.00  0.00    +0.310 C 
BRANCH  13  19
ATOM     18  C   LIG    1       -6.898  -4.337  -1.488  0.00  0.00    -0.280 C 
ATOM     19  S   LIG    1       -5.486  -3.922  -2.549  0.00  0.00    +2.630 S 
ATOM     20  O   LIG    1       -4.458  -4.894  -2.414  0.00  0.00    -0.940 OA
ATOM     21  O   LIG    1       -5.932  -3.500  -3.830  0.00  0.00    -0.950 OA
ENDBRANCH  13  19
ENDBRANCH  12  16
ENDBRANCH   1  12
TORSDOF 3
