REMARK  Name = ZINCrH000004kXSh.0
REMARK                            x       y       z     vdW  Elec       q    Type
REMARK                         _______ _______ _______ _____ _____    ______ ____
ROOT
ATOM      1  N   LIG    1       -1.191   1.867   0.018  0.00  0.00    -0.680 N 
ATOM      2  H   LIG    1       -1.196   2.836  -0.027  0.00  0.00    +0.410 HD
ATOM      3  C   LIG    1       -0.027   1.205   0.180  0.00  0.00    +0.520 C 
ATOM      4  O   LIG    1       -0.030   0.002   0.332  0.00  0.00    -0.490 OA
ENDROOT
BRANCH   1   8
ATOM      5  C   LIG    1       -4.764  -0.251  -0.291  0.00  0.00    -0.150 A 
ATOM      6  C   LIG    1       -4.744   1.004   0.325  0.00  0.00    +0.110 A 
ATOM      7  C   LIG    1       -3.561   1.700   0.426  0.00  0.00    -0.020 A 
ATOM      8  C   LIG    1       -2.387   1.158  -0.086  0.00  0.00    +0.190 A 
ATOM      9  C   LIG    1       -2.404  -0.088  -0.705  0.00  0.00    +0.000 A 
ATOM     10  C   LIG    1       -3.582  -0.793  -0.804  0.00  0.00    +0.100 A 
BRANCH   5  11
ATOM     11  C   LIG    1       -6.029  -1.000  -0.402  0.00  0.00    +0.510 C 
ATOM     12  O   LIG    1       -7.056  -0.528   0.044  0.00  0.00    -0.510 OA
BRANCH  11  14
ATOM     13  C   LIG    1       -7.327  -2.890  -1.069  0.00  0.00    +0.260 C 
ATOM     14  O   LIG    1       -6.047  -2.209  -0.997  0.00  0.00    -0.360 OA
ENDBRANCH  11  14
ENDBRANCH   5  11
ENDBRANCH   1   8
BRANCH   3  15
ATOM     15  C   LIG    1        1.277   1.961   0.166  0.00  0.00    +0.170 C 
BRANCH  15  16
ATOM     16  C   LIG    1        2.418   0.996   0.359  0.00  0.00    +0.080 A 
ATOM     17  C   LIG    1        3.436   0.918  -0.504  0.00  0.00    -0.060 A 
ATOM     18  S   LIG    1        4.553  -0.318   0.071  0.00  0.00    +0.110 S 
ATOM     19  C   LIG    1        3.506  -0.613   1.457  0.00  0.00    +0.120 A 
ATOM     20  N   LIG    1        2.478   0.183   1.389  0.00  0.00    -0.440 NA
BRANCH  19  21
ATOM     21  C   LIG    1        3.757  -1.601   2.528  0.00  0.00    +0.010 A 
ATOM     22  C   LIG    1        2.848  -1.742   3.577  0.00  0.00    +0.040 A 
ATOM     23  C   LIG    1        3.085  -2.667   4.575  0.00  0.00    +0.050 A 
ATOM     24  C   LIG    1        4.221  -3.454   4.538  0.00  0.00    -0.060 A 
ATOM     25  C   LIG    1        5.130  -3.321   3.497  0.00  0.00    +0.130 A 
ATOM     26  C   LIG    1        4.900  -2.400   2.489  0.00  0.00    +0.000 A 
BRANCH  25  27
ATOM     27  O   LIG    1        6.245  -4.098   3.465  0.00  0.00    -0.320 OA
ATOM     28  C   LIG    1        6.417  -5.030   4.535  0.00  0.00    +0.250 C 
ENDBRANCH  25  27
ENDBRANCH  19  21
ENDBRANCH  15  16
ENDBRANCH   3  15
TORSDOF 7
