REMARK  Name = ZINCtV000002zBU1.0
REMARK                            x       y       z     vdW  Elec       q    Type
REMARK                         _______ _______ _______ _____ _____    ______ ____
ROOT
ATOM      1  C   LIG    1       -2.740   2.900   2.541  0.00  0.00    +0.410 A 
ATOM      2  C   LIG    1       -2.288   3.068   3.874  0.00  0.00    -0.130 A 
ATOM      3  C   LIG    1       -0.943   2.833   4.139  0.00  0.00    +0.090 A 
ATOM      4  S   LIG    1       -0.623   3.103   5.842  0.00  0.00    +0.200 S 
ATOM      5  C   LIG    1       -2.303   3.527   6.169  0.00  0.00    -0.200 A 
ATOM      6  C   LIG    1       -3.158   3.947   7.361  0.00  0.00    +0.130 C 
ATOM      7  C   LIG    1       -4.427   4.562   6.739  0.00  0.00    +0.050 C 
ATOM      8  C   LIG    1       -4.489   3.836   5.381  0.00  0.00    +0.110 C 
ATOM      9  N   LIG    1       -0.135   2.463   3.135  0.00  0.00    -0.470 NA
ATOM     10  C   LIG    1       -0.599   2.320   1.915  0.00  0.00    +0.350 A 
ATOM     11  C   LIG    1       -3.039   3.465   5.068  0.00  0.00    -0.070 A 
ATOM     12  N   LIG    1       -1.867   2.536   1.612  0.00  0.00    -0.540 NA
ENDROOT
BRANCH   1  14
ATOM     13  C   LIG    1       -4.720   1.867   1.803  0.00  0.00    +0.240 C 
ATOM     14  N   LIG    1       -4.067   3.118   2.213  0.00  0.00    -0.480 N 
BRANCH  14  15
ATOM     15  C   LIG    1       -4.190   4.143   1.169  0.00  0.00    +0.150 C 
ATOM     16  C   LIG    1       -3.443   5.406   1.604  0.00  0.00    +0.010 C 
ATOM     17  C   LIG    1       -3.572   6.474   0.516  0.00  0.00    +0.000 C 
ATOM     18  C   LIG    1       -5.050   6.805   0.297  0.00  0.00    +0.000 C 
ATOM     19  C   LIG    1       -5.796   5.542  -0.138  0.00  0.00    +0.010 C 
ATOM     20  C   LIG    1       -5.668   4.474   0.950  0.00  0.00    +0.030 C 
ENDBRANCH  14  15
ENDBRANCH   1  14
BRANCH  10  21
ATOM     21  C   LIG    1        0.348   1.902   0.820  0.00  0.00    +0.190 C 
BRANCH  21  22
ATOM     22  S   LIG    1        0.379   0.092   0.706  0.00  0.00    -0.060 S 
BRANCH  22  23
ATOM     23  C   LIG    1        1.520  -0.203  -0.603  0.00  0.00    -0.080 A 
ATOM     24  C   LIG    1        2.127   0.865  -1.253  0.00  0.00    +0.010 A 
ATOM     25  C   LIG    1        3.024   0.630  -2.276  0.00  0.00    +0.050 A 
ATOM     26  C   LIG    1        3.313  -0.667  -2.660  0.00  0.00    -0.040 A 
ATOM     27  C   LIG    1        2.707  -1.733  -2.019  0.00  0.00    +0.050 A 
ATOM     28 CL   LIG    1        4.436  -0.958  -3.951  0.00  0.00    -0.060 Cl
ATOM     29  C   LIG    1        1.812  -1.505  -0.992  0.00  0.00    +0.050 A 
ENDBRANCH  22  23
ENDBRANCH  21  22
ENDBRANCH  10  21
TORSDOF 5
