REMARK  Name = ZINCrg00000BsXB2.0
REMARK                            x       y       z     vdW  Elec       q    Type
REMARK                         _______ _______ _______ _____ _____    ______ ____
ROOT
ATOM      1  C   LIG    1        1.933  -3.953  -4.646  0.00  0.00    -0.030 C 
ATOM      2  C   LIG    1        1.756  -2.434  -4.581  0.00  0.00    +0.040 C 
ATOM      3  C   LIG    1        2.226  -1.927  -3.219  0.00  0.00    +0.280 C 
ATOM      4  N   LIG    1        1.516  -2.663  -2.164  0.00  0.00    -0.610 N 
ATOM      5  C   LIG    1        1.545  -4.132  -2.185  0.00  0.00    +0.300 C 
ATOM      6  C   LIG    1        0.846  -2.003  -1.198  0.00  0.00    +0.520 C 
ATOM      7  O   LIG    1        0.260  -2.622  -0.336  0.00  0.00    -0.520 OA
ATOM      8  C   LIG    1        1.079  -4.614  -3.563  0.00  0.00    +0.290 C 
ATOM      9  F   LIG    1       -0.264  -4.267  -3.749  0.00  0.00    -0.190 F 
ATOM     10  F   LIG    1        1.217  -6.004  -3.642  0.00  0.00    -0.190 F 
ENDROOT
BRANCH   1  11
ATOM     11  C   LIG    1        1.493  -4.458  -6.022  0.00  0.00    +0.300 C 
BRANCH  11  14
ATOM     12  O   LIG    1        1.270  -4.962  -8.662  0.00  0.00    -0.490 OA
ATOM     13  C   LIG    1        2.189  -4.231  -8.345  0.00  0.00    +0.590 C 
ATOM     14  N   LIG    1        2.386  -3.918  -7.050  0.00  0.00    -0.730 N 
ATOM     15  H   LIG    1        3.119  -3.336  -6.797  0.00  0.00    +0.400 HD
BRANCH  13  16
ATOM     16  C   LIG    1        3.086  -3.690  -9.377  0.00  0.00    -0.030 A 
ATOM     17  C   LIG    1        3.017  -3.916 -10.742  0.00  0.00    -0.080 A 
ATOM     18  C   LIG    1        4.077  -3.189 -11.292  0.00  0.00    +0.220 A 
ATOM     19  N   LIG    1        4.705  -2.592 -10.311  0.00  0.00    -0.250 NA
ATOM     20 CL   LIG    1        1.860  -4.894 -11.590  0.00  0.00    +0.000 Cl
ATOM     21  N   LIG    1        4.153  -2.856  -9.182  0.00  0.00    -0.370 N 
ATOM     22  H   LIG    1        4.449  -2.518  -8.323  0.00  0.00    +0.450 HD
ENDBRANCH  13  16
ENDBRANCH  11  14
ENDBRANCH   1  11
BRANCH   6  23
ATOM     23  C   LIG    1        0.826  -0.496  -1.190  0.00  0.00    +0.070 C 
BRANCH  23  24
ATOM     24  C   LIG    1        0.002  -0.004   0.002  0.00  0.00    +0.170 C 
BRANCH  24  25
ATOM     25  C   LIG    1       -0.018   1.503   0.010  0.00  0.00    +0.010 A 
ATOM     26  N   LIG    1        1.019   2.308   0.005  0.00  0.00    -0.280 NA
ATOM     27  N   LIG    1        0.598   3.524   0.015  0.00  0.00    -0.250 N 
ATOM     28  H   LIG    1        1.172   4.306   0.014  0.00  0.00    +0.470 HD
ATOM     29  N   LIG    1       -0.687   3.561   0.028  0.00  0.00    -0.280 NA
ATOM     30  C   LIG    1       -1.144   2.329   0.019  0.00  0.00    +0.190 A 
ENDBRANCH  24  25
ENDBRANCH  23  24
ENDBRANCH   6  23
TORSDOF 6
