REMARK  Name = ZINCvU0000000IYs.0
REMARK                            x       y       z     vdW  Elec       q    Type
REMARK                         _______ _______ _______ _____ _____    ______ ____
ROOT
ATOM      1  C   LIG    1       -2.710   0.416  -1.119  0.00  0.00    +0.300 C 
ENDROOT
BRANCH   1   5
ATOM      2  O   LIG    1       -4.447   4.239   1.062  0.00  0.00    -0.460 OA
ATOM      3  C   LIG    1       -3.478   3.687   0.576  0.00  0.00    +0.500 A 
ATOM      4  C   LIG    1       -3.609   2.409   0.005  0.00  0.00    -0.060 A 
ATOM      5  C   LIG    1       -2.500   1.733  -0.418  0.00  0.00    +0.020 A 
ATOM      6  C   LIG    1       -1.226   2.303  -0.200  0.00  0.00    -0.150 A 
ATOM      7  C   LIG    1       -1.172   3.660   0.164  0.00  0.00    +0.180 A 
ATOM      8  C   LIG    1        0.041   4.354   0.140  0.00  0.00    +0.010 A 
ATOM      9  C   LIG    1        1.188   3.760  -0.265  0.00  0.00    +0.120 A 
ATOM     10  C   LIG    1        1.209   2.392  -0.600  0.00  0.00    -0.080 A 
ATOM     11  C   LIG    1        2.389   1.791  -1.061  0.00  0.00    +0.060 A 
ATOM     12  C   LIG    1        2.457   0.435  -1.176  0.00  0.00    +0.010 A 
ATOM     13  C   LIG    1        1.359  -0.350  -0.847  0.00  0.00    +0.040 A 
ATOM     14  C   LIG    1        0.175   0.218  -0.468  0.00  0.00    +0.000 A 
ATOM     15  C   LIG    1        0.040   1.605  -0.411  0.00  0.00    +0.010 A 
ATOM     16  O   LIG    1       -2.284   4.300   0.586  0.00  0.00    -0.260 OA
ENDBRANCH   1   5
BRANCH   1  17
ATOM     17  O   LIG    1       -4.132   0.197  -1.321  0.00  0.00    -0.350 OA
BRANCH  17  18
ATOM     18  C   LIG    1       -4.492  -0.940  -1.938  0.00  0.00    +0.470 C 
ATOM     19  O   LIG    1       -3.647  -1.726  -2.296  0.00  0.00    -0.500 OA
BRANCH  18  20
ATOM     20  C   LIG    1       -5.949  -1.235  -2.183  0.00  0.00    +0.110 C 
BRANCH  20  21
ATOM     21  C   LIG    1       -6.084  -2.582  -2.895  0.00  0.00    +0.060 C 
BRANCH  21  22
ATOM     22  C   LIG    1       -7.563  -2.882  -3.143  0.00  0.00    +0.140 C 
BRANCH  22  23
ATOM     23  C   LIG    1       -7.696  -4.209  -3.845  0.00  0.00    +0.090 A 
ATOM     24  N   LIG    1       -7.812  -5.333  -3.244  0.00  0.00    -0.460 NA
ATOM     25  C   LIG    1       -7.926  -6.441  -4.000  0.00  0.00    +0.080 A 
ATOM     26  C   LIG    1       -8.070  -7.787  -3.607  0.00  0.00    +0.080 A 
ATOM     27  C   LIG    1       -8.164  -8.773  -4.543  0.00  0.00    +0.030 A 
ATOM     28  C   LIG    1       -8.122  -8.472  -5.897  0.00  0.00    +0.040 A 
ATOM     29  C   LIG    1       -7.983  -7.166  -6.310  0.00  0.00    +0.060 A 
ATOM     30  C   LIG    1       -7.885  -6.145  -5.367  0.00  0.00    -0.180 A 
ATOM     31  S   LIG    1       -7.703  -4.402  -5.541  0.00  0.00    +0.100 S 
ENDBRANCH  22  23
ENDBRANCH  21  22
ENDBRANCH  20  21
ENDBRANCH  18  20
ENDBRANCH  17  18
ENDBRANCH   1  17
TORSDOF 7
