REMARK  Name = ZINCkj000005gPwp.1
REMARK                            x       y       z     vdW  Elec       q    Type
REMARK                         _______ _______ _______ _____ _____    ______ ____
ROOT
ATOM      1  N   LIG    1       -0.700   1.560   1.217  0.00  0.00    -0.510 N 
ATOM      2  H   LIG    1       -1.647   1.210   1.224  0.00  0.00    +0.430 HD
ATOM      3  H   LIG    1       -0.714   2.568   1.222  0.00  0.00    +0.430 HD
ENDROOT
BRANCH   1   4
ATOM      4  C   LIG    1        0.010   1.073   2.407  0.00  0.00    +0.400 C 
BRANCH   4   8
ATOM      5  C   LIG    1       -1.263   2.815   5.353  0.00  0.00    +0.060 A 
ATOM      6  C   LIG    1       -2.047   1.723   5.395  0.00  0.00    -0.060 A 
ATOM      7  C   LIG    1       -1.681   0.913   4.295  0.00  0.00    +0.030 A 
ATOM      8  C   LIG    1       -0.695   1.559   3.647  0.00  0.00    -0.130 A 
ATOM      9  O   LIG    1       -0.442   2.708   4.295  0.00  0.00    -0.170 OA
BRANCH   5  11
ATOM     10  C   LIG    1       -0.329   3.679   7.481  0.00  0.00    +0.050 C 
ATOM     11  C   LIG    1       -1.296   3.962   6.330  0.00  0.00    +0.140 C 
ENDBRANCH   5  11
ENDBRANCH   4   8
ENDBRANCH   1   4
BRANCH   1  12
ATOM     12  C   LIG    1       -0.013   1.086   0.008  0.00  0.00    +0.310 C 
BRANCH  12  13
ATOM     13  C   LIG    1       -0.753   1.593  -1.232  0.00  0.00    -0.380 C 
BRANCH  13  14
ATOM     14  S   LIG    1        0.096   1.008  -2.724  0.00  0.00    +2.620 S 
ATOM     15  O   LIG    1       -0.038  -0.401  -2.854  0.00  0.00    -0.920 OA
ATOM     16  O   LIG    1        1.363   1.638  -2.857  0.00  0.00    -0.920 OA
BRANCH  14  17
ATOM     17  N   LIG    1       -0.798   1.621  -3.975  0.00  0.00    -0.990 NA
ATOM     18  C   LIG    1       -1.906   0.838  -4.525  0.00  0.00    +0.320 C 
ATOM     19  C   LIG    1       -3.229   1.573  -4.254  0.00  0.00    +0.100 C 
ATOM     20  S   LIG    1       -3.140   3.228  -4.998  0.00  0.00    -0.230 S 
ATOM     21  C   LIG    1       -1.626   3.906  -4.257  0.00  0.00    +0.100 C 
ATOM     22  C   LIG    1       -0.469   2.937  -4.524  0.00  0.00    +0.320 C 
ENDBRANCH  14  17
ENDBRANCH  13  14
ENDBRANCH  12  13
ENDBRANCH   1  12
TORSDOF 7
