REMARK  Name = ZINCpk00000e9tde.0
REMARK                            x       y       z     vdW  Elec       q    Type
REMARK                         _______ _______ _______ _____ _____    ______ ____
ROOT
ATOM      1  N   LIG    1       -1.435   3.582   2.481  0.00  0.00    -0.280 N 
ATOM      2  C   LIG    1       -2.772   3.737   2.623  0.00  0.00    +0.160 A 
ATOM      3  C   LIG    1       -2.967   4.190   3.884  0.00  0.00    -0.050 A 
ATOM      4  N   LIG    1       -1.756   4.288   4.443  0.00  0.00    -0.260 NA
ATOM      5  N   LIG    1       -0.870   3.915   3.588  0.00  0.00    -0.060 NA
ENDROOT
BRANCH   1  11
ATOM      6  C   LIG    1       -0.729   1.579   1.267  0.00  0.00    +0.150 C 
ATOM      7  C   LIG    1       -0.013   1.086   0.008  0.00  0.00    +0.020 C 
ATOM      8  C   LIG    1       -0.753   1.593  -1.232  0.00  0.00    +0.030 C 
ATOM      9  C   LIG    1       -0.773   3.123  -1.223  0.00  0.00    +0.030 C 
ATOM     10  C   LIG    1       -1.490   3.616   0.036  0.00  0.00    +0.040 C 
ATOM     11  C   LIG    1       -0.750   3.109   1.275  0.00  0.00    +0.270 C 
BRANCH   6  12
ATOM     12  O   LIG    1       -0.038   1.106   2.425  0.00  0.00    -0.370 OA
BRANCH  12  14
ATOM     13  C   LIG    1        0.310  -0.568   4.132  0.00  0.00    +0.050 C 
ATOM     14  C   LIG    1       -0.496  -0.163   2.897  0.00  0.00    +0.150 C 
ENDBRANCH  12  14
ENDBRANCH   6  12
ENDBRANCH   1  11
BRANCH   3  15
ATOM     15  C   LIG    1       -4.288   4.519   4.529  0.00  0.00    +0.390 C 
BRANCH  15  16
ATOM     16  N   LIG    1       -4.762   3.360   5.290  0.00  0.00    -0.720 N 
ATOM     17  H   LIG    1       -4.234   2.546   5.314  0.00  0.00    +0.400 HD
ATOM     18  C   LIG    1       -5.932   3.423   5.955  0.00  0.00    +0.580 C 
ATOM     19  O   LIG    1       -6.594   4.443   5.925  0.00  0.00    -0.540 OA
BRANCH  18  20
ATOM     20  C   LIG    1       -6.409   2.257   6.721  0.00  0.00    -0.260 A 
ATOM     21  C   LIG    1       -7.606   2.316   7.405  0.00  0.00    +0.400 A 
ATOM     22  N   LIG    1       -8.046   1.254   8.104  0.00  0.00    -0.600 N 
ATOM     23  H   LIG    1       -8.890   1.311   8.580  0.00  0.00    +0.420 HD
ATOM     24  C   LIG    1       -7.334   0.114   8.155  0.00  0.00    +0.520 A 
ATOM     25  C   LIG    1       -6.107   0.006   7.473  0.00  0.00    -0.080 A 
ATOM     26  O   LIG    1       -7.754  -0.835   8.796  0.00  0.00    -0.540 OA
ATOM     27  C   LIG    1       -5.646   1.065   6.755  0.00  0.00    +0.140 A 
ENDBRANCH  18  20
ENDBRANCH  15  16
ENDBRANCH   3  15
TORSDOF 6
