REMARK  Name = ZINCrD000000BSCL.0
REMARK                            x       y       z     vdW  Elec       q    Type
REMARK                         _______ _______ _______ _____ _____    ______ ____
ROOT
ATOM      1  O   LIG    1       -0.821  -5.484   1.207  0.00  0.00    -0.530 OA
ATOM      2  C   LIG    1        0.071  -5.384   2.027  0.00  0.00    +0.570 C 
ATOM      3  N   LIG    1        0.433  -6.452   2.764  0.00  0.00    -0.720 N 
ATOM      4  H   LIG    1        1.144  -6.372   3.418  0.00  0.00    +0.410 HD
ENDROOT
BRANCH   2   5
ATOM      5  C   LIG    1        0.758  -4.090   2.216  0.00  0.00    -0.180 A 
ATOM      6  C   LIG    1        1.781  -3.993   3.164  0.00  0.00    +0.050 A 
ATOM      7  C   LIG    1        2.460  -2.824   3.391  0.00  0.00    +0.000 A 
ATOM      8  C   LIG    1        2.092  -1.712   2.633  0.00  0.00    +0.120 A 
ATOM      9  N   LIG    1        2.557  -0.431   2.614  0.00  0.00    -0.580 N 
ATOM     10  H   LIG    1        3.269  -0.089   3.176  0.00  0.00    +0.420 HD
ATOM     11  C   LIG    1        1.868   0.301   1.682  0.00  0.00    +0.070 A 
ATOM     12  C   LIG    1        0.944  -0.477   1.079  0.00  0.00    -0.150 A 
ATOM     13  C   LIG    1        0.002  -0.004   0.002  0.00  0.00    +0.090 C 
ATOM     14  C   LIG    1       -0.019   1.529   0.010  0.00  0.00    +0.020 C 
ATOM     15  C   LIG    1        1.419   2.055  -0.001  0.00  0.00    +0.020 C 
ATOM     16  C   LIG    1        2.080   1.760   1.350  0.00  0.00    +0.100 C 
ATOM     17  C   LIG    1        1.054  -1.798   1.666  0.00  0.00    -0.110 A 
ATOM     18  C   LIG    1        0.369  -2.992   1.442  0.00  0.00    +0.150 A 
ENDBRANCH   2   5
BRANCH   3  19
ATOM     19  C   LIG    1       -0.248  -7.736   2.576  0.00  0.00    +0.320 C 
ATOM     20  C   LIG    1        0.704  -8.880   2.981  0.00  0.00    -0.280 C 
ATOM     21  S   LIG    1       -0.498 -10.111   3.616  0.00  0.00    +2.480 S 
ATOM     22  C   LIG    1       -1.791  -8.965   4.030  0.00  0.00    -0.630 A 
ATOM     23  C   LIG    1       -2.916  -9.124   4.813  0.00  0.00    +0.140 A 
ATOM     24  C   LIG    1       -3.782  -8.064   5.009  0.00  0.00    +0.010 A 
ATOM     25  C   LIG    1       -3.505  -6.849   4.412  0.00  0.00    +0.060 A 
ATOM     26  C   LIG    1       -2.384  -6.697   3.627  0.00  0.00    +0.030 A 
ATOM     27  O   LIG    1       -1.025 -10.916   2.570  0.00  0.00    -0.920 OA
ATOM     28  O   LIG    1       -0.072 -10.665   4.853  0.00  0.00    -0.920 OA
ATOM     29  C   LIG    1       -1.502  -7.760   3.416  0.00  0.00    -0.060 A 
ENDBRANCH   3  19
TORSDOF 2
