REMARK  Name = ZINCrH00000tj1gJ.0
REMARK                            x       y       z     vdW  Elec       q    Type
REMARK                         _______ _______ _______ _____ _____    ______ ____
ROOT
ATOM      1  N   LIG    1        1.335   1.838   2.949  0.00  0.00    -0.720 N 
ATOM      2  H   LIG    1        1.513   2.686   2.512  0.00  0.00    +0.400 HD
ATOM      3  C   LIG    1        2.344   1.146   3.514  0.00  0.00    +0.500 C 
ATOM      4  O   LIG    1        2.120   0.086   4.060  0.00  0.00    -0.520 OA
ENDROOT
BRANCH   1   6
ATOM      5  C   LIG    1       -0.689   1.715   4.317  0.00  0.00    +0.030 C 
ATOM      6  C   LIG    1       -0.032   1.312   2.996  0.00  0.00    +0.230 C 
BRANCH   6   7
ATOM      7  C   LIG    1       -0.839   1.884   1.829  0.00  0.00    +0.030 C 
BRANCH   7   8
ATOM      8  C   LIG    1       -0.255   1.378   0.508  0.00  0.00    +0.070 C 
BRANCH   8   9
ATOM      9  C   LIG    1       -1.050   1.942  -0.641  0.00  0.00    -0.080 A 
ATOM     10  C   LIG    1       -2.142   1.249  -1.131  0.00  0.00    +0.000 A 
ATOM     11  C   LIG    1       -2.874   1.768  -2.183  0.00  0.00    +0.000 A 
ATOM     12  C   LIG    1       -2.509   2.975  -2.750  0.00  0.00    -0.010 A 
ATOM     13  C   LIG    1       -1.414   3.665  -2.263  0.00  0.00    +0.000 A 
ATOM     14  C   LIG    1       -0.685   3.148  -1.208  0.00  0.00    +0.000 A 
ENDBRANCH   8   9
ENDBRANCH   7   8
ENDBRANCH   6   7
ENDBRANCH   1   6
BRANCH   3  15
ATOM     15  C   LIG    1        3.749   1.688   3.466  0.00  0.00    +0.340 C 
BRANCH  15  16
ATOM     16  N   LIG    1        4.655   0.757   4.143  0.00  0.00    -0.980 NA
ATOM     17  C   LIG    1        4.832   0.833   5.596  0.00  0.00    +0.320 C 
BRANCH  16  18
ATOM     18  S   LIG    1        5.479  -0.382   3.268  0.00  0.00    +2.690 S 
ATOM     19  O   LIG    1        4.801  -0.500   2.025  0.00  0.00    -0.930 OA
ATOM     20  O   LIG    1        5.696  -1.481   4.143  0.00  0.00    -0.920 OA
BRANCH  18  21
ATOM     21  C   LIG    1        7.068   0.287   2.907  0.00  0.00    -0.660 A 
ATOM     22  C   LIG    1        7.305   1.638   3.080  0.00  0.00    +0.140 A 
ATOM     23  C   LIG    1        8.554   2.163   2.800  0.00  0.00    -0.050 A 
ATOM     24  C   LIG    1        9.563   1.337   2.337  0.00  0.00    +0.110 A 
ATOM     25  C   LIG    1        9.325  -0.013   2.159  0.00  0.00    +0.050 A 
ATOM     26 CL   LIG    1        8.854   3.858   3.025  0.00  0.00    -0.040 Cl
ATOM     27  C   LIG    1        8.078  -0.538   2.444  0.00  0.00    +0.050 A 
ATOM     28 CL   LIG    1        7.778  -2.233   2.220  0.00  0.00    -0.030 Cl
ENDBRANCH  18  21
ENDBRANCH  16  18
ENDBRANCH  15  16
ENDBRANCH   3  15
TORSDOF 8
