REMARK  Name = ZINCvU00000008BT.0
REMARK                            x       y       z     vdW  Elec       q    Type
REMARK                         _______ _______ _______ _____ _____    ______ ____
ROOT
ATOM      1  C   LIG    1        1.196  -2.344   0.008  0.00  0.00    +0.060 C 
ENDROOT
BRANCH   1   2
ATOM      2  C   LIG    1        1.362  -0.850   0.120  0.00  0.00    -0.090 A 
ATOM      3  C   LIG    1        0.248  -0.031   0.144  0.00  0.00    +0.060 A 
ATOM      4  C   LIG    1        0.400   1.339   0.248  0.00  0.00    +0.010 A 
ATOM      5  C   LIG    1        1.665   1.890   0.328  0.00  0.00    +0.010 A 
ATOM      6  C   LIG    1        2.779   1.071   0.303  0.00  0.00    +0.000 A 
ATOM      7  C   LIG    1        2.627  -0.299   0.200  0.00  0.00    +0.030 A 
ENDBRANCH   1   2
BRANCH   1  10
ATOM      8  N   LIG    1        1.278  -2.709  -2.438  0.00  0.00    -0.660 N 
ATOM      9  H   LIG    1        0.369  -2.377  -2.488  0.00  0.00    +0.410 HD
ATOM     10  C   LIG    1        1.885  -2.833  -1.240  0.00  0.00    +0.540 C 
ATOM     11  O   LIG    1        2.986  -3.338  -1.167  0.00  0.00    -0.500 OA
BRANCH   8  17
ATOM     12  C   LIG    1        1.191  -4.532  -7.003  0.00  0.00    +0.090 C 
ATOM     13  C   LIG    1        1.943  -3.947  -5.835  0.00  0.00    -0.060 A 
ATOM     14  C   LIG    1        3.310  -3.757  -5.920  0.00  0.00    -0.010 A 
ATOM     15  C   LIG    1        4.004  -3.220  -4.852  0.00  0.00    -0.060 A 
ATOM     16  C   LIG    1        3.334  -2.872  -3.696  0.00  0.00    +0.000 A 
ATOM     17  C   LIG    1        1.961  -3.061  -3.607  0.00  0.00    +0.150 A 
ATOM     18  C   LIG    1        5.494  -3.015  -4.949  0.00  0.00    +0.100 C 
ATOM     19  C   LIG    1        1.268  -3.606  -4.680  0.00  0.00    -0.020 A 
ENDBRANCH   8  17
ENDBRANCH   1  10
BRANCH   1  20
ATOM     20  S   LIG    1        1.932  -3.143   1.455  0.00  0.00    +0.090 S 
BRANCH  20  21
ATOM     21  C   LIG    1        0.870  -2.526   2.718  0.00  0.00    +0.150 A 
ATOM     22  N   LIG    1       -0.149  -1.714   2.554  0.00  0.00    -0.280 NA
ATOM     23  N   LIG    1       -0.701  -1.470   3.689  0.00  0.00    -0.280 NA
ATOM     24  C   LIG    1       -0.075  -2.104   4.639  0.00  0.00    +0.200 A 
ATOM     25  C   LIG    1       -0.415  -2.077   6.107  0.00  0.00    +0.200 C 
ATOM     26  N   LIG    1        0.946  -2.806   4.055  0.00  0.00    -0.420 N 
BRANCH  26  27
ATOM     27  C   LIG    1        1.878  -3.636   4.695  0.00  0.00    +0.100 A 
ATOM     28  C   LIG    1        1.456  -4.800   5.323  0.00  0.00    +0.030 A 
ATOM     29  C   LIG    1        2.377  -5.619   5.948  0.00  0.00    +0.030 A 
ATOM     30  C   LIG    1        3.716  -5.274   5.957  0.00  0.00    +0.030 A 
ATOM     31  C   LIG    1        4.138  -4.113   5.337  0.00  0.00    +0.040 A 
ATOM     32  C   LIG    1        3.223  -3.293   4.706  0.00  0.00    +0.030 A 
ENDBRANCH  26  27
ENDBRANCH  20  21
ENDBRANCH   1  20
TORSDOF 6
