REMARK  Name = ZINCrD000000fmvh.0
REMARK                            x       y       z     vdW  Elec       q    Type
REMARK                         _______ _______ _______ _____ _____    ______ ____
ROOT
ATOM      1  N   LIG    1       -2.080  -2.101   0.097  0.00  0.00    -0.530 N 
ATOM      2  C   LIG    1       -1.356  -3.183  -0.238  0.00  0.00    +0.500 C 
ATOM      3  C   LIG    1       -0.118  -2.702  -0.935  0.00  0.00    +0.400 C 
ATOM      4  C   LIG    1       -0.237  -1.235  -0.948  0.00  0.00    -0.240 A 
ATOM      5  C   LIG    1        0.581  -0.217  -1.445  0.00  0.00    +0.150 A 
ATOM      6  C   LIG    1        0.198   1.103  -1.306  0.00  0.00    +0.010 A 
ATOM      7  C   LIG    1       -1.005   1.415  -0.673  0.00  0.00    +0.130 A 
ATOM      8  O   LIG    1       -1.397   2.710  -0.533  0.00  0.00    -0.300 OA
ATOM      9  C   LIG    1       -0.388   3.711  -0.702  0.00  0.00    +0.230 C 
ATOM     10  C   LIG    1        0.415   3.377  -1.967  0.00  0.00    +0.230 C 
ATOM     11  C   LIG    1       -1.821   0.404  -0.177  0.00  0.00    +0.010 A 
ATOM     12  O   LIG    1        1.006   2.085  -1.792  0.00  0.00    -0.300 OA
ATOM     13  O   LIG    1        0.784  -3.375  -1.389  0.00  0.00    -0.370 OA
ATOM     14  O   LIG    1       -1.651  -4.339  -0.018  0.00  0.00    -0.440 OA
ATOM     15  C   LIG    1       -1.450  -0.924  -0.307  0.00  0.00    +0.210 A 
ENDROOT
BRANCH   1  16
ATOM     16  C   LIG    1       -3.365  -2.152   0.798  0.00  0.00    +0.470 C 
BRANCH  16  17
ATOM     17  N   LIG    1       -4.455  -2.233  -0.184  0.00  0.00    -0.540 NA
BRANCH  17  18
ATOM     18  C   LIG    1       -4.632  -3.611  -0.662  0.00  0.00    +0.260 C 
BRANCH  18  20
ATOM     19  C   LIG    1       -6.170  -5.189   0.390  0.00  0.00    +0.030 C 
ATOM     20  C   LIG    1       -5.068  -4.488   0.484  0.00  0.00    -0.080 C 
ENDBRANCH  18  20
ENDBRANCH  17  18
BRANCH  17  21
ATOM     21  C   LIG    1       -5.707  -1.705   0.375  0.00  0.00    +0.290 C 
BRANCH  21  22
ATOM     22  C   LIG    1       -6.689  -1.454  -0.741  0.00  0.00    -0.160 A 
ATOM     23  C   LIG    1       -7.636  -2.306  -1.137  0.00  0.00    +0.020 A 
ATOM     24  C   LIG    1       -8.422  -1.858  -2.185  0.00  0.00    +0.030 A 
ATOM     25  C   LIG    1       -8.113  -0.642  -2.640  0.00  0.00    -0.150 A 
ATOM     26 CL   LIG    1       -8.921   0.176  -3.940  0.00  0.00    -0.010 Cl
ATOM     27  S   LIG    1       -6.765   0.008  -1.715  0.00  0.00    +0.180 S 
ENDBRANCH  21  22
ENDBRANCH  17  21
ENDBRANCH  16  17
ENDBRANCH   1  16
TORSDOF 6
