REMARK  Name = ZINCrg00000SjSxd.0
REMARK                            x       y       z     vdW  Elec       q    Type
REMARK                         _______ _______ _______ _____ _____    ______ ____
ROOT
ATOM      1  C   LIG    1       -0.018   1.472   0.010  0.00  0.00    +0.510 C 
ATOM      2  O   LIG    1       -1.078   2.065   0.018  0.00  0.00    -0.470 OA
ENDROOT
BRANCH   1   3
ATOM      3  C   LIG    1        0.002  -0.004   0.002  0.00  0.00    -0.120 A 
ATOM      4  C   LIG    1        1.219  -0.689  -0.019  0.00  0.00    +0.220 A 
ATOM      5  C   LIG    1        1.230  -2.068  -0.021  0.00  0.00    -0.690 A 
ATOM      6  C   LIG    1        0.040  -2.774  -0.014  0.00  0.00    +0.180 A 
ATOM      7  C   LIG    1       -1.170  -2.103   0.002  0.00  0.00    +0.040 A 
ATOM      8  C   LIG    1       -1.197  -0.723   0.010  0.00  0.00    +0.010 A 
ATOM      9 BR   LIG    1       -2.851   0.193   0.030  0.00  0.00    +0.020 Br
BRANCH   5  10
ATOM     10  S   LIG    1        2.765  -2.934  -0.041  0.00  0.00    +2.690 S 
ATOM     11  O   LIG    1        2.505  -4.223   0.499  0.00  0.00    -0.920 OA
ATOM     12  O   LIG    1        3.734  -2.046   0.499  0.00  0.00    -0.920 OA
BRANCH  10  13
ATOM     13  N   LIG    1        3.176  -3.166  -1.628  0.00  0.00    -0.860 NA
ATOM     14  C   LIG    1        4.072  -2.220  -2.299  0.00  0.00    +0.320 C 
BRANCH  13  15
ATOM     15  O   LIG    1        2.663  -4.279  -2.337  0.00  0.00    -0.110 OA
ATOM     16  C   LIG    1        1.422  -4.024  -2.999  0.00  0.00    +0.210 C 
ENDBRANCH  13  15
ENDBRANCH  10  13
ENDBRANCH   5  10
ENDBRANCH   1   3
BRANCH   1  17
ATOM     17  O   LIG    1        1.139   2.162   0.003  0.00  0.00    -0.330 OA
BRANCH  17  18
ATOM     18  C   LIG    1        1.044   3.611   0.011  0.00  0.00    +0.270 C 
BRANCH  18  24
ATOM     19  N   LIG    1        3.983   7.414   0.004  0.00  0.00    -0.740 N 
ATOM     20  H   LIG    1        3.206   7.995   0.014  0.00  0.00    +0.400 HD
ATOM     21  C   LIG    1        3.825   6.076  -0.002  0.00  0.00    +0.690 C 
ATOM     22  N   LIG    1        2.587   5.544   0.007  0.00  0.00    -0.690 N 
ATOM     23  H   LIG    1        1.810   6.124   0.018  0.00  0.00    +0.410 HD
ATOM     24  C   LIG    1        2.428   4.205   0.002  0.00  0.00    +0.520 C 
ATOM     25  O   LIG    1        3.400   3.480  -0.012  0.00  0.00    -0.440 OA
ATOM     26  O   LIG    1        4.799   5.349  -0.015  0.00  0.00    -0.520 OA
BRANCH  19  27
ATOM     27  C   LIG    1        5.330   7.993  -0.006  0.00  0.00    +0.270 C 
BRANCH  27  29
ATOM     28  C   LIG    1        6.635  10.123  -0.007  0.00  0.00    +0.030 C 
ATOM     29  C   LIG    1        5.229   9.519   0.003  0.00  0.00    +0.000 C 
ENDBRANCH  27  29
ENDBRANCH  19  27
ENDBRANCH  18  24
ENDBRANCH  17  18
ENDBRANCH   1  17
TORSDOF 9
