REMARK  Name = ZINCrD00000hQ6lC.1
REMARK                            x       y       z     vdW  Elec       q    Type
REMARK                         _______ _______ _______ _____ _____    ______ ____
ROOT
ATOM      1  N   LIG    1       -1.031   3.252  -1.554  0.00  0.00    -0.610 N 
ATOM      2  C   LIG    1       -2.132   3.782  -0.986  0.00  0.00    +0.530 C 
ATOM      3  O   LIG    1       -2.127   4.936  -0.613  0.00  0.00    -0.520 OA
ENDROOT
BRANCH   2   4
ATOM      4  C   LIG    1       -3.370   2.939  -0.813  0.00  0.00    -0.010 C 
ATOM      5  C   LIG    1       -4.602   3.847  -0.769  0.00  0.00    +0.070 C 
ATOM      6  C   LIG    1       -5.871   2.989  -0.847  0.00  0.00    +0.120 C 
ATOM      7  C   LIG    1       -5.761   1.884   0.172  0.00  0.00    -0.030 A 
ATOM      8  C   LIG    1       -4.609   1.509   0.770  0.00  0.00    +0.010 A 
ATOM      9  N   LIG    1       -4.888   0.508   1.609  0.00  0.00    -0.480 NA
ATOM     10  C   LIG    1       -6.168   0.246   1.554  0.00  0.00    +0.210 A 
ATOM     11  N   LIG    1       -6.747   1.086   0.665  0.00  0.00    -0.550 N 
ATOM     12  H   LIG    1       -7.686   1.114   0.425  0.00  0.00    +0.420 HD
ATOM     13  C   LIG    1       -3.270   2.147   0.496  0.00  0.00    +0.140 C 
BRANCH  10  14
ATOM     14  C   LIG    1       -6.881  -0.817   2.350  0.00  0.00    +0.090 C 
ATOM     15  C   LIG    1       -8.007  -1.417   1.505  0.00  0.00    +0.030 C 
ATOM     16  C   LIG    1       -7.470  -0.195   3.618  0.00  0.00    +0.030 C 
ENDBRANCH  10  14
ENDBRANCH   2   4
BRANCH   1  17
ATOM     17  C   LIG    1        0.140   4.096  -1.810  0.00  0.00    +0.300 C 
BRANCH  17  18
ATOM     18  C   LIG    1        0.021   4.725  -3.199  0.00  0.00    +0.150 C 
BRANCH  18  20
ATOM     19  C   LIG    1       -1.280   6.280  -4.478  0.00  0.00    +0.190 C 
ATOM     20  O   LIG    1       -1.081   5.634  -3.218  0.00  0.00    -0.370 OA
ENDBRANCH  18  20
ENDBRANCH  17  18
ENDBRANCH   1  17
BRANCH   1  21
ATOM     21  C   LIG    1       -1.004   1.833  -1.917  0.00  0.00    +0.280 C 
BRANCH  21  22
ATOM     22  C   LIG    1       -0.283   1.041  -0.824  0.00  0.00    +0.060 C 
BRANCH  22  23
ATOM     23  C   LIG    1       -0.384  -0.433  -1.122  0.00  0.00    -0.080 A 
ATOM     24  C   LIG    1       -1.445  -1.167  -0.625  0.00  0.00    +0.020 A 
ATOM     25  C   LIG    1       -1.540  -2.518  -0.902  0.00  0.00    +0.000 A 
ATOM     26  C   LIG    1       -0.571  -3.136  -1.668  0.00  0.00    +0.000 A 
ATOM     27  C   LIG    1        0.492  -2.403  -2.161  0.00  0.00    +0.000 A 
ATOM     28  C   LIG    1        0.586  -1.052  -1.888  0.00  0.00    +0.000 A 
ENDBRANCH  22  23
ENDBRANCH  21  22
ENDBRANCH   1  21
TORSDOF 8
