REMARK  Name = ZINCrD00000hQ6lC.0
REMARK                            x       y       z     vdW  Elec       q    Type
REMARK                         _______ _______ _______ _____ _____    ______ ____
ROOT
ATOM      1  N   LIG    1        0.636  -2.796  -0.751  0.00  0.00    -0.610 N 
ATOM      2  C   LIG    1        1.657  -2.002  -0.374  0.00  0.00    +0.520 C 
ATOM      3  O   LIG    1        2.553  -2.448   0.311  0.00  0.00    -0.530 OA
ENDROOT
BRANCH   2   4
ATOM      4  C   LIG    1        1.686  -0.558  -0.805  0.00  0.00    +0.000 C 
ATOM      5  C   LIG    1        3.105  -0.005  -0.643  0.00  0.00    +0.060 C 
ATOM      6  C   LIG    1        3.198   1.374  -1.307  0.00  0.00    +0.130 C 
ATOM      7  C   LIG    1        2.048   2.218  -0.816  0.00  0.00    +0.010 A 
ATOM      8  C   LIG    1        0.951   1.719  -0.207  0.00  0.00    -0.030 A 
ATOM      9  N   LIG    1        0.142   2.773   0.087  0.00  0.00    -0.550 N 
ATOM     10  H   LIG    1       -0.723   2.732   0.525  0.00  0.00    +0.420 HD
ATOM     11  C   LIG    1        0.773   3.889  -0.346  0.00  0.00    +0.220 A 
ATOM     12  N   LIG    1        1.912   3.545  -0.887  0.00  0.00    -0.480 NA
ATOM     13  C   LIG    1        0.719   0.255   0.065  0.00  0.00    +0.130 C 
BRANCH  11  14
ATOM     14  C   LIG    1        0.246   5.296  -0.228  0.00  0.00    +0.090 C 
ATOM     15  C   LIG    1       -0.530   5.442   1.083  0.00  0.00    +0.030 C 
ATOM     16  C   LIG    1       -0.682   5.594  -1.407  0.00  0.00    +0.040 C 
ENDBRANCH  11  14
ENDBRANCH   2   4
BRANCH   1  17
ATOM     17  C   LIG    1       -0.396  -2.284  -1.656  0.00  0.00    +0.290 C 
BRANCH  17  18
ATOM     18  C   LIG    1        0.080  -2.426  -3.103  0.00  0.00    +0.150 C 
BRANCH  18  20
ATOM     19  C   LIG    1        0.655  -4.055  -4.764  0.00  0.00    +0.200 C 
ATOM     20  O   LIG    1        0.214  -3.811  -3.427  0.00  0.00    -0.380 OA
ENDBRANCH  18  20
ENDBRANCH  17  18
ENDBRANCH   1  17
BRANCH   1  21
ATOM     21  C   LIG    1        0.557  -4.173  -0.254  0.00  0.00    +0.300 C 
BRANCH  21  22
ATOM     22  C   LIG    1       -0.240  -4.199   1.052  0.00  0.00    +0.050 C 
BRANCH  22  23
ATOM     23  C   LIG    1       -0.320  -5.615   1.562  0.00  0.00    -0.080 A 
ATOM     24  C   LIG    1       -1.371  -6.428   1.181  0.00  0.00    +0.000 A 
ATOM     25  C   LIG    1       -1.442  -7.728   1.645  0.00  0.00    +0.000 A 
ATOM     26  C   LIG    1       -0.469  -8.211   2.499  0.00  0.00    +0.000 A 
ATOM     27  C   LIG    1        0.579  -7.396   2.885  0.00  0.00    +0.000 A 
ATOM     28  C   LIG    1        0.653  -6.098   2.416  0.00  0.00    +0.010 A 
ENDBRANCH  22  23
ENDBRANCH  21  22
ENDBRANCH   1  21
TORSDOF 8
