REMARK  Name = ZINCrD0000075a4T.0
REMARK                            x       y       z     vdW  Elec       q    Type
REMARK                         _______ _______ _______ _____ _____    ______ ____
ROOT
ATOM      1  C   LIG    1        2.490  -6.867  -8.731  0.00  0.00    +0.150 C 
ATOM      2  C   LIG    1        2.783  -6.435  -7.317  0.00  0.00    -0.250 A 
ATOM      3  C   LIG    1        3.947  -6.607  -6.665  0.00  0.00    +0.120 A 
ATOM      4  N   LIG    1        3.977  -6.145  -5.423  0.00  0.00    -0.490 NA
ATOM      5  C   LIG    1        2.895  -5.585  -4.978  0.00  0.00    +0.270 A 
ATOM      6  S   LIG    1        1.659  -5.622  -6.231  0.00  0.00    +0.210 S 
ENDROOT
BRANCH   3   7
ATOM      7  C   LIG    1        5.117  -7.270  -7.293  0.00  0.00    -0.010 A 
ATOM      8  C   LIG    1        4.927  -8.326  -8.181  0.00  0.00    +0.060 A 
ATOM      9  C   LIG    1        6.016  -8.939  -8.768  0.00  0.00    +0.040 A 
ATOM     10  C   LIG    1        7.300  -8.513  -8.469  0.00  0.00    +0.040 A 
ATOM     11  O   LIG    1        8.520  -8.947  -8.904  0.00  0.00    -0.310 OA
ATOM     12  C   LIG    1        9.473  -8.425  -7.960  0.00  0.00    +0.430 C 
ATOM     13  O   LIG    1        8.837  -7.236  -7.454  0.00  0.00    -0.310 OA
ATOM     14  C   LIG    1        7.496  -7.460  -7.577  0.00  0.00    +0.030 A 
ATOM     15  C   LIG    1        6.408  -6.840  -6.991  0.00  0.00    +0.070 A 
ENDBRANCH   3   7
BRANCH   5  16
ATOM     16  N   LIG    1        2.736  -5.044  -3.708  0.00  0.00    -0.620 N 
ATOM     17  H   LIG    1        3.470  -5.069  -3.074  0.00  0.00    +0.430 HD
ATOM     18  C   LIG    1        1.561  -4.486  -3.356  0.00  0.00    +0.550 C 
ATOM     19  O   LIG    1        0.643  -4.454  -4.148  0.00  0.00    -0.500 OA
BRANCH  18  20
ATOM     20  C   LIG    1        1.388  -3.899  -1.978  0.00  0.00    -0.040 C 
ATOM     21  C   LIG    1        0.437  -4.618  -1.019  0.00  0.00    +0.100 C 
ATOM     22  C   LIG    1        0.030  -3.280  -1.640  0.00  0.00    +0.110 C 
BRANCH  22  23
ATOM     23  C   LIG    1        0.023  -2.070  -0.741  0.00  0.00    +0.090 A 
ATOM     24  N   LIG    1       -0.003  -0.822  -1.135  0.00  0.00    -0.280 NA
ATOM     25  N   LIG    1        0.002  -0.004   0.002  0.00  0.00    -0.370 N 
ATOM     26  C   LIG    1        0.023  -0.804   1.089  0.00  0.00    +0.240 A 
ATOM     27  C   LIG    1       -0.018   1.461   0.010  0.00  0.00    +0.360 C 
ATOM     28  C   LIG    1        0.036  -2.086   0.657  0.00  0.00    -0.120 A 
ENDBRANCH  22  23
ENDBRANCH  18  20
ENDBRANCH   5  16
TORSDOF 4
