REMARK  Name = ZINCAx0000000k2x.0
REMARK                            x       y       z     vdW  Elec       q    Type
REMARK                         _______ _______ _______ _____ _____    ______ ____
ROOT
ATOM      1  N   LIG    1        5.766   3.351   0.139  0.00  0.00    -0.590 N 
ATOM      2  C   LIG    1        6.012   2.850   1.366  0.00  0.00    +0.530 C 
ATOM      3  O   LIG    1        5.398   3.266   2.325  0.00  0.00    -0.500 OA
ENDROOT
BRANCH   1   4
ATOM      4  C   LIG    1        6.428   2.773  -1.034  0.00  0.00    +0.230 C 
ATOM      5  C   LIG    1        7.156   3.877  -1.803  0.00  0.00    +0.040 C 
BRANCH   4   7
ATOM      6  C   LIG    1        4.767   0.917  -1.230  0.00  0.00    +0.020 C 
ATOM      7  C   LIG    1        5.381   2.124  -1.941  0.00  0.00    +0.000 C 
ENDBRANCH   4   7
ENDBRANCH   1   4
BRANCH   2   8
ATOM      8  C   LIG    1        7.051   1.773   1.546  0.00  0.00    +0.270 C 
BRANCH   8   9
ATOM      9  O   LIG    1        7.052   1.328   2.928  0.00  0.00    -0.320 OA
BRANCH   9  10
ATOM     10  C   LIG    1        7.926   0.364   3.257  0.00  0.00    +0.470 C 
ATOM     11  O   LIG    1        8.666  -0.092   2.418  0.00  0.00    -0.480 OA
BRANCH  10  12
ATOM     12  C   LIG    1        7.984  -0.149   4.673  0.00  0.00    +0.320 C 
BRANCH  12  13
ATOM     13  O   LIG    1        8.986  -1.163   4.771  0.00  0.00    -0.270 OA
BRANCH  13  14
ATOM     14  C   LIG    1        9.168  -1.734   5.989  0.00  0.00    +0.340 A 
ATOM     15  N   LIG    1        8.445  -1.350   7.004  0.00  0.00    -0.310 NA
ATOM     16  N   LIG    1        8.586  -1.900   8.279  0.00  0.00    -0.510 N 
ATOM     17  H   LIG    1        8.021  -1.576   8.997  0.00  0.00    +0.440 HD
ATOM     18  C   LIG    1        9.488  -2.869   8.539  0.00  0.00    +0.530 A 
ATOM     19  C   LIG    1       10.341  -3.355   7.447  0.00  0.00    -0.110 A 
ATOM     20  C   LIG    1       11.293  -4.354   7.644  0.00  0.00    +0.090 A 
ATOM     21  C   LIG    1       12.068  -4.772   6.584  0.00  0.00    +0.040 A 
ATOM     22  C   LIG    1       11.909  -4.210   5.325  0.00  0.00    +0.050 A 
ATOM     23  C   LIG    1       10.974  -3.222   5.107  0.00  0.00    +0.070 A 
ATOM     24  O   LIG    1        9.592  -3.333   9.661  0.00  0.00    -0.520 OA
ATOM     25  C   LIG    1       10.175  -2.786   6.164  0.00  0.00    -0.050 A 
ENDBRANCH  13  14
ENDBRANCH  12  13
ENDBRANCH  10  12
ENDBRANCH   9  10
ENDBRANCH   8   9
ENDBRANCH   2   8
BRANCH   1  26
ATOM     26  C   LIG    1        4.838   4.473  -0.022  0.00  0.00    +0.340 C 
BRANCH  26  27
ATOM     27  C   LIG    1        3.425   3.951  -0.074  0.00  0.00    +0.500 C 
ATOM     28  N   LIG    1        2.405   4.793  -0.335  0.00  0.00    -0.670 N 
ATOM     29  H   LIG    1        2.586   5.721  -0.555  0.00  0.00    +0.410 HD
ATOM     30  O   LIG    1        3.205   2.774   0.118  0.00  0.00    -0.490 OA
BRANCH  28  31
ATOM     31  C   LIG    1        1.086   4.330  -0.289  0.00  0.00    +0.150 A 
ATOM     32  C   LIG    1        0.794   3.024  -0.661  0.00  0.00    +0.020 A 
ATOM     33  C   LIG    1       -0.510   2.569  -0.614  0.00  0.00    +0.020 A 
ATOM     34  C   LIG    1       -1.524   3.414  -0.203  0.00  0.00    -0.010 A 
ATOM     35  C   LIG    1       -1.236   4.714   0.174  0.00  0.00    -0.070 A 
ATOM     36  C   LIG    1       -2.343   5.630   0.627  0.00  0.00    +0.090 C 
ATOM     37  C   LIG    1        0.066   5.174   0.129  0.00  0.00    -0.110 A 
ATOM     38  C   LIG    1        0.378   6.592   0.534  0.00  0.00    +0.090 C 
ENDBRANCH  28  31
ENDBRANCH  26  27
ENDBRANCH   1  26
TORSDOF 11
