REMARK  Name = ZINCrD000000fGLh.0
REMARK                            x       y       z     vdW  Elec       q    Type
REMARK                         _______ _______ _______ _____ _____    ______ ____
ROOT
ATOM      1  C   LIG    1        0.042   2.126  -2.349  0.00  0.00    +0.510 C 
ATOM      2  N   LIG    1       -0.565   1.962  -1.157  0.00  0.00    -0.720 N 
ATOM      3  H   LIG    1       -1.507   2.169  -1.060  0.00  0.00    +0.410 HD
ATOM      4  O   LIG    1        1.220   1.868  -2.471  0.00  0.00    -0.520 OA
ENDROOT
BRANCH   2   5
ATOM      5  C   LIG    1        0.201   1.472  -0.008  0.00  0.00    +0.340 C 
ATOM      6  C   LIG    1        0.237  -0.057  -0.034  0.00  0.00    +0.060 C 
BRANCH   5   7
ATOM      7  C   LIG    1       -0.455   1.937   1.267  0.00  0.00    +0.270 A 
ATOM      8  N   LIG    1       -1.713   2.246   1.389  0.00  0.00    -0.480 NA
ATOM      9  C   LIG    1       -1.970   2.620   2.669  0.00  0.00    +0.050 A 
ATOM     10  C   LIG    1       -3.123   3.038   3.337  0.00  0.00    +0.070 A 
ATOM     11  C   LIG    1       -3.061   3.361   4.664  0.00  0.00    +0.000 A 
ATOM     12  C   LIG    1       -1.863   3.277   5.358  0.00  0.00    +0.030 A 
ATOM     13  C   LIG    1       -0.712   2.866   4.718  0.00  0.00    +0.010 A 
ATOM     14  C   LIG    1       -0.755   2.534   3.371  0.00  0.00    +0.050 A 
ATOM     15  N   LIG    1        0.184   2.100   2.457  0.00  0.00    -0.590 N 
ATOM     16  H   LIG    1        1.124   1.940   2.632  0.00  0.00    +0.430 HD
ENDBRANCH   5   7
ENDBRANCH   2   5
BRANCH   1  17
ATOM     17  C   LIG    1       -0.745   2.631  -3.532  0.00  0.00    +0.060 C 
BRANCH  17  18
ATOM     18  C   LIG    1        0.172   2.725  -4.752  0.00  0.00    +0.310 C 
BRANCH  18  19
ATOM     19  C   LIG    1       -0.582   3.344  -5.901  0.00  0.00    -0.110 A 
ATOM     20  C   LIG    1       -1.526   2.603  -6.587  0.00  0.00    +0.020 A 
ATOM     21  C   LIG    1       -2.221   3.173  -7.637  0.00  0.00    +0.000 A 
ATOM     22  C   LIG    1       -1.965   4.479  -8.008  0.00  0.00    -0.080 A 
ATOM     23  C   LIG    1       -1.017   5.218  -7.326  0.00  0.00    +0.000 A 
ATOM     24  C   LIG    1       -2.718   5.098  -9.158  0.00  0.00    +0.090 C 
ATOM     25  C   LIG    1       -0.325   4.651  -6.272  0.00  0.00    +0.030 A 
ENDBRANCH  18  19
BRANCH  18  28
ATOM     26  C   LIG    1        2.151  -0.138  -6.341  0.00  0.00    +0.080 C 
ATOM     27  C   LIG    1        1.752   1.229  -5.849  0.00  0.00    +0.520 C 
ATOM     28  N   LIG    1        0.622   1.383  -5.130  0.00  0.00    -0.720 N 
ATOM     29  H   LIG    1        0.108   0.606  -4.862  0.00  0.00    +0.400 HD
ATOM     30  O   LIG    1        2.447   2.191  -6.101  0.00  0.00    -0.540 OA
ENDBRANCH  18  28
ENDBRANCH  17  18
ENDBRANCH   1  17
TORSDOF 6
