REMARK  Name = ZINCrD00000747fW.0
REMARK                            x       y       z     vdW  Elec       q    Type
REMARK                         _______ _______ _______ _____ _____    ______ ____
ROOT
ATOM      1  N   LIG    1       -1.117  -0.105  -4.801  0.00  0.00    -0.720 N 
ATOM      2  H   LIG    1       -1.157  -0.550  -3.940  0.00  0.00    +0.400 HD
ATOM      3  C   LIG    1       -2.205   0.523  -5.286  0.00  0.00    +0.520 C 
ATOM      4  O   LIG    1       -2.155   1.079  -6.363  0.00  0.00    -0.530 OA
ENDROOT
BRANCH   3   5
ATOM      5  C   LIG    1       -3.485   0.536  -4.491  0.00  0.00    -0.010 C 
ATOM      6  C   LIG    1       -3.958  -0.901  -4.262  0.00  0.00    +0.040 C 
ATOM      7  C   LIG    1       -5.240  -0.886  -3.424  0.00  0.00    +0.290 C 
ATOM      8  N   LIG    1       -6.228  -0.024  -4.087  0.00  0.00    -0.610 N 
ATOM      9  C   LIG    1       -5.846   1.351  -4.434  0.00  0.00    +0.280 C 
ATOM     10  C   LIG    1       -7.462  -0.486  -4.370  0.00  0.00    +0.570 C 
ATOM     11  O   LIG    1       -7.737  -1.652  -4.162  0.00  0.00    -0.530 OA
ATOM     12  C   LIG    1       -4.557   1.311  -5.261  0.00  0.00    +0.060 C 
BRANCH  10  13
ATOM     13  C   LIG    1       -8.481   0.424  -4.934  0.00  0.00    -0.190 A 
ATOM     14  C   LIG    1       -9.344  -0.012  -5.947  0.00  0.00    +0.120 A 
ATOM     15  C   LIG    1      -10.283   0.878  -6.437  0.00  0.00    -0.020 A 
ATOM     16  C   LIG    1      -10.332   2.162  -5.924  0.00  0.00    +0.280 A 
ATOM     17  N   LIG    1       -9.502   2.547  -4.973  0.00  0.00    -0.480 NA
ATOM     18  C   LIG    1       -8.595   1.736  -4.470  0.00  0.00    +0.290 A 
ENDBRANCH  10  13
ENDBRANCH   3   5
BRANCH   1  20
ATOM     19  C   LIG    1        0.091  -1.270  -6.580  0.00  0.00    +0.030 C 
ATOM     20  C   LIG    1        0.128  -0.118  -5.574  0.00  0.00    +0.240 C 
BRANCH  20  21
ATOM     21  C   LIG    1        1.315  -0.304  -4.627  0.00  0.00    +0.080 C 
BRANCH  21  22
ATOM     22  C   LIG    1        1.424   0.891  -3.716  0.00  0.00    -0.070 A 
ATOM     23  C   LIG    1        0.757   0.900  -2.506  0.00  0.00    +0.010 A 
ATOM     24  C   LIG    1        0.856   1.997  -1.669  0.00  0.00    +0.030 A 
ATOM     25  C   LIG    1        1.623   3.084  -2.043  0.00  0.00    +0.020 A 
ATOM     26  C   LIG    1        2.292   3.075  -3.255  0.00  0.00    -0.030 A 
ATOM     27 CL   LIG    1        3.255   4.440  -3.725  0.00  0.00    -0.070 Cl
ATOM     28  C   LIG    1        2.195   1.976  -4.089  0.00  0.00    +0.020 A 
ENDBRANCH  21  22
ENDBRANCH  20  21
ENDBRANCH   1  20
TORSDOF 5
