REMARK  Name = ZINCrg00000MPgG2.0
REMARK                            x       y       z     vdW  Elec       q    Type
REMARK                         _______ _______ _______ _____ _____    ______ ____
ROOT
ATOM      1  C   LIG    1        1.803  -1.536  -0.052  0.00  0.00    +0.510 C 
ATOM      2  N   LIG    1        0.647  -1.471   0.638  0.00  0.00    -0.600 N 
ATOM      3  O   LIG    1        2.114  -2.563  -0.618  0.00  0.00    -0.500 OA
ENDROOT
BRANCH   1   9
ATOM      4  C   LIG    1        3.750  -0.335   1.054  0.00  0.00    -0.140 C 
ATOM      5  C   LIG    1        4.909   0.604   0.595  0.00  0.00    +0.080 C 
ATOM      6  C   LIG    1        4.929  -0.449  -0.582  0.00  0.00    +0.070 C 
ATOM      7  O   LIG    1        3.627  -0.422  -1.245  0.00  0.00    -0.310 OA
ATOM      8  C   LIG    1        6.174  -0.558  -1.465  0.00  0.00    +0.130 C 
ATOM      9  C   LIG    1        2.710  -0.335  -0.119  0.00  0.00    +0.200 C 
ATOM     10  C   LIG    1        4.732  -1.443   0.589  0.00  0.00    +0.070 C 
BRANCH   4  11
ATOM     11  C   LIG    1        3.242  -0.284   2.472  0.00  0.00    +0.500 C 
ATOM     12  O   LIG    1        3.240  -1.284   3.150  0.00  0.00    -0.480 OA
BRANCH  11  13
ATOM     13  O   LIG    1        2.791   0.873   2.983  0.00  0.00    -0.350 OA
BRANCH  13  15
ATOM     14  C   LIG    1        2.062   2.302   4.815  0.00  0.00    +0.060 C 
ATOM     15  C   LIG    1        2.464   0.886   4.398  0.00  0.00    +0.200 C 
ENDBRANCH  13  15
ENDBRANCH  11  13
ENDBRANCH   4  11
ENDBRANCH   1   9
BRANCH   2  16
ATOM     16  C   LIG    1        0.196  -0.192   1.191  0.00  0.00    +0.230 C 
ATOM     17  C   LIG    1       -0.074  -0.349   2.691  0.00  0.00    -0.020 C 
ATOM     18  C   LIG    1       -0.621   0.969   3.244  0.00  0.00    +0.220 C 
ATOM     19  O   LIG    1       -1.805   1.331   2.530  0.00  0.00    -0.380 OA
ATOM     20  C   LIG    1       -1.602   1.538   1.131  0.00  0.00    +0.220 C 
ATOM     21  C   LIG    1       -1.096   0.242   0.492  0.00  0.00    -0.010 C 
ENDBRANCH   2  16
BRANCH   2  22
ATOM     22  C   LIG    1       -0.159  -2.679   0.833  0.00  0.00    +0.320 C 
BRANCH  22  23
ATOM     23  C   LIG    1       -1.153  -2.821  -0.322  0.00  0.00    +0.080 C 
BRANCH  23  24
ATOM     24  C   LIG    1       -1.982  -4.063  -0.120  0.00  0.00    +0.470 C 
ATOM     25  O   LIG    1       -1.797  -4.763   0.847  0.00  0.00    -0.510 OA
BRANCH  24  26
ATOM     26  O   LIG    1       -2.925  -4.393  -1.016  0.00  0.00    -0.360 OA
ATOM     27  C   LIG    1       -3.686  -5.603  -0.758  0.00  0.00    +0.250 C 
ENDBRANCH  24  26
ENDBRANCH  23  24
ENDBRANCH  22  23
ENDBRANCH   2  22
TORSDOF 9
