REMARK  Name = ZINCkj000005fIu4.0
REMARK                            x       y       z     vdW  Elec       q    Type
REMARK                         _______ _______ _______ _____ _____    ______ ____
ROOT
ATOM      1  N   LIG    1        0.017   1.157   2.464  0.00  0.00    -1.000 NA
ENDROOT
BRANCH   1   2
ATOM      2  C   LIG    1       -0.756   1.626   1.312  0.00  0.00    +0.250 C 
ATOM      3  C   LIG    1       -0.214   0.980   0.034  0.00  0.00    +0.040 C 
ATOM      4  C   LIG    1       -0.973   1.534  -1.174  0.00  0.00    +0.270 C 
ATOM      5  N   LIG    1       -0.792   2.989  -1.245  0.00  0.00    -0.510 N 
ATOM      6  C   LIG    1       -1.375   3.622  -0.056  0.00  0.00    +0.270 C 
ATOM      7  H   LIG    1       -1.250   3.344  -2.071  0.00  0.00    +0.430 HD
ATOM      8  H   LIG    1        0.193   3.202  -1.290  0.00  0.00    +0.430 HD
ATOM      9  C   LIG    1       -0.631   3.148   1.195  0.00  0.00    +0.060 C 
ENDBRANCH   1   2
BRANCH   1  10
ATOM     10  S   LIG    1       -0.708   0.225   3.625  0.00  0.00    +2.600 S 
ATOM     11  O   LIG    1       -2.082   0.584   3.554  0.00  0.00    -0.950 OA
ATOM     12  O   LIG    1        0.053   0.472   4.799  0.00  0.00    -0.920 OA
BRANCH  10  13
ATOM     13  C   LIG    1       -0.465  -1.479   3.055  0.00  0.00    -0.340 C 
BRANCH  13  14
ATOM     14  C   LIG    1       -1.099  -2.447   4.056  0.00  0.00    +0.170 C 
ATOM     15  C   LIG    1       -0.893  -3.886   3.575  0.00  0.00    +0.020 C 
ATOM     16  C   LIG    1       -1.477  -4.851   4.611  0.00  0.00    +0.020 C 
ATOM     17  C   LIG    1       -0.814  -4.590   5.967  0.00  0.00    +0.000 C 
ATOM     18  C   LIG    1       -1.023  -3.124   6.355  0.00  0.00    +0.230 C 
ATOM     19  O   LIG    1       -0.484  -2.281   5.335  0.00  0.00    -0.380 OA
ENDBRANCH  13  14
ENDBRANCH  10  13
ENDBRANCH   1  10
BRANCH   1  20
ATOM     20  C   LIG    1        1.433   1.512   2.589  0.00  0.00    +0.290 C 
BRANCH  20  22
ATOM     21  C   LIG    1        3.030   3.286   3.329  0.00  0.00    +0.020 C 
ATOM     22  C   LIG    1        1.560   2.861   3.299  0.00  0.00    +0.000 C 
ENDBRANCH  20  22
ENDBRANCH   1  20
TORSDOF 6
