REMARK  Name = ZINCrH000004t2Rb.0
REMARK                            x       y       z     vdW  Elec       q    Type
REMARK                         _______ _______ _______ _____ _____    ______ ____
ROOT
ATOM      1  C   LIG    1       -0.767   3.027   1.119  0.00  0.00    +0.090 C 
ATOM      2  C   LIG    1       -2.227   3.401   1.457  0.00  0.00    +0.280 C 
ATOM      3  N   LIG    1       -2.821   2.151   1.986  0.00  0.00    -0.610 N 
ATOM      4  C   LIG    1       -2.258   1.083   1.125  0.00  0.00    +0.260 C 
ATOM      5  C   LIG    1       -3.678   2.015   3.017  0.00  0.00    +0.580 C 
ATOM      6  O   LIG    1       -4.100   3.000   3.591  0.00  0.00    -0.520 OA
ATOM      7  C   LIG    1       -0.788   1.500   0.900  0.00  0.00    -0.070 C 
ATOM      8  C   LIG    1        0.123   0.804   1.913  0.00  0.00    +0.040 C 
ATOM      9  C   LIG    1       -0.352   1.161  -0.527  0.00  0.00    +0.040 C 
ENDROOT
BRANCH   5  10
ATOM     10  C   LIG    1       -4.104   0.668   3.450  0.00  0.00    -0.100 A 
ATOM     11  C   LIG    1       -4.172  -0.376   2.525  0.00  0.00    +0.070 A 
ATOM     12  C   LIG    1       -4.566  -1.633   2.933  0.00  0.00    +0.040 A 
ATOM     13  C   LIG    1       -4.904  -1.862   4.257  0.00  0.00    +0.120 A 
ATOM     14  C   LIG    1       -4.843  -0.826   5.183  0.00  0.00    +0.070 A 
ATOM     15  F   LIG    1       -5.293  -3.094   4.649  0.00  0.00    -0.120 F 
ATOM     16  C   LIG    1       -4.445   0.437   4.784  0.00  0.00    +0.050 A 
BRANCH  14  17
ATOM     17  O   LIG    1       -5.175  -1.055   6.482  0.00  0.00    -0.300 OA
BRANCH  17  18
ATOM     18  C   LIG    1       -5.090   0.054   7.379  0.00  0.00    +0.600 C 
ATOM     19  F   LIG    1       -3.775   0.532   7.406  0.00  0.00    -0.160 F 
ATOM     20  F   LIG    1       -5.464  -0.355   8.663  0.00  0.00    -0.130 F 
ATOM     21  F   LIG    1       -5.947   1.072   6.945  0.00  0.00    -0.160 F 
ENDBRANCH  17  18
ENDBRANCH  14  17
ENDBRANCH   5  10
BRANCH   1  25
ATOM     22  C   LIG    1        3.114   4.762   3.774  0.00  0.00    +0.360 C 
ATOM     23  N   LIG    1        1.838   4.137   3.417  0.00  0.00    -0.380 N 
ATOM     24  C   LIG    1        1.338   4.010   2.170  0.00  0.00    +0.230 A 
ATOM     25  C   LIG    1        0.144   3.379   2.266  0.00  0.00    -0.220 A 
ATOM     26  C   LIG    1       -0.096   3.117   3.619  0.00  0.00    +0.230 A 
ATOM     27  N   LIG    1        0.921   3.566   4.309  0.00  0.00    -0.290 NA
ENDBRANCH   1  25
TORSDOF 4
