REMARK  Name = ZINCkj000005jmmm.0
REMARK                            x       y       z     vdW  Elec       q    Type
REMARK                         _______ _______ _______ _____ _____    ______ ____
ROOT
ATOM      1  C   LIG    1       -2.296   3.197  -2.350  0.00  0.00    -0.050 A 
ATOM      2  C   LIG    1       -3.156   2.499  -3.148  0.00  0.00    +0.010 A 
ATOM      3  C   LIG    1       -3.706   3.136  -4.343  0.00  0.00    +0.530 A 
ATOM      4  N   LIG    1       -3.378   4.399  -4.666  0.00  0.00    -0.630 N 
ATOM      5  H   LIG    1       -3.756   4.799  -5.465  0.00  0.00    +0.420 HD
ATOM      6  C   LIG    1       -2.513   5.138  -3.887  0.00  0.00    +0.190 A 
ATOM      7  C   LIG    1       -2.185   6.444  -4.240  0.00  0.00    -0.020 A 
ATOM      8  C   LIG    1       -1.320   7.170  -3.452  0.00  0.00    +0.090 A 
ATOM      9  C   LIG    1       -0.769   6.612  -2.306  0.00  0.00    -0.010 A 
ATOM     10  C   LIG    1       -1.076   5.332  -1.941  0.00  0.00    +0.070 A 
ATOM     11  O   LIG    1       -4.473   2.514  -5.055  0.00  0.00    -0.510 OA
ATOM     12  C   LIG    1       -1.957   4.579  -2.722  0.00  0.00    -0.120 A 
ENDROOT
BRANCH   1  22
ATOM     13  C   LIG    1       -0.793   1.601   1.216  0.00  0.00    +0.100 C 
ATOM     14  C   LIG    1       -0.156   1.027  -0.051  0.00  0.00    +0.230 C 
ATOM     15  C   LIG    1        1.362   1.226   0.001  0.00  0.00    +0.270 C 
ATOM     16  N   LIG    1        1.955   0.795  -1.272  0.00  0.00    -0.510 N 
ATOM     17  C   LIG    1        1.480   1.656  -2.362  0.00  0.00    +0.270 C 
ATOM     18  C   LIG    1       -0.033   1.478  -2.530  0.00  0.00    +0.310 C 
ATOM     19  H   LIG    1        1.687  -0.160  -1.459  0.00  0.00    +0.430 HD
ATOM     20  H   LIG    1        2.960   0.856  -1.211  0.00  0.00    +0.440 HD
ATOM     21  N   LIG    1       -0.679   1.729  -1.233  0.00  0.00    -0.630 N 
ATOM     22  C   LIG    1       -1.721   2.577  -1.131  0.00  0.00    +0.580 C 
ATOM     23  O   LIG    1       -2.190   2.835  -0.040  0.00  0.00    -0.480 OA
ENDBRANCH   1  22
TORSDOF 1
