REMARK  Name = ZINCpk000000pOjy.0
REMARK                            x       y       z     vdW  Elec       q    Type
REMARK                         _______ _______ _______ _____ _____    ______ ____
ROOT
ATOM      1  C   LIG    1        0.003  -0.003   0.000  0.00  0.00    +0.270 C 
ENDROOT
BRANCH   1   2
ATOM      2  C   LIG    1        1.353  -0.408   0.535  0.00  0.00    +0.520 C 
ATOM      3  N   LIG    1        1.580  -1.688   0.891  0.00  0.00    -0.610 N 
ATOM      4  C   LIG    1        0.564  -2.728   0.667  0.00  0.00    +0.250 C 
ATOM      5  C   LIG    1        1.230  -3.906  -0.053  0.00  0.00    +0.210 C 
ATOM      6  O   LIG    1        2.396  -4.303   0.672  0.00  0.00    -0.370 OA
ATOM      7  C   LIG    1        3.406  -3.295   0.753  0.00  0.00    +0.100 C 
ATOM      8  C   LIG    1        3.816  -2.867  -0.658  0.00  0.00    +0.020 C 
ATOM      9  C   LIG    1        4.625  -3.851   1.493  0.00  0.00    +0.080 C 
ATOM     10  C   LIG    1        2.855  -2.087   1.509  0.00  0.00    +0.270 C 
ATOM     11  O   LIG    1        2.234   0.418   0.646  0.00  0.00    -0.530 OA
ENDBRANCH   1   2
BRANCH   1  13
ATOM     12  C   LIG    1       -1.449   0.039  -2.033  0.00  0.00    +0.040 C 
ATOM     13  C   LIG    1       -0.036  -0.235  -1.512  0.00  0.00    +0.030 C 
ENDBRANCH   1  13
BRANCH   1  14
ATOM     14  N   LIG    1       -0.228   1.416   0.283  0.00  0.00    -0.680 N 
ATOM     15  H   LIG    1        0.524   2.015   0.405  0.00  0.00    +0.420 HD
BRANCH  14  16
ATOM     16  C   LIG    1       -1.521   1.902   0.371  0.00  0.00    +0.510 A 
ATOM     17  N   LIG    1       -2.628   1.208   0.224  0.00  0.00    -0.360 NA
ATOM     18  N   LIG    1       -3.656   1.964   0.368  0.00  0.00    -0.010 NA
ATOM     19  N   LIG    1       -3.291   3.176   0.613  0.00  0.00    -0.080 NA
ATOM     20  N   LIG    1       -1.885   3.182   0.630  0.00  0.00    -0.370 N 
BRANCH  20  21
ATOM     21  C   LIG    1       -1.041   4.277   0.864  0.00  0.00    +0.130 A 
ATOM     22  C   LIG    1        0.154   4.100   1.548  0.00  0.00    +0.000 A 
ATOM     23  C   LIG    1        0.987   5.180   1.771  0.00  0.00    +0.050 A 
ATOM     24  C   LIG    1        0.625   6.437   1.325  0.00  0.00    +0.030 A 
ATOM     25  C   LIG    1       -0.567   6.617   0.648  0.00  0.00    +0.040 A 
ATOM     26  C   LIG    1       -1.401   5.541   0.416  0.00  0.00    +0.040 A 
ENDBRANCH  20  21
ENDBRANCH  14  16
ENDBRANCH   1  14
TORSDOF 5
