REMARK  Name = ZINCpe000000WnOu.0
REMARK                            x       y       z     vdW  Elec       q    Type
REMARK                         _______ _______ _______ _____ _____    ______ ____
ROOT
ATOM      1  C   LIG    1        1.380   2.069   0.000  0.00  0.00    -0.060 C 
ATOM      2  C   LIG    1        2.443   1.380   0.338  0.00  0.00    -0.050 C 
ATOM      3  C   LIG    1        2.396  -0.060   0.767  0.00  0.00    +0.320 C 
ATOM      4  N   LIG    1        0.997  -0.450   0.993  0.00  0.00    -0.610 N 
ATOM      5  C   LIG    1        0.002  -0.004   0.002  0.00  0.00    +0.290 C 
ATOM      6  C   LIG    1        0.638  -1.186   2.063  0.00  0.00    +0.500 C 
ATOM      7  O   LIG    1       -0.523  -1.494   2.226  0.00  0.00    -0.520 OA
ATOM      8  C   LIG    1       -0.019   1.527   0.010  0.00  0.00    +0.070 C 
ENDROOT
BRANCH   1  12
ATOM      9  C   LIG    1        1.931   6.105  -1.207  0.00  0.00    +0.130 A 
ATOM     10  C   LIG    1        2.462   5.074  -1.972  0.00  0.00    -0.020 A 
ATOM     11  C   LIG    1        2.285   3.763  -1.584  0.00  0.00    +0.060 A 
ATOM     12  C   LIG    1        1.572   3.473  -0.420  0.00  0.00    -0.100 A 
ATOM     13  C   LIG    1        1.036   4.511   0.344  0.00  0.00    +0.070 A 
ATOM     14  C   LIG    1        1.222   5.819  -0.048  0.00  0.00    -0.080 A 
BRANCH   9  16
ATOM     15  C   LIG    1        1.536   8.405  -0.760  0.00  0.00    +0.250 C 
ATOM     16  O   LIG    1        2.107   7.395  -1.593  0.00  0.00    -0.320 OA
ENDBRANCH   9  16
ENDBRANCH   1  12
BRANCH   6  17
ATOM     17  C   LIG    1        1.681  -1.627   3.058  0.00  0.00    +0.350 C 
BRANCH  17  18
ATOM     18  N   LIG    1        1.043  -2.407   4.121  0.00  0.00    -0.520 N 
ATOM     19  C   LIG    1        0.924  -3.764   3.987  0.00  0.00    +0.360 A 
ATOM     20  C   LIG    1        0.336  -4.483   4.967  0.00  0.00    -0.120 A 
ATOM     21  C   LIG    1       -0.147  -3.815   6.118  0.00  0.00    +0.550 A 
ATOM     22  N   LIG    1       -0.010  -2.476   6.211  0.00  0.00    -0.660 N 
ATOM     23  H   LIG    1       -0.339  -2.011   6.997  0.00  0.00    +0.430 HD
ATOM     24  O   LIG    1       -0.681  -4.442   7.015  0.00  0.00    -0.510 OA
ATOM     25  C   LIG    1        0.584  -1.784   5.222  0.00  0.00    +0.700 A 
ATOM     26  O   LIG    1        0.704  -0.579   5.322  0.00  0.00    -0.540 OA
ENDBRANCH  17  18
ENDBRANCH   6  17
TORSDOF 4
