REMARK  Name = ZINCrg00001JduRG.0
REMARK                            x       y       z     vdW  Elec       q    Type
REMARK                         _______ _______ _______ _____ _____    ______ ____
ROOT
ATOM      1  N   LIG    1       -2.599   0.906   1.853  0.00  0.00    -0.530 NA
ATOM      2  C   LIG    1       -1.585   0.012   2.427  0.00  0.00    +0.170 C 
ATOM      3  C   LIG    1       -1.697   0.033   3.955  0.00  0.00    +0.290 C 
ATOM      4  N   LIG    1       -3.085  -0.282   4.326  0.00  0.00    -0.610 N 
ATOM      5  C   LIG    1       -4.166   0.482   3.686  0.00  0.00    +0.300 C 
ATOM      6  C   LIG    1       -3.358  -1.245   5.228  0.00  0.00    +0.500 C 
ATOM      7  O   LIG    1       -4.509  -1.491   5.522  0.00  0.00    -0.510 OA
ATOM      8  C   LIG    1       -3.957   0.444   2.168  0.00  0.00    +0.170 C 
ENDROOT
BRANCH   1   9
ATOM      9  C   LIG    1       -2.415   1.048   0.402  0.00  0.00    +0.220 C 
BRANCH   9  11
ATOM     10  C   LIG    1       -0.017   1.044  -0.122  0.00  0.00    -0.020 C 
ATOM     11  C   LIG    1       -1.110   1.751   0.128  0.00  0.00    -0.090 C 
ATOM     12  C   LIG    1       -1.049   3.256   0.137  0.00  0.00    +0.090 C 
BRANCH  10  18
ATOM     13  C   LIG    1        2.461   1.293  -0.060  0.00  0.00    -0.080 A 
ATOM     14  C   LIG    1        3.616   1.935  -0.455  0.00  0.00    +0.030 A 
ATOM     15  C   LIG    1        3.552   3.007  -1.327  0.00  0.00    +0.000 A 
ATOM     16  C   LIG    1        2.330   3.443  -1.808  0.00  0.00    +0.000 A 
ATOM     17  C   LIG    1        1.167   2.806  -1.424  0.00  0.00    +0.020 A 
ATOM     18  C   LIG    1        1.225   1.728  -0.541  0.00  0.00    -0.050 A 
BRANCH  13  19
ATOM     19  C   LIG    1        2.533   0.124   0.889  0.00  0.00    +0.230 C 
BRANCH  19  21
ATOM     20  C   LIG    1        4.077  -1.219   2.136  0.00  0.00    +0.200 C 
ATOM     21  O   LIG    1        3.897  -0.125   1.235  0.00  0.00    -0.390 OA
ENDBRANCH  19  21
ENDBRANCH  13  19
ENDBRANCH  10  18
ENDBRANCH   9  11
ENDBRANCH   1   9
BRANCH   6  22
ATOM     22  C   LIG    1       -2.235  -2.015   5.872  0.00  0.00    +0.380 C 
BRANCH  22  23
ATOM     23  N   LIG    1       -2.789  -2.997   6.808  0.00  0.00    -0.310 N 
ATOM     24  C   LIG    1       -2.560  -4.323   6.804  0.00  0.00    +0.400 A 
ATOM     25  N   LIG    1       -3.242  -4.826   7.804  0.00  0.00    -0.300 NA
ATOM     26  N   LIG    1       -3.865  -3.860   8.386  0.00  0.00    -0.070 NA
ATOM     27  N   LIG    1       -3.593  -2.753   7.787  0.00  0.00    -0.060 NA
ENDBRANCH  22  23
ENDBRANCH   6  22
TORSDOF 7
