REMARK  Name = ZINCpe000000US5P.0
REMARK                            x       y       z     vdW  Elec       q    Type
REMARK                         _______ _______ _______ _____ _____    ______ ____
ROOT
ATOM      1  C   LIG    1       -2.506   0.865  -0.330  0.00  0.00    +0.060 A 
ATOM      2  N   LIG    1       -2.492  -0.446  -0.299  0.00  0.00    -0.190 NA
ATOM      3  N   LIG    1       -3.500  -1.170   0.013  0.00  0.00    -0.310 N 
ATOM      4  C   LIG    1       -4.704  -0.665   0.349  0.00  0.00    +0.520 A 
ATOM      5  C   LIG    1       -4.873   0.794   0.359  0.00  0.00    -0.140 A 
ATOM      6  C   LIG    1       -6.073   1.414   0.692  0.00  0.00    +0.090 A 
ATOM      7  C   LIG    1       -6.145   2.791   0.695  0.00  0.00    +0.030 A 
ATOM      8  C   LIG    1       -5.040   3.560   0.353  0.00  0.00    +0.050 A 
ATOM      9  C   LIG    1       -3.843   2.965   0.015  0.00  0.00    +0.080 A 
ATOM     10  O   LIG    1       -5.630  -1.401   0.638  0.00  0.00    -0.480 OA
ATOM     11  C   LIG    1       -3.746   1.578   0.017  0.00  0.00    -0.040 A 
ENDROOT
BRANCH   3  12
ATOM     12  C   LIG    1       -3.344  -2.560   0.004  0.00  0.00    +0.120 A 
ATOM     13  C   LIG    1       -3.761  -3.314   1.094  0.00  0.00    +0.040 A 
ATOM     14  C   LIG    1       -3.611  -4.687   1.080  0.00  0.00    +0.020 A 
ATOM     15  C   LIG    1       -3.036  -5.310  -0.012  0.00  0.00    +0.020 A 
ATOM     16  C   LIG    1       -2.615  -4.562  -1.097  0.00  0.00    +0.020 A 
ATOM     17  C   LIG    1       -2.767  -3.190  -1.092  0.00  0.00    +0.030 A 
ENDBRANCH   3  12
BRANCH   1  20
ATOM     18  N   LIG    1       -0.159   0.955  -1.014  0.00  0.00    -0.700 N 
ATOM     19  H   LIG    1       -0.142  -0.014  -0.993  0.00  0.00    +0.420 HD
ATOM     20  C   LIG    1       -1.292   1.616  -0.703  0.00  0.00    +0.600 C 
ATOM     21  O   LIG    1       -1.313   2.832  -0.729  0.00  0.00    -0.520 OA
BRANCH  18  22
ATOM     22  C   LIG    1        1.045   1.701  -1.390  0.00  0.00    +0.320 C 
BRANCH  22  26
ATOM     23  C   LIG    1        4.455   0.257  -2.359  0.00  0.00    +0.290 C 
ATOM     24  N   LIG    1        3.371   1.197  -2.064  0.00  0.00    -0.730 N 
ATOM     25  H   LIG    1        3.524   2.152  -2.135  0.00  0.00    +0.410 HD
ATOM     26  C   LIG    1        2.160   0.735  -1.694  0.00  0.00    +0.510 C 
ATOM     27  O   LIG    1        1.968  -0.460  -1.605  0.00  0.00    -0.530 OA
ENDBRANCH  22  26
ENDBRANCH  18  22
ENDBRANCH   1  20
TORSDOF 4
