REMARK  Name = ZINCqH0000000vki.0
REMARK                            x       y       z     vdW  Elec       q    Type
REMARK                         _______ _______ _______ _____ _____    ______ ____
ROOT
ATOM      1  C   LIG    1       -0.078   0.408   1.662  0.00  0.00    +0.170 A 
ATOM      2  C   LIG    1       -1.219   0.281   2.442  0.00  0.00    +0.030 A 
ATOM      3  C   LIG    1       -2.467   0.339   1.853  0.00  0.00    +0.040 A 
ATOM      4  C   LIG    1       -2.580   0.523   0.487  0.00  0.00    +0.020 A 
ATOM      5  C   LIG    1       -1.447   0.651  -0.293  0.00  0.00    -0.080 A 
ATOM      6  C   LIG    1       -1.267   0.858  -1.780  0.00  0.00    +0.240 C 
ATOM      7  N   LIG    1        0.123   1.340  -1.952  0.00  0.00    -0.500 NA
ATOM      8  C   LIG    1        0.844   0.762  -0.795  0.00  0.00    +0.260 C 
ATOM      9  C   LIG    1       -0.193   0.594   0.292  0.00  0.00    -0.140 A 
ENDROOT
BRANCH   1  11
ATOM     10  C   LIG    1        1.353   0.754   3.531  0.00  0.00    +0.520 C 
ATOM     11  N   LIG    1        1.188   0.351   2.256  0.00  0.00    -0.680 N 
ATOM     12  H   LIG    1        1.947   0.020   1.750  0.00  0.00    +0.410 HD
ATOM     13  O   LIG    1        0.392   1.090   4.190  0.00  0.00    -0.480 OA
BRANCH  10  16
ATOM     14  C   LIG    1        2.771  -0.801   5.538  0.00  0.00    -0.050 C 
ATOM     15  C   LIG    1        2.730   0.730   5.675  0.00  0.00    +0.090 C 
ATOM     16  C   LIG    1        2.732   0.789   4.138  0.00  0.00    -0.030 C 
ATOM     17  C   LIG    1        3.428  -0.582   4.165  0.00  0.00    -0.050 C 
ATOM     18  C   LIG    1        4.954  -0.494   4.223  0.00  0.00    +0.080 C 
ATOM     19  C   LIG    1        2.928  -1.545   3.086  0.00  0.00    +0.030 C 
BRANCH  14  21
ATOM     20  C   LIG    1        1.280  -2.913   5.179  0.00  0.00    +0.060 C 
ATOM     21  C   LIG    1        1.407  -1.438   5.460  0.00  0.00    +0.350 C 
ATOM     22  O   LIG    1        0.417  -0.767   5.623  0.00  0.00    -0.420 OA
ENDBRANCH  14  21
ENDBRANCH  10  16
ENDBRANCH   1  11
BRANCH   7  23
ATOM     23  C   LIG    1        0.693   0.864  -3.219  0.00  0.00    +0.220 C 
BRANCH  23  24
ATOM     24  C   LIG    1        0.096   1.663  -4.379  0.00  0.00    +0.460 C 
ATOM     25  F   LIG    1       -1.292   1.491  -4.398  0.00  0.00    -0.180 F 
ATOM     26  F   LIG    1        0.639   1.209  -5.586  0.00  0.00    -0.180 F 
ATOM     27  F   LIG    1        0.396   3.019  -4.213  0.00  0.00    -0.170 F 
ENDBRANCH  23  24
ENDBRANCH   7  23
TORSDOF 5
