REMARK  Name = ZINCtV00000L6k6E.0
REMARK                            x       y       z     vdW  Elec       q    Type
REMARK                         _______ _______ _______ _____ _____    ______ ____
ROOT
ATOM      1  O   LIG    1        0.113  -2.654  -0.013  0.00  0.00    -0.450 OA
ATOM      2  C   LIG    1       -0.993  -2.151   0.000  0.00  0.00    +0.560 C 
ATOM      3  N   LIG    1       -1.124  -0.810   0.008  0.00  0.00    -0.630 N 
ATOM      4  H   LIG    1       -2.007  -0.409   0.019  0.00  0.00    +0.430 HD
ENDROOT
BRANCH   3   5
ATOM      5  C   LIG    1        0.002  -0.004   0.002  0.00  0.00    +0.340 A 
ATOM      6  N   LIG    1        1.215  -0.436  -0.012  0.00  0.00    -0.460 NA
ATOM      7  C   LIG    1        2.210   0.474  -0.017  0.00  0.00    +0.110 A 
ATOM      8  C   LIG    1        3.604   0.258  -0.031  0.00  0.00    +0.110 A 
ATOM      9  C   LIG    1        4.470   1.308  -0.034  0.00  0.00    +0.030 A 
ATOM     10  C   LIG    1        3.997   2.619  -0.023  0.00  0.00    -0.090 A 
ATOM     11  C   LIG    1        2.634   2.859  -0.008  0.00  0.00    +0.110 A 
ATOM     12  C   LIG    1        1.740   1.792  -0.005  0.00  0.00    -0.170 A 
ATOM     13  S   LIG    1       -0.022   1.754   0.012  0.00  0.00    +0.090 S 
BRANCH  10  14
ATOM     14  S   LIG    1        5.132   3.967  -0.028  0.00  0.00    -0.080 S 
BRANCH  14  15
ATOM     15  C   LIG    1        6.747   3.141  -0.048  0.00  0.00    +0.430 C 
ATOM     16  F   LIG    1        6.850   2.347  -1.195  0.00  0.00    -0.180 F 
ATOM     17  F   LIG    1        6.873   2.336   1.089  0.00  0.00    -0.180 F 
ENDBRANCH  14  15
ENDBRANCH  10  14
ENDBRANCH   3   5
BRANCH   2  18
ATOM     18  C   LIG    1       -2.196  -3.011   0.007  0.00  0.00    -0.100 A 
ATOM     19  C   LIG    1       -3.468  -2.437   0.028  0.00  0.00    +0.030 A 
ATOM     20  C   LIG    1       -4.588  -3.243   0.029  0.00  0.00    +0.060 A 
ATOM     21  C   LIG    1       -4.455  -4.619   0.021  0.00  0.00    -0.020 A 
ATOM     22  C   LIG    1       -3.193  -5.199   0.005  0.00  0.00    +0.100 A 
ATOM     23  C   LIG    1       -2.063  -4.401  -0.002  0.00  0.00    +0.100 A 
BRANCH  22  24
ATOM     24  O   LIG    1       -3.069  -6.553  -0.003  0.00  0.00    -0.300 OA
BRANCH  24  25
ATOM     25  C   LIG    1       -4.277  -7.316   0.005  0.00  0.00    +0.390 C 
ATOM     26  F   LIG    1       -5.034  -7.001  -1.128  0.00  0.00    -0.170 F 
ATOM     27  F   LIG    1       -5.012  -7.013   1.156  0.00  0.00    -0.170 F 
BRANCH  25  28
ATOM     28  C   LIG    1       -3.938  -8.808  -0.006  0.00  0.00    +0.430 C 
ATOM     29  F   LIG    1       -5.121  -9.555   0.002  0.00  0.00    -0.170 F 
ATOM     30  F   LIG    1       -3.181  -9.122   1.128  0.00  0.00    -0.170 F 
ENDBRANCH  25  28
ENDBRANCH  24  25
ENDBRANCH  22  24
ENDBRANCH   2  18
TORSDOF 7
