REMARK  Name = ZINCrD0000074lQ5.0
REMARK                            x       y       z     vdW  Elec       q    Type
REMARK                         _______ _______ _______ _____ _____    ______ ____
ROOT
ATOM      1  C   LIG    1        1.237   1.439   2.877  0.00  0.00    +0.550 C 
ATOM      2  O   LIG    1        2.006   0.980   2.055  0.00  0.00    -0.510 OA
ENDROOT
BRANCH   1   5
ATOM      3  C   LIG    1       -0.044   0.968   0.040  0.00  0.00    +0.180 C 
ATOM      4  C   LIG    1       -0.732   1.521   1.262  0.00  0.00    +0.180 A 
ATOM      5  C   LIG    1       -0.158   1.724   2.502  0.00  0.00    -0.280 A 
ATOM      6  C   LIG    1       -1.162   2.255   3.344  0.00  0.00    +0.330 A 
ATOM      7  N   LIG    1       -2.260   2.360   2.648  0.00  0.00    -0.280 NA
ATOM      8  N   LIG    1       -2.016   1.914   1.344  0.00  0.00    -0.320 N 
BRANCH   8   9
ATOM      9  C   LIG    1       -2.950   1.878   0.303  0.00  0.00    +0.190 A 
ATOM     10  C   LIG    1       -3.835   2.936   0.101  0.00  0.00    -0.010 A 
ATOM     11  C   LIG    1       -4.738   2.865  -0.941  0.00  0.00    +0.290 A 
ATOM     12  N   LIG    1       -4.776   1.810  -1.731  0.00  0.00    -0.480 NA
ATOM     13  C   LIG    1       -3.959   0.787  -1.569  0.00  0.00    +0.290 A 
ATOM     14  C   LIG    1       -3.024   0.783  -0.554  0.00  0.00    -0.030 A 
ENDBRANCH   8   9
ENDBRANCH   1   5
BRANCH   1  15
ATOM     15  O   LIG    1        1.662   1.688   4.131  0.00  0.00    -0.330 OA
BRANCH  15  16
ATOM     16  C   LIG    1        3.050   1.384   4.430  0.00  0.00    +0.180 C 
ATOM     17  C   LIG    1        3.550   2.325   5.497  0.00  0.00    +0.050 C 
ATOM     18  C   LIG    1        5.030   2.175   5.815  0.00  0.00    +0.050 C 
ATOM     19  C   LIG    1        5.312   0.880   6.568  0.00  0.00    +0.080 C 
ATOM     20  C   LIG    1        5.539  -0.240   5.568  0.00  0.00    -0.050 A 
ATOM     21  C   LIG    1        6.791  -0.796   5.426  0.00  0.00    +0.010 A 
ATOM     22  C   LIG    1        6.984  -1.835   4.530  0.00  0.00    +0.030 A 
ATOM     23  C   LIG    1        5.926  -2.320   3.780  0.00  0.00    +0.010 A 
ATOM     24  C   LIG    1        4.669  -1.764   3.909  0.00  0.00    +0.060 A 
ATOM     25  C   LIG    1        4.473  -0.707   4.801  0.00  0.00    -0.160 A 
ATOM     26  C   LIG    1        3.158  -0.051   4.908  0.00  0.00    +0.400 C 
ATOM     27  O   LIG    1        2.198  -0.637   5.362  0.00  0.00    -0.420 OA
ENDBRANCH  15  16
ENDBRANCH   1  15
TORSDOF 4
