REMARK  Name = ZINCrH000004rqAf.0
REMARK                            x       y       z     vdW  Elec       q    Type
REMARK                         _______ _______ _______ _____ _____    ______ ____
ROOT
ATOM      1  C   LIG    1        9.831   2.467   0.284  0.00  0.00    +0.110 C 
ATOM      2  C   LIG    1        8.331   2.342   0.202  0.00  0.00    -0.130 A 
ATOM      3  C   LIG    1        7.747   1.094   0.108  0.00  0.00    +0.080 A 
ATOM      4  C   LIG    1        6.373   0.975   0.032  0.00  0.00    -0.010 A 
ATOM      5  C   LIG    1        5.574   2.112   0.050  0.00  0.00    +0.170 A 
ATOM      6  C   LIG    1        6.160   3.367   0.139  0.00  0.00    -0.100 A 
ATOM      7  C   LIG    1        7.538   3.482   0.221  0.00  0.00    +0.150 A 
ENDROOT
BRANCH   5   8
ATOM      8  N   LIG    1        4.183   1.992  -0.028  0.00  0.00    -0.660 N 
ATOM      9  H   LIG    1        3.665   2.659  -0.504  0.00  0.00    +0.420 HD
ATOM     10  C   LIG    1        3.563   0.949   0.559  0.00  0.00    +0.610 C 
ATOM     11  O   LIG    1        4.219   0.068   1.084  0.00  0.00    -0.490 OA
BRANCH  10  12
ATOM     12  C   LIG    1        2.099   0.876   0.565  0.00  0.00    -0.080 A 
ATOM     13  C   LIG    1        1.352  -0.108   1.115  0.00  0.00    -0.070 A 
ATOM     14  C   LIG    1        1.765  -1.356   1.853  0.00  0.00    +0.100 C 
ATOM     15  C   LIG    1        0.525  -1.888   2.588  0.00  0.00    +0.230 C 
ATOM     16  O   LIG    1       -0.591  -1.930   1.696  0.00  0.00    -0.380 OA
ATOM     17  C   LIG    1       -1.138  -0.648   1.356  0.00  0.00    +0.310 C 
ATOM     18  C   LIG    1       -0.001   0.225   0.888  0.00  0.00    -0.240 A 
ATOM     19  C   LIG    1       -0.017   1.385   0.219  0.00  0.00    +0.240 A 
ATOM     20  O   LIG    1        1.252   1.782   0.022  0.00  0.00    -0.170 OA
ENDBRANCH  10  12
ENDBRANCH   5   8
BRANCH   7  21
ATOM     21  O   LIG    1        8.114   4.709   0.313  0.00  0.00    -0.310 OA
BRANCH  21  22
ATOM     22  C   LIG    1        7.238   5.838   0.327  0.00  0.00    +0.180 C 
BRANCH  22  23
ATOM     23  C   LIG    1        8.062   7.122   0.434  0.00  0.00    -0.010 C 
ATOM     24  C   LIG    1        8.777   7.161   1.788  0.00  0.00    +0.000 C 
ATOM     25  C   LIG    1        9.535   8.485   1.919  0.00  0.00    +0.210 C 
ATOM     26  O   LIG    1        8.619   9.572   1.776  0.00  0.00    -0.380 OA
ATOM     27  C   LIG    1        7.957   9.615   0.511  0.00  0.00    +0.210 C 
ATOM     28  C   LIG    1        7.135   8.337   0.323  0.00  0.00    +0.010 C 
ENDBRANCH  22  23
ENDBRANCH  21  22
ENDBRANCH   7  21
TORSDOF 5
