REMARK  Name = ZINCkj000005fV33.1
REMARK                            x       y       z     vdW  Elec       q    Type
REMARK                         _______ _______ _______ _____ _____    ______ ____
ROOT
ATOM      1  N   LIG    1       -2.281   0.904   3.036  0.00  0.00    -0.740 N 
ATOM      2  H   LIG    1       -1.805   1.366   3.744  0.00  0.00    +0.410 HD
ATOM      3  C   LIG    1       -3.628   0.878   3.035  0.00  0.00    +0.530 C 
ATOM      4  O   LIG    1       -4.223   0.301   2.149  0.00  0.00    -0.520 OA
ENDROOT
BRANCH   3   5
ATOM      5  C   LIG    1       -4.396   1.567   4.134  0.00  0.00    -0.010 C 
ATOM      6  C   LIG    1       -4.019   0.951   5.484  0.00  0.00    +0.040 C 
ATOM      7  C   LIG    1       -4.847   1.611   6.589  0.00  0.00    +0.200 C 
ATOM      8  N   LIG    1       -6.277   1.409   6.319  0.00  0.00    -0.530 NA
ATOM      9  C   LIG    1       -6.671   2.033   5.050  0.00  0.00    +0.180 C 
ATOM     10  C   LIG    1       -5.898   1.385   3.899  0.00  0.00    +0.060 C 
BRANCH   8  11
ATOM     11  C   LIG    1       -7.098   1.909   7.430  0.00  0.00    +0.220 C 
BRANCH  11  12
ATOM     12  C   LIG    1       -8.475   1.245   7.385  0.00  0.00    +0.460 C 
ATOM     13  F   LIG    1       -9.155   1.657   6.234  0.00  0.00    -0.180 F 
ATOM     14  F   LIG    1       -9.209   1.616   8.518  0.00  0.00    -0.180 F 
ATOM     15  F   LIG    1       -8.322  -0.145   7.364  0.00  0.00    -0.170 F 
ENDBRANCH  11  12
ENDBRANCH   8  11
ENDBRANCH   3   5
BRANCH   1  16
ATOM     16  C   LIG    1       -1.534   0.235   1.968  0.00  0.00    +0.270 C 
BRANCH  16  17
ATOM     17  C   LIG    1       -0.033   0.415   2.205  0.00  0.00    +0.260 C 
BRANCH  17  18
ATOM     18  N   LIG    1        0.715  -0.256   1.133  0.00  0.00    -0.380 N 
ATOM     19  C   LIG    1        0.481  -1.705   1.205  0.00  0.00    +0.330 C 
ATOM     20  H   LIG    1        0.405   0.091   0.238  0.00  0.00    +0.430 HD
BRANCH  18  22
ATOM     21  C   LIG    1        2.917  -0.577   0.110  0.00  0.00    +0.080 C 
ATOM     22  C   LIG    1        2.150   0.016   1.294  0.00  0.00    +0.250 C 
ENDBRANCH  18  22
ENDBRANCH  17  18
ENDBRANCH  16  17
ENDBRANCH   1  16
TORSDOF 7
