REMARK  Name = ZINCkj000005fV33.0
REMARK                            x       y       z     vdW  Elec       q    Type
REMARK                         _______ _______ _______ _____ _____    ______ ____
ROOT
ATOM      1  N   LIG    1        1.013   2.444  -4.471  0.00  0.00    -0.740 N 
ATOM      2  H   LIG    1        1.833   1.929  -4.421  0.00  0.00    +0.410 HD
ATOM      3  C   LIG    1        0.416   2.646  -5.663  0.00  0.00    +0.530 C 
ATOM      4  O   LIG    1       -0.610   3.290  -5.726  0.00  0.00    -0.520 OA
ENDROOT
BRANCH   3   5
ATOM      5  C   LIG    1        1.024   2.071  -6.917  0.00  0.00    -0.010 C 
ATOM      6  C   LIG    1        2.432   2.641  -7.110  0.00  0.00    +0.040 C 
ATOM      7  C   LIG    1        3.019   2.102  -8.417  0.00  0.00    +0.200 C 
ATOM      8  N   LIG    1        2.155   2.488  -9.540  0.00  0.00    -0.530 NA
ATOM      9  C   LIG    1        0.812   1.912  -9.399  0.00  0.00    +0.180 C 
ATOM     10  C   LIG    1        0.158   2.446  -8.123  0.00  0.00    +0.060 C 
BRANCH   8  11
ATOM     11  C   LIG    1        2.760   2.107 -10.824  0.00  0.00    +0.220 C 
BRANCH  11  12
ATOM     12  C   LIG    1        2.144   2.945 -11.946  0.00  0.00    +0.460 C 
ATOM     13  F   LIG    1        0.791   2.617 -12.085  0.00  0.00    -0.180 F 
ATOM     14  F   LIG    1        2.814   2.681 -13.146  0.00  0.00    -0.180 F 
ATOM     15  F   LIG    1        2.266   4.303 -11.634  0.00  0.00    -0.170 F 
ENDBRANCH  11  12
ENDBRANCH   8  11
ENDBRANCH   3   5
BRANCH   1  16
ATOM     16  C   LIG    1        0.422   3.002  -3.252  0.00  0.00    +0.270 C 
BRANCH  16  17
ATOM     17  C   LIG    1        1.289   2.630  -2.048  0.00  0.00    +0.260 C 
BRANCH  17  18
ATOM     18  N   LIG    1        0.697   3.190  -0.826  0.00  0.00    -0.380 N 
ATOM     19  C   LIG    1       -0.605   2.556  -0.578  0.00  0.00    +0.320 C 
ATOM     20  H   LIG    1        0.571   4.185  -0.939  0.00  0.00    +0.430 HD
BRANCH  18  22
ATOM     21  C   LIG    1        1.036   3.625   1.560  0.00  0.00    +0.080 C 
ATOM     22  C   LIG    1        1.590   2.935   0.312  0.00  0.00    +0.250 C 
ENDBRANCH  18  22
ENDBRANCH  17  18
ENDBRANCH  16  17
ENDBRANCH   1  16
TORSDOF 7
