REMARK  Name = ZINCpe000000YwdT.0
REMARK                            x       y       z     vdW  Elec       q    Type
REMARK                         _______ _______ _______ _____ _____    ______ ____
ROOT
ATOM      1  C   LIG    1       -6.329   6.401  -3.352  0.00  0.00    +0.220 C 
ENDROOT
BRANCH   1   2
ATOM      2  O   LIG    1       -5.830   6.019  -4.635  0.00  0.00    -0.540 OA
ATOM      3  H   LIG    1       -5.260   6.682  -5.049  0.00  0.00    +0.380 HD
ENDBRANCH   1   2
BRANCH   1   4
ATOM      4  C   LIG    1       -7.152   7.684  -3.486  0.00  0.00    +0.170 C 
BRANCH   4   5
ATOM      5  O   LIG    1       -8.311   7.426  -4.280  0.00  0.00    -0.300 OA
BRANCH   5   9
ATOM      6  C   LIG    1      -10.875  10.593  -4.940  0.00  0.00    -0.070 A 
ATOM      7  C   LIG    1      -11.158   9.338  -5.485  0.00  0.00    +0.110 A 
ATOM      8  C   LIG    1      -10.300   8.284  -5.262  0.00  0.00    -0.010 A 
ATOM      9  C   LIG    1       -9.154   8.467  -4.497  0.00  0.00    +0.160 A 
ATOM     10  C   LIG    1       -8.872   9.713  -3.949  0.00  0.00    -0.070 A 
ATOM     11  C   LIG    1       -9.722  10.774  -4.172  0.00  0.00    +0.110 A 
BRANCH   6  13
ATOM     12  N   LIG    1      -12.469  12.564  -5.352  0.00  0.00    -0.420 NA
ATOM     13  C   LIG    1      -11.764  11.693  -5.170  0.00  0.00    +0.250 C 
ENDBRANCH   6  13
ENDBRANCH   5   9
ENDBRANCH   4   5
ENDBRANCH   1   4
BRANCH   1  14
ATOM     14  C   LIG    1       -5.156   6.644  -2.400  0.00  0.00    +0.170 C 
BRANCH  14  15
ATOM     15  N   LIG    1       -4.366   5.413  -2.272  0.00  0.00    -0.520 NA
ATOM     16  C   LIG    1       -5.237   4.248  -2.054  0.00  0.00    +0.150 C 
ATOM     17  C   LIG    1       -4.379   2.982  -1.986  0.00  0.00    +0.230 C 
ATOM     18  O   LIG    1       -3.402   3.129  -0.951  0.00  0.00    -0.360 OA
ATOM     19  C   LIG    1       -2.537   4.253  -1.133  0.00  0.00    +0.160 C 
ATOM     20  C   LIG    1       -3.376   5.532  -1.192  0.00  0.00    +0.160 C 
BRANCH  19  21
ATOM     21  C   LIG    1       -1.558   4.338   0.040  0.00  0.00    +0.340 C 
BRANCH  21  22
ATOM     22  N   LIG    1       -0.675   3.169   0.025  0.00  0.00    -0.370 N 
ATOM     23  C   LIG    1        0.674   3.192   0.013  0.00  0.00    +0.210 A 
ATOM     24  C   LIG    1        1.109   1.911   0.002  0.00  0.00    -0.120 A 
ATOM     25  C   LIG    1       -0.013   1.076   0.008  0.00  0.00    +0.210 A 
ATOM     26  N   LIG    1       -1.083   1.829   0.017  0.00  0.00    -0.270 NA
ENDBRANCH  21  22
ENDBRANCH  19  21
ENDBRANCH  14  15
ENDBRANCH   1  14
TORSDOF 9
