REMARK  Name = ZINCpk000000nnMZ.0
REMARK                            x       y       z     vdW  Elec       q    Type
REMARK                         _______ _______ _______ _____ _____    ______ ____
ROOT
ATOM      1  C   LIG    1        3.939   0.159  -2.612  0.00  0.00    +0.270 C 
ENDROOT
BRANCH   1   2
ATOM      2  N   LIG    1        4.616   0.934  -3.655  0.00  0.00    -0.700 N 
ATOM      3  H   LIG    1        4.378   1.864  -3.800  0.00  0.00    +0.410 HD
ATOM      4  C   LIG    1        5.569   0.357  -4.413  0.00  0.00    +0.610 C 
ATOM      5  O   LIG    1        5.868  -0.809  -4.231  0.00  0.00    -0.550 OA
BRANCH   4   6
ATOM      6  C   LIG    1        6.244   1.131  -5.454  0.00  0.00    +0.070 A 
ATOM      7  N   LIG    1        6.008   2.402  -5.745  0.00  0.00    -0.400 NA
ATOM      8  C   LIG    1        6.791   2.789  -6.735  0.00  0.00    +0.180 A 
ATOM      9  C   LIG    1        7.582   1.703  -7.106  0.00  0.00    +0.030 A 
ATOM     10  C   LIG    1        8.579   1.523  -8.078  0.00  0.00    +0.070 A 
ATOM     11  C   LIG    1        9.192   0.309  -8.185  0.00  0.00    +0.030 A 
ATOM     12  C   LIG    1        8.808  -0.738  -7.333  0.00  0.00    +0.030 A 
ATOM     13  C   LIG    1        7.843  -0.547  -6.406  0.00  0.00    +0.240 A 
ATOM     14  N   LIG    1        7.229   0.662  -6.284  0.00  0.00    -0.320 N 
ENDBRANCH   4   6
ENDBRANCH   1   2
BRANCH   1  16
ATOM     15  C   LIG    1        1.880   1.539  -2.921  0.00  0.00    +0.040 C 
ATOM     16  C   LIG    1        2.910   1.044  -1.905  0.00  0.00    -0.050 C 
ATOM     17  C   LIG    1        3.619   2.243  -1.271  0.00  0.00    +0.030 C 
BRANCH  16  18
ATOM     18  C   LIG    1        2.204   0.234  -0.816  0.00  0.00    -0.030 C 
ATOM     19  C   LIG    1        1.476  -0.983  -1.431  0.00  0.00    +0.210 C 
ATOM     20  O   LIG    1        0.250  -1.102  -0.675  0.00  0.00    -0.360 OA
ATOM     21  C   LIG    1       -0.208   0.255  -0.472  0.00  0.00    +0.240 C 
ATOM     22  C   LIG    1        1.071   1.058  -0.179  0.00  0.00    +0.240 C 
ATOM     23  O   LIG    1        1.274   1.181   1.232  0.00  0.00    -0.360 OA
ATOM     24  C   LIG    1        1.879   2.487   1.403  0.00  0.00    +0.200 C 
ATOM     25  C   LIG    1        1.168   3.313   0.301  0.00  0.00    +0.200 C 
ATOM     26  O   LIG    1        0.999   2.356  -0.767  0.00  0.00    -0.350 OA
ENDBRANCH  16  18
ENDBRANCH   1  16
TORSDOF 4
