REMARK  Name = ZINCqH0000008lyA.0
REMARK                            x       y       z     vdW  Elec       q    Type
REMARK                         _______ _______ _______ _____ _____    ______ ____
ROOT
ATOM      1  N   LIG    1       -0.453   1.393   3.718  0.00  0.00    -0.730 N 
ATOM      2  H   LIG    1       -1.248   1.939   3.817  0.00  0.00    +0.400 HD
ATOM      3  C   LIG    1        0.000   1.080   2.488  0.00  0.00    +0.520 C 
ATOM      4  O   LIG    1        0.994   0.397   2.363  0.00  0.00    -0.530 OA
ENDROOT
BRANCH   1   6
ATOM      5  C   LIG    1       -0.228  -0.504   5.246  0.00  0.00    +0.040 C 
ATOM      6  C   LIG    1        0.256   0.907   4.905  0.00  0.00    +0.280 C 
BRANCH   6   7
ATOM      7  C   LIG    1       -0.021   1.827   6.066  0.00  0.00    -0.080 A 
ATOM      8  C   LIG    1       -1.288   2.348   6.248  0.00  0.00    +0.040 A 
ATOM      9  C   LIG    1       -1.546   3.187   7.316  0.00  0.00    +0.030 A 
ATOM     10  C   LIG    1       -0.532   3.516   8.197  0.00  0.00    +0.070 A 
ATOM     11  C   LIG    1        0.742   2.999   8.012  0.00  0.00    +0.070 A 
ATOM     12  F   LIG    1        1.734   3.318   8.871  0.00  0.00    -0.120 F 
ATOM     13  F   LIG    1       -0.781   4.341   9.238  0.00  0.00    -0.130 F 
ATOM     14  C   LIG    1        0.995   2.154   6.945  0.00  0.00    +0.040 A 
ENDBRANCH   6   7
ENDBRANCH   1   6
BRANCH   3  15
ATOM     15  C   LIG    1       -0.729   1.579   1.267  0.00  0.00    +0.050 C 
BRANCH  15  16
ATOM     16  C   LIG    1       -0.013   1.086   0.008  0.00  0.00    +0.080 C 
BRANCH  16  17
ATOM     17  C   LIG    1       -0.753   1.593  -1.232  0.00  0.00    +0.010 C 
ATOM     18  C   LIG    1       -0.113   0.995  -2.485  0.00  0.00    +0.110 C 
ATOM     19  C   LIG    1        1.230   1.631  -2.724  0.00  0.00    -0.120 A 
ATOM     20  C   LIG    1        2.250   0.895  -3.294  0.00  0.00    +0.050 A 
ATOM     21  C   LIG    1        3.475   1.487  -3.544  0.00  0.00    -0.010 A 
ATOM     22  C   LIG    1        3.682   2.816  -3.223  0.00  0.00    +0.040 A 
ATOM     23  C   LIG    1        2.668   3.555  -2.645  0.00  0.00    -0.020 A 
ATOM     24  C   LIG    1        1.439   2.962  -2.388  0.00  0.00    +0.160 A 
ATOM     25  N   LIG    1        0.417   3.704  -1.790  0.00  0.00    -0.660 N 
ATOM     26  H   LIG    1        0.493   4.670  -1.739  0.00  0.00    +0.410 HD
ATOM     27  C   LIG    1       -0.670   3.095  -1.284  0.00  0.00    +0.530 C 
ATOM     28  O   LIG    1       -1.592   3.763  -0.867  0.00  0.00    -0.520 OA
ENDBRANCH  16  17
ENDBRANCH  15  16
ENDBRANCH   3  15
TORSDOF 5
