REMARK  Name = ZINCrD0000075hGA.0
REMARK                            x       y       z     vdW  Elec       q    Type
REMARK                         _______ _______ _______ _____ _____    ______ ____
ROOT
ATOM      1  C   LIG    1        0.090   1.133  -0.717  0.00  0.00    +0.510 C 
ATOM      2  N   LIG    1        0.002  -0.004   0.002  0.00  0.00    -0.670 N 
ATOM      3  H   LIG    1        0.787  -0.357   0.450  0.00  0.00    +0.410 HD
ATOM      4  O   LIG    1       -0.864   1.522  -1.356  0.00  0.00    -0.500 OA
ENDROOT
BRANCH   2   5
ATOM      5  C   LIG    1       -1.224  -0.676   0.103  0.00  0.00    +0.120 A 
ATOM      6  C   LIG    1       -2.411   0.044   0.116  0.00  0.00    +0.040 A 
ATOM      7  C   LIG    1       -3.619  -0.618   0.210  0.00  0.00    -0.020 A 
ATOM      8  C   LIG    1       -3.646  -2.004   0.304  0.00  0.00    +0.100 A 
ATOM      9  C   LIG    1       -2.458  -2.723   0.296  0.00  0.00    +0.010 A 
ATOM     10  C   LIG    1       -1.250  -2.061   0.195  0.00  0.00    +0.020 A 
BRANCH   8  11
ATOM     11  N   LIG    1       -4.869  -2.674   0.406  0.00  0.00    -0.490 N 
ATOM     12  C   LIG    1       -5.011  -3.676  -0.658  0.00  0.00    +0.180 C 
ATOM     13  C   LIG    1       -6.288  -4.487  -0.431  0.00  0.00    +0.020 C 
ATOM     14  C   LIG    1       -7.493  -3.542  -0.431  0.00  0.00    +0.010 C 
ATOM     15  C   LIG    1       -7.298  -2.479   0.654  0.00  0.00    +0.020 C 
ATOM     16  C   LIG    1       -5.991  -1.727   0.395  0.00  0.00    +0.180 C 
ENDBRANCH   8  11
ENDBRANCH   2   5
BRANCH   1  17
ATOM     17  C   LIG    1        1.377   1.917  -0.731  0.00  0.00    +0.270 C 
BRANCH  17  18
ATOM     18  O   LIG    1        1.219   3.091  -1.571  0.00  0.00    -0.330 OA
BRANCH  18  19
ATOM     19  C   LIG    1        2.285   3.905  -1.692  0.00  0.00    +0.510 C 
ATOM     20  O   LIG    1        3.319   3.641  -1.111  0.00  0.00    -0.500 OA
BRANCH  19  24
ATOM     21  C   LIG    1        2.033   7.396  -4.105  0.00  0.00    +0.010 A 
ATOM     22  C   LIG    1        3.222   7.093  -3.437  0.00  0.00    +0.070 A 
ATOM     23  C   LIG    1        3.304   5.962  -2.655  0.00  0.00    +0.100 A 
ATOM     24  C   LIG    1        2.198   5.118  -2.531  0.00  0.00    -0.100 A 
ATOM     25  C   LIG    1        1.011   5.418  -3.203  0.00  0.00    +0.090 A 
ATOM     26  C   LIG    1        0.927   6.552  -3.980  0.00  0.00    +0.070 A 
BRANCH  21  28
ATOM     27  N   LIG    1        1.881   9.504  -5.564  0.00  0.00    -0.400 NA
ATOM     28  C   LIG    1        1.949   8.572  -4.918  0.00  0.00    +0.240 C 
ENDBRANCH  21  28
ENDBRANCH  19  24
ENDBRANCH  18  19
ENDBRANCH  17  18
ENDBRANCH   1  17
TORSDOF 7
