REMARK  Name = ZINCvU0000000CUT.0
REMARK                            x       y       z     vdW  Elec       q    Type
REMARK                         _______ _______ _______ _____ _____    ______ ____
ROOT
ATOM      1  C   LIG    1       -2.751   0.373   0.144  0.00  0.00    +0.130 C 
ENDROOT
BRANCH   1   2
ATOM      2  C   LIG    1       -4.123  -0.248   0.193  0.00  0.00    +0.530 C 
ATOM      3  N   LIG    1       -5.217   0.537   0.247  0.00  0.00    -0.620 N 
ATOM      4  H   LIG    1       -5.121   1.502   0.254  0.00  0.00    +0.420 HD
ATOM      5  O   LIG    1       -4.242  -1.455   0.183  0.00  0.00    -0.480 OA
BRANCH   3   6
ATOM      6  C   LIG    1       -6.480  -0.036   0.292  0.00  0.00    +0.050 A 
ATOM      7  C   LIG    1       -7.648   0.666   0.354  0.00  0.00    -0.110 A 
ATOM      8  C   LIG    1       -8.832  -0.179   0.384  0.00  0.00    -0.040 A 
ATOM      9  C   LIG    1       -8.526  -1.480   0.360  0.00  0.00    -0.240 A 
ATOM     10  C   LIG    1       -9.532  -2.612   0.401  0.00  0.00    +0.110 C 
ATOM     11  C   LIG    1      -10.653  -2.352  -0.604  0.00  0.00    +0.020 C 
ATOM     12  C   LIG    1      -11.768  -1.566   0.081  0.00  0.00    +0.000 C 
ATOM     13  C   LIG    1      -11.174  -0.622   1.123  0.00  0.00    +0.030 C 
ATOM     14  C   LIG    1      -10.245   0.376   0.438  0.00  0.00    +0.090 C 
ATOM     15  S   LIG    1       -6.784  -1.710   0.285  0.00  0.00    +0.320 S 
BRANCH   7  16
ATOM     16  C   LIG    1       -7.704   2.097   0.382  0.00  0.00    +0.270 C 
ATOM     17  N   LIG    1       -7.748   3.232   0.405  0.00  0.00    -0.420 NA
ENDBRANCH   7  16
ENDBRANCH   3   6
ENDBRANCH   1   2
BRANCH   1  18
ATOM     18  S   LIG    1       -1.499  -0.932   0.077  0.00  0.00    +0.100 S 
BRANCH  18  20
ATOM     19  N   LIG    1        1.248  -0.413  -0.030  0.00  0.00    -0.450 N 
ATOM     20  C   LIG    1       -0.036   0.049   0.029  0.00  0.00    +0.140 A 
ATOM     21  N   LIG    1        0.023   1.362   0.041  0.00  0.00    -0.290 NA
ATOM     22  N   LIG    1        1.247   1.750  -0.005  0.00  0.00    -0.260 NA
ATOM     23  C   LIG    1        2.045   0.708  -0.050  0.00  0.00    +0.230 A 
BRANCH  23  24
ATOM     24  C   LIG    1        3.522   0.735  -0.111  0.00  0.00    -0.010 A 
ATOM     25  C   LIG    1        4.226  -0.388  -0.549  0.00  0.00    +0.030 A 
ATOM     26  C   LIG    1        5.604  -0.355  -0.609  0.00  0.00    +0.030 A 
ATOM     27  C   LIG    1        6.289   0.785  -0.226  0.00  0.00    -0.020 A 
ATOM     28  C   LIG    1        5.597   1.901   0.215  0.00  0.00    +0.030 A 
ATOM     29 CL   LIG    1        8.023   0.816  -0.296  0.00  0.00    -0.060 Cl
ATOM     30  C   LIG    1        4.219   1.882   0.274  0.00  0.00    +0.090 A 
ENDBRANCH  23  24
BRANCH  19  32
ATOM     31  C   LIG    1        1.702  -2.305  -1.511  0.00  0.00    +0.050 C 
ATOM     32  C   LIG    1        1.685  -1.811  -0.063  0.00  0.00    +0.310 C 
ENDBRANCH  19  32
ENDBRANCH  18  20
ENDBRANCH   1  18
TORSDOF 7
