REMARK  Name = ZINCrD00000e0FaQ.2
REMARK                            x       y       z     vdW  Elec       q    Type
REMARK                         _______ _______ _______ _____ _____    ______ ____
ROOT
ATOM      1  C   LIG    1        4.782   1.388   0.237  0.00  0.00    +0.170 A 
ATOM      2  C   LIG    1        4.857   0.014   0.044  0.00  0.00    +0.010 A 
ATOM      3  C   LIG    1        3.701  -0.737  -0.046  0.00  0.00    +0.050 A 
ATOM      4  C   LIG    1        2.467  -0.124   0.056  0.00  0.00    +0.010 A 
ATOM      5  C   LIG    1        2.385   1.249   0.249  0.00  0.00    +0.160 A 
ATOM      6  C   LIG    1        3.544   2.006   0.334  0.00  0.00    -0.040 A 
ENDROOT
BRANCH   1   8
ATOM      7  C   LIG    1        7.059   1.617   0.889  0.00  0.00    +0.520 C 
ATOM      8  N   LIG    1        5.954   2.147   0.329  0.00  0.00    -0.680 N 
ATOM      9  H   LIG    1        5.970   3.056  -0.012  0.00  0.00    +0.410 HD
ATOM     10  O   LIG    1        7.013   0.517   1.398  0.00  0.00    -0.490 OA
BRANCH   7  16
ATOM     11  C   LIG    1        9.045   2.272   3.216  0.00  0.00    +0.190 C 
ATOM     12  N   LIG    1        9.313   1.800   1.851  0.00  0.00    -0.490 NA
ATOM     13  C   LIG    1       10.641   2.268   1.376  0.00  0.00    +0.170 C 
ATOM     14  C   LIG    1       10.556   2.184  -0.163  0.00  0.00    +0.040 C 
ATOM     15  C   LIG    1        9.050   2.266  -0.486  0.00  0.00    +0.050 C 
ATOM     16  C   LIG    1        8.351   2.392   0.885  0.00  0.00    +0.120 C 
ENDBRANCH   7  16
ENDBRANCH   1   8
BRANCH   5  17
ATOM     17  N   LIG    1        1.134   1.868   0.352  0.00  0.00    -0.670 N 
ATOM     18  H   LIG    1        1.000   2.756  -0.017  0.00  0.00    +0.410 HD
ATOM     19  C   LIG    1        0.115   1.232   0.963  0.00  0.00    +0.530 C 
ATOM     20  O   LIG    1        0.257   0.091   1.349  0.00  0.00    -0.510 OA
BRANCH  19  21
ATOM     21  C   LIG    1       -1.203   1.936   1.160  0.00  0.00    +0.040 C 
ATOM     22  C   LIG    1       -2.206   1.005   1.873  0.00  0.00    +0.070 C 
ATOM     23  C   LIG    1       -1.995   1.365   3.359  0.00  0.00    +0.080 C 
ATOM     24  C   LIG    1       -1.487   2.791   3.353  0.00  0.00    -0.080 A 
ATOM     25  C   LIG    1       -1.428   3.726   4.371  0.00  0.00    +0.010 A 
ATOM     26  C   LIG    1       -0.915   4.986   4.129  0.00  0.00    +0.020 A 
ATOM     27  C   LIG    1       -0.460   5.314   2.866  0.00  0.00    +0.010 A 
ATOM     28  C   LIG    1       -0.519   4.382   1.849  0.00  0.00    +0.020 A 
ATOM     29  C   LIG    1       -1.032   3.119   2.089  0.00  0.00    -0.100 A 
ENDBRANCH  19  21
ENDBRANCH   5  17
TORSDOF 4
