REMARK  Name = ZINCrg000000ot4i.0
REMARK                            x       y       z     vdW  Elec       q    Type
REMARK                         _______ _______ _______ _____ _____    ______ ____
ROOT
ATOM      1  C   LIG    1        5.883   1.878  -0.329  0.00  0.00    +0.150 A 
ATOM      2  C   LIG    1        5.809   3.264  -0.335  0.00  0.00    +0.010 A 
ATOM      3  C   LIG    1        4.583   3.892  -0.220  0.00  0.00    +0.060 A 
ATOM      4  C   LIG    1        3.428   3.143  -0.105  0.00  0.00    +0.020 A 
ATOM      5  C   LIG    1        3.497   1.756  -0.092  0.00  0.00    +0.180 A 
ATOM      6  C   LIG    1        4.726   1.123  -0.207  0.00  0.00    -0.020 A 
ENDROOT
BRANCH   1  11
ATOM      7  C   LIG    1        8.784  -0.317  -0.662  0.00  0.00    +0.240 C 
ATOM      8  N   LIG    1        9.345   1.042  -0.575  0.00  0.00    -0.720 N 
ATOM      9  H   LIG    1       10.284   1.284  -0.603  0.00  0.00    +0.440 HD
ATOM     10  C   LIG    1        8.302   1.883  -0.455  0.00  0.00    +0.700 C 
ATOM     11  N   LIG    1        7.127   1.242  -0.445  0.00  0.00    -0.520 N 
ATOM     12  O   LIG    1        8.413   3.090  -0.363  0.00  0.00    -0.520 OA
ATOM     13  C   LIG    1        7.288  -0.091  -0.567  0.00  0.00    +0.520 C 
ATOM     14  O   LIG    1        6.417  -0.934  -0.595  0.00  0.00    -0.450 OA
BRANCH   7  16
ATOM     15  C   LIG    1       10.759  -1.493   0.317  0.00  0.00    +0.040 C 
ATOM     16  C   LIG    1        9.274  -1.177   0.504  0.00  0.00    +0.050 C 
ENDBRANCH   7  16
ENDBRANCH   1  11
BRANCH   5  17
ATOM     17  N   LIG    1        2.327   0.998   0.030  0.00  0.00    -0.680 N 
ATOM     18  H   LIG    1        2.257   0.139  -0.415  0.00  0.00    +0.410 HD
ATOM     19  C   LIG    1        1.298   1.461   0.767  0.00  0.00    +0.710 C 
ATOM     20  N   LIG    1        0.133   0.783   0.798  0.00  0.00    -0.740 N 
ATOM     21  H   LIG    1        0.036  -0.037   0.291  0.00  0.00    +0.400 HD
ATOM     22  O   LIG    1        1.420   2.490   1.403  0.00  0.00    -0.560 OA
BRANCH  20  23
ATOM     23  CA  LIG    1       -0.988   1.290   1.594  0.00  0.00    +0.390 C 
BRANCH  23  24
ATOM     24  C   LIG    1       -1.897   0.147   1.966  0.00  0.00    +0.210 A 
ATOM     25  N   LIG    1       -3.036   0.255   2.592  0.00  0.00    -0.480 NA
ATOM     26  C   LIG    1       -3.570  -0.966   2.753  0.00  0.00    +0.150 A 
ATOM     27  C   LIG    1       -2.728  -1.863   2.205  0.00  0.00    +0.130 A 
ATOM     28  N   LIG    1       -1.670  -1.157   1.701  0.00  0.00    -0.560 N 
ATOM     29  H   LIG    1       -0.899  -1.526   1.241  0.00  0.00    +0.410 HD
ENDBRANCH  23  24
BRANCH  23  30
ATOM     30  C   LIG    1       -1.770   2.319   0.776  0.00  0.00    +0.200 C 
BRANCH  30  31
ATOM     31  O   LIG    1       -2.368   1.676  -0.352  0.00  0.00    -0.570 OA
ATOM     32  H   LIG    1       -2.881   2.270  -0.917  0.00  0.00    +0.380 HD
ENDBRANCH  30  31
ENDBRANCH  23  30
ENDBRANCH  20  23
ENDBRANCH   5  17
TORSDOF 7
