REMARK  Name = ZINCrD000006VqSv.0
REMARK                            x       y       z     vdW  Elec       q    Type
REMARK                         _______ _______ _______ _____ _____    ______ ____
ROOT
ATOM      1  C   LIG    1        2.263   0.156   1.052  0.00  0.00    +0.010 C 
ATOM      2  C   LIG    1        0.880  -0.492   1.159  0.00  0.00    +0.050 C 
ATOM      3  C   LIG    1        0.002  -0.004   0.002  0.00  0.00    +0.300 C 
ATOM      4  N   LIG    1       -0.018   1.465   0.010  0.00  0.00    -1.000 NA
ATOM      5  C   LIG    1        1.261   2.189   0.002  0.00  0.00    +0.300 C 
ATOM      6  C   LIG    1        2.125   1.677   1.158  0.00  0.00    +0.030 C 
ENDROOT
BRANCH   1   8
ATOM      7  O   LIG    1        2.703  -1.145   2.971  0.00  0.00    -0.460 OA
ATOM      8  C   LIG    1        3.140  -0.347   2.169  0.00  0.00    +0.510 C 
ATOM      9  N   LIG    1        4.411   0.089   2.277  0.00  0.00    -0.640 N 
ATOM     10  H   LIG    1        4.760   0.728   1.636  0.00  0.00    +0.420 HD
BRANCH   9  11
ATOM     11  C   LIG    1        5.220  -0.375   3.307  0.00  0.00    +0.270 A 
ATOM     12  N   LIG    1        4.853  -1.217   4.212  0.00  0.00    -0.470 NA
ATOM     13  C   LIG    1        5.755  -1.568   5.135  0.00  0.00    +0.070 A 
ATOM     14  C   LIG    1        6.936  -0.962   4.976  0.00  0.00    -0.260 A 
ATOM     15  C   LIG    1        7.915  -1.394   6.052  0.00  0.00    +0.130 C 
ATOM     16  C   LIG    1        7.309  -2.685   6.641  0.00  0.00    +0.050 C 
ATOM     17  C   LIG    1        5.808  -2.486   6.353  0.00  0.00    +0.130 C 
ATOM     18  S   LIG    1        6.843   0.092   3.562  0.00  0.00    +0.140 S 
ENDBRANCH   9  11
ENDBRANCH   1   8
BRANCH   4  19
ATOM     19  S   LIG    1       -1.454   2.289   0.021  0.00  0.00    +2.690 S 
ATOM     20  O   LIG    1       -2.427   1.408  -0.523  0.00  0.00    -0.950 OA
ATOM     21  O   LIG    1       -1.183   3.576  -0.517  0.00  0.00    -0.950 OA
BRANCH  19  22
ATOM     22  C   LIG    1       -1.898   2.540   1.708  0.00  0.00    -0.680 A 
ATOM     23  C   LIG    1       -2.673   1.602   2.365  0.00  0.00    +0.140 A 
ATOM     24  C   LIG    1       -3.018   1.795   3.689  0.00  0.00    +0.020 A 
ATOM     25  C   LIG    1       -2.596   2.933   4.355  0.00  0.00    +0.020 A 
ATOM     26  C   LIG    1       -1.825   3.873   3.695  0.00  0.00    +0.010 A 
ATOM     27 CL   LIG    1       -3.033   3.179   6.016  0.00  0.00    -0.050 Cl
ATOM     28  C   LIG    1       -1.477   3.676   2.372  0.00  0.00    +0.140 A 
ENDBRANCH  19  22
ENDBRANCH   4  19
TORSDOF 4
