REMARK  Name = ZINCvU0000000Gs0.0
REMARK                            x       y       z     vdW  Elec       q    Type
REMARK                         _______ _______ _______ _____ _____    ______ ____
ROOT
ATOM      1  C   LIG    1       -0.288  -2.303  -0.006  0.00  0.00    -0.270 A 
ATOM      2  C   LIG    1       -0.875  -1.097   0.005  0.00  0.00    +0.190 A 
ATOM      3  C   LIG    1        0.002  -0.004   0.002  0.00  0.00    -0.220 A 
ATOM      4  C   LIG    1        1.335  -0.380  -0.013  0.00  0.00    +0.010 A 
ATOM      5  N   LIG    1        2.084   0.767  -0.014  0.00  0.00    -0.300 N 
ATOM      6  N   LIG    1        1.208   1.857   0.001  0.00  0.00    -0.260 NA
ATOM      7  C   LIG    1       -0.017   1.426   0.010  0.00  0.00    +0.150 A 
ATOM      8  C   LIG    1       -1.253   2.289   0.021  0.00  0.00    +0.180 C 
ATOM      9  S   LIG    1        1.459  -2.134  -0.022  0.00  0.00    +0.210 S 
ENDROOT
BRANCH   1  14
ATOM     10  C   LIG    1        0.191  -7.005   0.579  0.00  0.00    +0.040 C 
ATOM     11  C   LIG    1        1.478  -6.374  -0.015  0.00  0.00    +0.050 C 
ATOM     12  C   LIG    1        1.148  -4.867  -0.032  0.00  0.00    +0.240 C 
ATOM     13  N   LIG    1       -0.317  -4.740  -0.018  0.00  0.00    -0.620 N 
ATOM     14  C   LIG    1       -1.006  -3.581  -0.006  0.00  0.00    +0.610 C 
ATOM     15  O   LIG    1       -2.222  -3.597   0.006  0.00  0.00    -0.520 OA
ATOM     16  C   LIG    1       -0.908  -6.091  -0.013  0.00  0.00    +0.290 C 
BRANCH  10  20
ATOM     17  C   LIG    1       -0.288 -11.040  -0.742  0.00  0.00    +0.130 A 
ATOM     18  C   LIG    1       -0.175 -10.761   0.613  0.00  0.00    -0.020 A 
ATOM     19  C   LIG    1       -0.021  -9.456   1.037  0.00  0.00    +0.060 A 
ATOM     20  C   LIG    1        0.022  -8.428   0.114  0.00  0.00    -0.110 A 
ATOM     21  C   LIG    1       -0.096  -8.703  -1.236  0.00  0.00    +0.060 A 
ATOM     22  C   LIG    1       -0.245 -10.007  -1.666  0.00  0.00    -0.080 A 
BRANCH  17  24
ATOM     23  C   LIG    1       -0.550 -12.537  -2.570  0.00  0.00    +0.250 C 
ATOM     24  O   LIG    1       -0.440 -12.324  -1.161  0.00  0.00    -0.320 OA
ENDBRANCH  17  24
ENDBRANCH  10  20
ENDBRANCH   1  14
BRANCH   5  25
ATOM     25  C   LIG    1        3.484   0.836  -0.027  0.00  0.00    +0.140 A 
ATOM     26  C   LIG    1        4.234  -0.113   0.654  0.00  0.00    +0.040 A 
ATOM     27  C   LIG    1        5.613  -0.046   0.635  0.00  0.00    +0.020 A 
ATOM     28  C   LIG    1        6.248   0.973  -0.054  0.00  0.00    +0.100 A 
ATOM     29  C   LIG    1        5.502   1.925  -0.730  0.00  0.00    +0.020 A 
ATOM     30  F   LIG    1        7.598   1.040  -0.067  0.00  0.00    -0.130 F 
ATOM     31  C   LIG    1        4.123   1.858  -0.718  0.00  0.00    +0.070 A 
ENDBRANCH   5  25
TORSDOF 4
