REMARK  Name = ZINCpk00000KfL6y.2
REMARK                            x       y       z     vdW  Elec       q    Type
REMARK                         _______ _______ _______ _____ _____    ______ ____
ROOT
ATOM      1  O   LIG    1       -6.120   1.626  -3.913  0.00  0.00    -0.520 OA
ATOM      2  C   LIG    1       -6.504   2.486  -3.148  0.00  0.00    +0.510 C 
ATOM      3  N   LIG    1       -7.769   2.945  -3.231  0.00  0.00    -0.740 N 
ATOM      4  H   LIG    1       -8.076   3.633  -2.620  0.00  0.00    +0.400 HD
ENDROOT
BRANCH   3   5
ATOM      5  C   LIG    1       -8.679   2.406  -4.244  0.00  0.00    +0.270 C 
BRANCH   5   6
ATOM      6  C   LIG    1      -10.041   3.092  -4.123  0.00  0.00    +0.070 C 
BRANCH   6   7
ATOM      7  C   LIG    1      -10.978   2.538  -5.165  0.00  0.00    -0.100 A 
ATOM      8  C   LIG    1      -11.054   3.131  -6.412  0.00  0.00    +0.050 A 
ATOM      9  C   LIG    1      -11.908   2.620  -7.370  0.00  0.00    -0.010 A 
ATOM     10  C   LIG    1      -12.696   1.519  -7.078  0.00  0.00    +0.100 A 
ATOM     11  C   LIG    1      -12.623   0.929  -5.828  0.00  0.00    -0.010 A 
ATOM     12  F   LIG    1      -13.535   1.022  -8.012  0.00  0.00    -0.140 F 
ATOM     13  C   LIG    1      -11.764   1.439  -4.873  0.00  0.00    +0.050 A 
ENDBRANCH   6   7
ENDBRANCH   5   6
ENDBRANCH   3   5
BRANCH   2  14
ATOM     14  C   LIG    1       -5.568   3.041  -2.106  0.00  0.00    +0.210 C 
BRANCH  14  15
ATOM     15  N   LIG    1       -4.260   2.381  -2.222  0.00  0.00    -0.520 NA
ATOM     16  C   LIG    1       -3.610   2.723  -3.494  0.00  0.00    +0.170 C 
ATOM     17  C   LIG    1       -2.323   1.909  -3.645  0.00  0.00    +0.030 C 
ATOM     18  C   LIG    1       -1.388   2.218  -2.472  0.00  0.00    +0.010 C 
ATOM     19  C   LIG    1       -2.107   1.899  -1.159  0.00  0.00    +0.000 C 
ATOM     20  C   LIG    1       -3.400   2.713  -1.079  0.00  0.00    +0.190 C 
BRANCH  19  21
ATOM     21  C   LIG    1       -1.202   2.262   0.020  0.00  0.00    +0.320 C 
BRANCH  21  22
ATOM     22  N   LIG    1       -0.017   1.400   0.010  0.00  0.00    -0.380 N 
ATOM     23  C   LIG    1        1.268   1.796  -0.000  0.00  0.00    +0.470 A 
ATOM     24  N   LIG    1        2.022   0.727  -0.013  0.00  0.00    -0.550 NA
ATOM     25  C   LIG    1        1.258  -0.365  -0.012  0.00  0.00    +0.420 A 
ATOM     26  N   LIG    1        0.002  -0.004   0.002  0.00  0.00    -0.310 NA
ENDBRANCH  21  22
ENDBRANCH  19  21
ENDBRANCH  14  15
ENDBRANCH   2  14
TORSDOF 7
