REMARK  Name = ZINCrD00000F5Lut.0
REMARK                            x       y       z     vdW  Elec       q    Type
REMARK                         _______ _______ _______ _____ _____    ______ ____
ROOT
ATOM      1  C   LIG    1       -0.185   1.208   2.610  0.00  0.00    +0.260 C 
ENDROOT
BRANCH   1   2
ATOM      2  C   LIG    1       -0.511  -0.234   2.907  0.00  0.00    -0.100 A 
ATOM      3  C   LIG    1       -1.773  -0.579   3.353  0.00  0.00    +0.020 A 
ATOM      4  C   LIG    1       -2.073  -1.901   3.622  0.00  0.00    +0.000 A 
ATOM      5  C   LIG    1       -1.108  -2.877   3.454  0.00  0.00    +0.010 A 
ATOM      6  C   LIG    1        0.156  -2.531   3.014  0.00  0.00    +0.010 A 
ATOM      7  C   LIG    1        0.454  -1.209   2.741  0.00  0.00    +0.030 A 
ENDBRANCH   1   2
BRANCH   1  10
ATOM      8  O   LIG    1        0.915   1.796   4.999  0.00  0.00    -0.530 OA
ATOM      9  C   LIG    1       -0.169   2.299   4.788  0.00  0.00    +0.520 C 
ATOM     10  N   LIG    1       -0.804   2.067   3.622  0.00  0.00    -0.720 N 
ATOM     11  H   LIG    1       -1.670   2.469   3.453  0.00  0.00    +0.410 HD
BRANCH   9  12
ATOM     12  C   LIG    1       -0.805   3.183   5.829  0.00  0.00    +0.070 C 
BRANCH  12  13
ATOM     13  C   LIG    1        0.116   3.281   7.047  0.00  0.00    +0.030 C 
ATOM     14  C   LIG    1        1.204   4.357   6.910  0.00  0.00    +0.040 C 
ATOM     15  C   LIG    1        0.955   4.700   8.387  0.00  0.00    -0.050 C 
ATOM     16  C   LIG    1        1.622   3.716   9.363  0.00  0.00    +0.210 C 
ATOM     17  O   LIG    1        0.600   2.917   9.961  0.00  0.00    -0.380 OA
ATOM     18  C   LIG    1       -0.691   3.313   9.489  0.00  0.00    +0.200 C 
ATOM     19  C   LIG    1       -0.470   4.118   8.195  0.00  0.00    -0.020 C 
ENDBRANCH  12  13
ENDBRANCH   9  12
ENDBRANCH   1  10
BRANCH   1  20
ATOM     20  C   LIG    1       -0.718   1.572   1.248  0.00  0.00    +0.360 C 
ATOM     21  O   LIG    1       -1.710   2.253   1.150  0.00  0.00    -0.430 OA
BRANCH  20  22
ATOM     22  C   LIG    1       -0.013   1.086   0.008  0.00  0.00    +0.090 C 
BRANCH  22  23
ATOM     23  C   LIG    1       -0.742   1.585  -1.213  0.00  0.00    -0.080 A 
ATOM     24  C   LIG    1       -1.750   0.825  -1.775  0.00  0.00    +0.010 A 
ATOM     25  C   LIG    1       -2.422   1.285  -2.892  0.00  0.00    +0.000 A 
ATOM     26  C   LIG    1       -2.078   2.501  -3.453  0.00  0.00    +0.000 A 
ATOM     27  C   LIG    1       -1.066   3.259  -2.894  0.00  0.00    +0.000 A 
ATOM     28  C   LIG    1       -0.398   2.801  -1.774  0.00  0.00    +0.010 A 
ENDBRANCH  22  23
ENDBRANCH  20  22
ENDBRANCH   1  20
TORSDOF 7
