REMARK  Name = ZINCbw0000000HkL.0
REMARK                            x       y       z     vdW  Elec       q    Type
REMARK                         _______ _______ _______ _____ _____    ______ ____
ROOT
ATOM      1  C   LIG    1        2.474   3.922   0.001  0.00  0.00    +0.120 C 
ATOM      2  C   LIG    1        1.171   3.166   0.008  0.00  0.00    -0.100 A 
ATOM      3  C   LIG    1        1.177   1.782   0.000  0.00  0.00    +0.100 A 
ATOM      4  C   LIG    1       -0.013   1.076   0.008  0.00  0.00    -0.010 A 
ATOM      5  C   LIG    1       -1.220   1.748   0.017  0.00  0.00    +0.160 A 
ATOM      6  C   LIG    1       -1.235   3.150   0.030  0.00  0.00    -0.220 A 
ATOM      7  F   LIG    1       -2.381   1.058   0.019  0.00  0.00    -0.110 F 
ATOM      8  C   LIG    1       -0.025   3.855   0.023  0.00  0.00    +0.030 A 
ATOM      9 CL   LIG    1       -0.028   5.591   0.032  0.00  0.00    -0.040 Cl
ENDROOT
BRANCH   6  10
ATOM     10  C   LIG    1       -2.512   3.875   0.046  0.00  0.00    +0.500 C 
ATOM     11  O   LIG    1       -3.558   3.261   0.052  0.00  0.00    -0.440 OA
ENDBRANCH   6  10
TORSDOF 1
