REMARK  Name = ZINCpk00000ebiZe.0
REMARK                            x       y       z     vdW  Elec       q    Type
REMARK                         _______ _______ _______ _____ _____    ______ ____
ROOT
ATOM      1  C   LIG    1       -1.625  -4.195   1.248  0.00  0.00    -0.040 C 
ATOM      2  C   LIG    1       -1.107  -3.869   0.085  0.00  0.00    -0.030 C 
ATOM      3  C   LIG    1       -0.078  -2.792  -0.087  0.00  0.00    +0.330 C 
ATOM      4  N   LIG    1        0.042  -2.029   1.164  0.00  0.00    -0.630 N 
ATOM      5  C   LIG    1        0.061  -2.792   2.423  0.00  0.00    +0.310 C 
ATOM      6  C   LIG    1        0.125  -0.683   1.158  0.00  0.00    +0.720 C 
ATOM      7  N   LIG    1        0.005  -0.005  -0.000  0.00  0.00    -0.740 N 
ATOM      8  H   LIG    1       -0.066  -0.487  -0.839  0.00  0.00    +0.400 HD
ATOM      9  O   LIG    1        0.308  -0.081   2.199  0.00  0.00    -0.580 OA
ATOM     10  C   LIG    1       -1.272  -3.533   2.547  0.00  0.00    +0.080 C 
ENDROOT
BRANCH   7  11
ATOM     11  C   LIG    1       -0.017   1.459   0.007  0.00  0.00    +0.280 C 
ATOM     12  C   LIG    1        1.420   1.998  -0.000  0.00  0.00    +0.030 C 
ATOM     13  C   LIG    1        2.167   1.387  -1.187  0.00  0.00    +0.070 C 
ATOM     14  C   LIG    1        1.372   1.554  -2.449  0.00  0.00    +0.520 C 
ATOM     15  N   LIG    1        0.058   1.798  -2.463  0.00  0.00    -0.700 N 
ATOM     16  H   LIG    1       -0.393   1.863  -3.319  0.00  0.00    +0.400 HD
ATOM     17  O   LIG    1        1.952   1.463  -3.510  0.00  0.00    -0.550 OA
ATOM     18  C   LIG    1       -0.727   1.970  -1.246  0.00  0.00    +0.130 C 
ATOM     19  C   LIG    1       -1.303   3.384  -1.082  0.00  0.00    +0.040 C 
ATOM     20  C   LIG    1       -2.533   2.885  -1.860  0.00  0.00    +0.020 C 
ATOM     21  C   LIG    1       -2.173   1.472  -1.370  0.00  0.00    +0.030 C 
ENDBRANCH   7  11
BRANCH   1  27
ATOM     22  C   LIG    1       -4.246  -4.346  -0.407  0.00  0.00    +0.340 C 
ATOM     23  N   LIG    1       -3.771  -5.349   0.549  0.00  0.00    -0.370 N 
ATOM     24  N   LIG    1       -4.415  -6.548   0.878  0.00  0.00    -0.290 NA
ATOM     25  C   LIG    1       -3.698  -7.181   1.771  0.00  0.00    +0.240 A 
ATOM     26  C   LIG    1       -2.561  -6.423   2.050  0.00  0.00    -0.100 A 
ATOM     27  C   LIG    1       -2.618  -5.283   1.277  0.00  0.00    +0.100 A 
ENDBRANCH   1  27
TORSDOF 2
