REMARK  Name = ZINCpe00000MJLZr.2
REMARK                            x       y       z     vdW  Elec       q    Type
REMARK                         _______ _______ _______ _____ _____    ______ ____
ROOT
ATOM      1  C   LIG    1        2.602  -0.092  -0.208  0.00  0.00    +0.260 C 
ATOM      2  C   LIG    1        1.251  -0.718  -0.573  0.00  0.00    +0.310 C 
ATOM      3  N   LIG    1        0.198  -0.023   0.184  0.00  0.00    -0.600 N 
ATOM      4  C   LIG    1        0.170   1.448   0.138  0.00  0.00    +0.260 C 
ATOM      5  C   LIG    1        1.573   1.969   0.468  0.00  0.00    +0.240 C 
ATOM      6  C   LIG    1       -0.714  -0.713   0.897  0.00  0.00    +0.590 C 
ATOM      7  O   LIG    1       -1.493  -0.122   1.620  0.00  0.00    -0.530 OA
ATOM      8  O   LIG    1        2.526   1.325  -0.381  0.00  0.00    -0.390 OA
ENDROOT
BRANCH   1  13
ATOM      9  C   LIG    1        4.958  -2.054  -2.135  0.00  0.00    +0.230 A 
ATOM     10  N   LIG    1        5.340  -0.867  -2.529  0.00  0.00    -0.310 NA
ATOM     11  N   LIG    1        4.514   0.062  -1.874  0.00  0.00    -0.460 N 
ATOM     12  H   LIG    1        4.545   1.028  -1.959  0.00  0.00    +0.450 HD
ATOM     13  C   LIG    1        3.676  -0.652  -1.104  0.00  0.00    +0.290 A 
ATOM     14  N   LIG    1        3.951  -1.920  -1.273  0.00  0.00    -0.520 NA
BRANCH   9  15
ATOM     15  C   LIG    1        5.560  -3.360  -2.583  0.00  0.00    +0.150 C 
BRANCH  15  17
ATOM     16  C   LIG    1        5.433  -5.189  -4.281  0.00  0.00    +0.030 C 
ATOM     17  C   LIG    1        4.822  -3.862  -3.826  0.00  0.00    +0.010 C 
ENDBRANCH  15  17
ENDBRANCH   9  15
ENDBRANCH   1  13
BRANCH   6  18
ATOM     18  C   LIG    1       -0.766  -2.187   0.801  0.00  0.00    -0.040 A 
ATOM     19  C   LIG    1       -1.588  -2.918   1.669  0.00  0.00    +0.140 A 
ATOM     20  C   LIG    1       -1.608  -4.295   1.537  0.00  0.00    -0.030 A 
ATOM     21  C   LIG    1       -0.800  -4.872   0.556  0.00  0.00    +0.360 A 
ATOM     22  N   LIG    1       -0.047  -4.100  -0.221  0.00  0.00    -0.300 NA
ATOM     23  N   LIG    1       -0.031  -2.822  -0.103  0.00  0.00    -0.160 NA
BRANCH  21  24
ATOM     24  N   LIG    1       -0.783  -6.247   0.392  0.00  0.00    -0.600 N 
ATOM     25  C   LIG    1        0.145  -6.860  -0.561  0.00  0.00    +0.310 C 
ATOM     26  C   LIG    1       -1.694  -7.089   1.172  0.00  0.00    +0.290 C 
ENDBRANCH  21  24
ENDBRANCH   6  18
TORSDOF 5
