REMARK  Name = ZINCpe00000MJLZr.1
REMARK                            x       y       z     vdW  Elec       q    Type
REMARK                         _______ _______ _______ _____ _____    ______ ____
ROOT
ATOM      1  C   LIG    1        2.164   1.669  -5.121  0.00  0.00    +0.270 C 
ATOM      2  C   LIG    1        1.572   1.830  -6.526  0.00  0.00    +0.280 C 
ATOM      3  N   LIG    1        2.669   2.127  -7.461  0.00  0.00    -0.600 N 
ATOM      4  C   LIG    1        3.850   1.249  -7.442  0.00  0.00    +0.270 C 
ATOM      5  C   LIG    1        4.331   1.116  -5.992  0.00  0.00    +0.220 C 
ATOM      6  C   LIG    1        2.595   3.172  -8.309  0.00  0.00    +0.590 C 
ATOM      7  O   LIG    1        1.622   3.900  -8.292  0.00  0.00    -0.530 OA
ATOM      8  O   LIG    1        3.233   0.721  -5.167  0.00  0.00    -0.370 OA
ENDROOT
BRANCH   1  11
ATOM      9  C   LIG    1       -0.396   1.183  -2.615  0.00  0.00    +0.290 A 
ATOM     10  N   LIG    1        0.473   1.917  -3.261  0.00  0.00    -0.530 NA
ATOM     11  C   LIG    1        1.095   1.178  -4.179  0.00  0.00    +0.230 A 
ATOM     12  N   LIG    1        0.628  -0.042  -4.129  0.00  0.00    -0.280 NA
ATOM     13  N   LIG    1       -0.341  -0.064  -3.113  0.00  0.00    -0.480 N 
ATOM     14  H   LIG    1       -0.868  -0.828  -2.829  0.00  0.00    +0.440 HD
BRANCH   9  15
ATOM     15  C   LIG    1       -1.297   1.653  -1.502  0.00  0.00    +0.150 C 
BRANCH  15  17
ATOM     16  C   LIG    1       -1.558   1.826   0.977  0.00  0.00    +0.030 C 
ATOM     17  C   LIG    1       -0.643   1.349  -0.153  0.00  0.00    +0.010 C 
ENDBRANCH  15  17
ENDBRANCH   9  15
ENDBRANCH   1  11
BRANCH   6  18
ATOM     18  C   LIG    1        3.697   3.432  -9.259  0.00  0.00    -0.030 A 
ATOM     19  C   LIG    1        3.742   4.639  -9.968  0.00  0.00    +0.140 A 
ATOM     20  C   LIG    1        4.793   4.838 -10.846  0.00  0.00    -0.030 A 
ATOM     21  C   LIG    1        5.743   3.824 -10.971  0.00  0.00    +0.360 A 
ATOM     22  N   LIG    1        5.621   2.709 -10.258  0.00  0.00    -0.310 NA
ATOM     23  N   LIG    1        4.650   2.525  -9.439  0.00  0.00    -0.160 NA
BRANCH  21  24
ATOM     24  N   LIG    1        6.813   3.979 -11.838  0.00  0.00    -0.600 N 
ATOM     25  C   LIG    1        7.749   2.872 -12.051  0.00  0.00    +0.310 C 
ATOM     26  C   LIG    1        7.008   5.249 -12.540  0.00  0.00    +0.290 C 
ENDBRANCH  21  24
ENDBRANCH   6  18
TORSDOF 5
