REMARK  Name = ZINCpe00000MJLZr.0
REMARK                            x       y       z     vdW  Elec       q    Type
REMARK                         _______ _______ _______ _____ _____    ______ ____
ROOT
ATOM      1  C   LIG    1       -2.252   0.950  -1.322  0.00  0.00    +0.270 C 
ATOM      2  C   LIG    1       -2.879   1.577  -0.071  0.00  0.00    +0.300 C 
ATOM      3  N   LIG    1       -2.138   1.101   1.107  0.00  0.00    -0.600 N 
ATOM      4  C   LIG    1       -0.669   1.213   1.094  0.00  0.00    +0.270 C 
ATOM      5  C   LIG    1       -0.151   0.604  -0.214  0.00  0.00    +0.230 C 
ATOM      6  C   LIG    1       -2.784   0.577   2.168  0.00  0.00    +0.590 C 
ATOM      7  O   LIG    1       -3.994   0.469   2.150  0.00  0.00    -0.520 OA
ATOM      8  O   LIG    1       -0.844   1.195  -1.316  0.00  0.00    -0.390 OA
ENDROOT
BRANCH   1  12
ATOM      9  C   LIG    1       -3.142   2.565  -4.454  0.00  0.00    +0.180 A 
ATOM     10  N   LIG    1       -4.301   2.210  -3.971  0.00  0.00    -0.280 NA
ATOM     11  N   LIG    1       -4.137   1.615  -2.842  0.00  0.00    -0.270 NA
ATOM     12  C   LIG    1       -2.865   1.564  -2.555  0.00  0.00    +0.180 A 
ATOM     13  N   LIG    1       -2.197   2.169  -3.567  0.00  0.00    -0.560 N 
ATOM     14  H   LIG    1       -1.238   2.292  -3.642  0.00  0.00    +0.430 HD
BRANCH   9  15
ATOM     15  C   LIG    1       -2.899   3.285  -5.755  0.00  0.00    +0.150 C 
BRANCH  15  17
ATOM     16  C   LIG    1       -3.300   3.236  -8.220  0.00  0.00    +0.020 C 
ATOM     17  C   LIG    1       -3.546   2.504  -6.900  0.00  0.00    +0.020 C 
ENDBRANCH  15  17
ENDBRANCH   9  15
ENDBRANCH   1  12
BRANCH   6  18
ATOM     18  C   LIG    1       -2.020   0.134   3.354  0.00  0.00    -0.030 A 
ATOM     19  C   LIG    1       -2.648  -0.621   4.352  0.00  0.00    +0.140 A 
ATOM     20  C   LIG    1       -1.892  -1.012   5.443  0.00  0.00    -0.020 A 
ATOM     21  C   LIG    1       -0.550  -0.630   5.482  0.00  0.00    +0.360 A 
ATOM     22  N   LIG    1       -0.036   0.088   4.489  0.00  0.00    -0.310 NA
ATOM     23  N   LIG    1       -0.735   0.447   3.473  0.00  0.00    -0.160 NA
BRANCH  21  24
ATOM     24  N   LIG    1        0.245  -0.999   6.554  0.00  0.00    -0.600 N 
ATOM     25  C   LIG    1        1.621  -0.507   6.649  0.00  0.00    +0.300 C 
ATOM     26  C   LIG    1       -0.291  -1.881   7.594  0.00  0.00    +0.300 C 
ENDBRANCH  21  24
ENDBRANCH   6  18
TORSDOF 5
