REMARK  Name = ZINCpk00000ebIXS.0
REMARK                            x       y       z     vdW  Elec       q    Type
REMARK                         _______ _______ _______ _____ _____    ______ ____
ROOT
ATOM      1  O   LIG    1        3.498   1.932  -0.010  0.00  0.00    -0.500 OA
ATOM      2  C   LIG    1        2.433   1.342  -0.009  0.00  0.00    +0.560 A 
ATOM      3  N   LIG    1        2.411  -0.004  -0.017  0.00  0.00    -0.630 N 
ATOM      4  H   LIG    1        3.246  -0.496  -0.024  0.00  0.00    +0.420 HD
ATOM      5  C   LIG    1        1.216  -0.693  -0.017  0.00  0.00    +0.250 A 
ATOM      6  C   LIG    1        1.213  -2.085  -0.026  0.00  0.00    -0.240 A 
ATOM      7  C   LIG    1        0.018  -2.769  -0.026  0.00  0.00    +0.150 A 
ATOM      8  C   LIG    1       -1.190  -2.085  -0.017  0.00  0.00    +0.000 A 
ATOM      9  C   LIG    1       -1.215  -0.720  -0.008  0.00  0.00    +0.140 A 
ATOM     10  C   LIG    1       -0.010   0.000  -0.008  0.00  0.00    -0.140 A 
ATOM     11  C   LIG    1       -0.025   1.416   0.001  0.00  0.00    +0.190 A 
ATOM     12  C   LIG    1        1.177   2.100   0.001  0.00  0.00    -0.220 A 
ENDROOT
BRANCH  12  13
ATOM     13  C   LIG    1        1.196   3.572   0.010  0.00  0.00    +0.590 C 
ATOM     14  N   LIG    1        0.911   4.243   1.144  0.00  0.00    -0.620 N 
ATOM     15  C   LIG    1        0.690   3.504   2.388  0.00  0.00    +0.340 C 
ATOM     16  C   LIG    1        1.790   3.870   3.396  0.00  0.00    -0.340 C 
ATOM     17  S   LIG    1        1.752   5.663   3.684  0.00  0.00    +2.420 S 
ATOM     18  C   LIG    1        1.925   6.302   1.992  0.00  0.00    -0.330 C 
ATOM     19  O   LIG    1        0.467   6.019   4.174  0.00  0.00    -0.930 OA
ATOM     20  O   LIG    1        2.906   6.029   4.428  0.00  0.00    -0.930 OA
ATOM     21  C   LIG    1        0.818   5.704   1.119  0.00  0.00    +0.340 C 
ATOM     22  O   LIG    1        1.468   4.184  -1.006  0.00  0.00    -0.500 OA
ENDBRANCH  12  13
BRANCH   6  23
ATOM     23  C   LIG    1        2.516  -2.842  -0.037  0.00  0.00    +0.510 C 
ATOM     24  F   LIG    1        3.255  -2.514   1.105  0.00  0.00    -0.170 F 
ATOM     25  F   LIG    1        3.246  -2.498  -1.180  0.00  0.00    -0.170 F 
ATOM     26  F   LIG    1        2.256  -4.217  -0.046  0.00  0.00    -0.170 F 
ENDBRANCH   6  23
TORSDOF 2
