REMARK  Name = ZINCkj000005jl1Q.0
REMARK                            x       y       z     vdW  Elec       q    Type
REMARK                         _______ _______ _______ _____ _____    ______ ____
ROOT
ATOM      1  C   LIG    1       -2.243  -4.239  -0.641  0.00  0.00    +0.110 C 
ATOM      2  C   LIG    1       -2.128  -2.724  -0.819  0.00  0.00    +0.150 C 
ATOM      3  C   LIG    1       -1.147  -2.162   0.209  0.00  0.00    +0.330 C 
ATOM      4  N   LIG    1       -1.150  -0.694   0.111  0.00  0.00    -0.630 N 
ATOM      5  C   LIG    1       -2.448  -0.002   0.130  0.00  0.00    +0.310 C 
ATOM      6  C   LIG    1       -3.368  -0.666  -0.900  0.00  0.00    +0.270 C 
ATOM      7  C   LIG    1        0.002  -0.004   0.002  0.00  0.00    +0.610 C 
ATOM      8  O   LIG    1        1.056  -0.597  -0.127  0.00  0.00    -0.510 OA
ATOM      9  N   LIG    1       -3.446  -2.107  -0.627  0.00  0.00    -0.500 N 
ATOM     10  H   LIG    1       -4.109  -2.532  -1.259  0.00  0.00    +0.430 HD
ATOM     11  H   LIG    1       -3.749  -2.252   0.324  0.00  0.00    +0.430 HD
ENDROOT
BRANCH   7  12
ATOM     12  C   LIG    1       -0.015   1.470   0.039  0.00  0.00    -0.300 A 
ATOM     13  C   LIG    1        0.902   2.315  -0.553  0.00  0.00    +0.330 A 
ATOM     14  N   LIG    1        0.521   3.576  -0.279  0.00  0.00    -0.290 N 
ATOM     15  N   LIG    1       -0.645   3.529   0.493  0.00  0.00    -0.270 NA
ATOM     16  C   LIG    1       -0.976   2.281   0.683  0.00  0.00    +0.270 A 
BRANCH  14  17
ATOM     17  C   LIG    1        1.181   4.740  -0.697  0.00  0.00    +0.130 A 
ATOM     18  C   LIG    1        2.338   4.648  -1.459  0.00  0.00    +0.000 A 
ATOM     19  C   LIG    1        2.984   5.797  -1.872  0.00  0.00    +0.050 A 
ATOM     20  C   LIG    1        2.485   7.037  -1.519  0.00  0.00    +0.030 A 
ATOM     21  C   LIG    1        1.335   7.132  -0.756  0.00  0.00    +0.040 A 
ATOM     22  C   LIG    1        0.683   5.987  -0.344  0.00  0.00    +0.030 A 
ENDBRANCH  14  17
ENDBRANCH   7  12
TORSDOF 2
