REMARK  Name = ZINCrD0000070Yor.0
REMARK                            x       y       z     vdW  Elec       q    Type
REMARK                         _______ _______ _______ _____ _____    ______ ____
ROOT
ATOM      1  O   LIG    1        3.295   6.173   1.150  0.00  0.00    -0.330 OA
ENDROOT
BRANCH   1   2
ATOM      2  C   LIG    1        4.193   5.766   2.071  0.00  0.00    +0.540 C 
ATOM      3  O   LIG    1        4.144   4.632   2.507  0.00  0.00    -0.490 OA
BRANCH   2   8
ATOM      4  C   LIG    1        6.968   7.577   3.627  0.00  0.00    -0.260 A 
ATOM      5  C   LIG    1        6.436   8.537   2.779  0.00  0.00    +0.120 A 
ATOM      6  N   LIG    1        5.396   7.995   2.129  0.00  0.00    -0.510 N 
ATOM      7  H   LIG    1        4.846   8.450   1.472  0.00  0.00    +0.430 HD
ATOM      8  C   LIG    1        5.227   6.691   2.545  0.00  0.00    -0.050 A 
ATOM      9  C   LIG    1        6.945   9.945   2.610  0.00  0.00    +0.160 C 
ATOM     10  C   LIG    1        6.189   6.407   3.469  0.00  0.00    -0.020 A 
ATOM     11  C   LIG    1        6.385   5.095   4.184  0.00  0.00    +0.140 C 
BRANCH   4  13
ATOM     12  C   LIG    1        9.495   7.336   4.059  0.00  0.00    +0.080 C 
ATOM     13  C   LIG    1        8.120   7.745   4.519  0.00  0.00    +0.440 C 
ATOM     14  O   LIG    1        7.965   8.211   5.628  0.00  0.00    -0.450 OA
ENDBRANCH   4  13
ENDBRANCH   2   8
ENDBRANCH   1   2
BRANCH   1  15
ATOM     15  C   LIG    1        2.300   5.204   0.726  0.00  0.00    +0.200 C 
ATOM     16  C   LIG    1        2.831   4.420  -0.476  0.00  0.00    +0.080 C 
BRANCH  15  17
ATOM     17  C   LIG    1        1.033   5.922   0.339  0.00  0.00    +0.520 C 
ATOM     18  N   LIG    1       -0.124   5.238   0.234  0.00  0.00    -0.550 N 
ATOM     19  C   LIG    1       -0.141   3.775   0.364  0.00  0.00    +0.270 C 
ATOM     20  C   LIG    1       -1.029   3.214  -0.754  0.00  0.00    +0.020 C 
ATOM     21  C   LIG    1       -2.457   3.720  -0.551  0.00  0.00    +0.080 C 
ATOM     22  C   LIG    1       -2.468   5.217  -0.385  0.00  0.00    -0.110 A 
ATOM     23  C   LIG    1       -3.646   5.908  -0.612  0.00  0.00    +0.030 A 
ATOM     24  C   LIG    1       -3.687   7.281  -0.468  0.00  0.00    -0.020 A 
ATOM     25  C   LIG    1       -2.554   7.974  -0.085  0.00  0.00    +0.030 A 
ATOM     26  C   LIG    1       -1.376   7.292   0.147  0.00  0.00    +0.010 A 
ATOM     27  C   LIG    1       -1.330   5.911  -0.003  0.00  0.00    +0.150 A 
ATOM     28  O   LIG    1        1.054   7.115   0.121  0.00  0.00    -0.490 OA
ENDBRANCH  15  17
ENDBRANCH   1  15
TORSDOF 5
