REMARK  Name = ZINCrD00000hQ4JI.0
REMARK                            x       y       z     vdW  Elec       q    Type
REMARK                         _______ _______ _______ _____ _____    ______ ____
ROOT
ATOM      1  O   LIG    1       -3.792  -1.080   0.032  0.00  0.00    -0.530 OA
ATOM      2  C   LIG    1       -3.593  -2.280   0.024  0.00  0.00    +0.700 C 
ATOM      3  N   LIG    1       -2.366  -2.817   0.009  0.00  0.00    -0.560 N 
ATOM      4  C   LIG    1       -2.484  -4.284  -0.004  0.00  0.00    +0.270 C 
ATOM      5  C   LIG    1       -1.815  -4.841  -1.268  0.00  0.00    -0.300 C 
ATOM      6  S   LIG    1       -2.962  -6.180  -1.786  0.00  0.00    +2.400 S 
ATOM      7  C   LIG    1       -4.472  -5.282  -1.245  0.00  0.00    -0.290 C 
ATOM      8  O   LIG    1       -2.955  -6.300  -3.202  0.00  0.00    -0.910 OA
ATOM      9  O   LIG    1       -2.765  -7.326  -0.969  0.00  0.00    -0.910 OA
ATOM     10  C   LIG    1       -3.997  -4.535   0.016  0.00  0.00    +0.270 C 
ATOM     11  N   LIG    1       -4.582  -3.184   0.029  0.00  0.00    -0.550 N 
ENDROOT
BRANCH   3  12
ATOM     12  C   LIG    1       -1.165  -2.099   0.002  0.00  0.00    +0.190 A 
ATOM     13  C   LIG    1        0.049  -2.773  -0.014  0.00  0.00    +0.010 A 
ATOM     14  C   LIG    1        1.232  -2.061  -0.021  0.00  0.00    +0.050 A 
ATOM     15  C   LIG    1        1.209  -0.678  -0.013  0.00  0.00    +0.050 A 
ATOM     16  C   LIG    1        0.002  -0.004   0.002  0.00  0.00    -0.150 A 
ATOM     17  C   LIG    1       -1.185  -0.710   0.015  0.00  0.00    +0.070 A 
BRANCH  16  18
ATOM     18  C   LIG    1       -0.018   1.503   0.010  0.00  0.00    +0.510 C 
ATOM     19  F   LIG    1       -0.673   1.954   1.161  0.00  0.00    -0.170 F 
ATOM     20  F   LIG    1       -0.695   1.966  -1.123  0.00  0.00    -0.170 F 
ATOM     21  F   LIG    1        1.294   1.987   0.000  0.00  0.00    -0.180 F 
ENDBRANCH  16  18
ENDBRANCH   3  12
BRANCH  11  22
ATOM     22  C   LIG    1       -5.950  -2.892   0.044  0.00  0.00    +0.180 A 
ATOM     23  C   LIG    1       -6.882  -3.922   0.042  0.00  0.00    -0.030 A 
ATOM     24  C   LIG    1       -8.231  -3.631   0.063  0.00  0.00    +0.040 A 
ATOM     25  C   LIG    1       -8.656  -2.315   0.075  0.00  0.00    -0.010 A 
ATOM     26  C   LIG    1       -7.731  -1.287   0.071  0.00  0.00    +0.040 A 
ATOM     27  C   LIG    1       -6.380  -1.572   0.056  0.00  0.00    +0.010 A 
ENDBRANCH  11  22
TORSDOF 3
