REMARK  Name = ZINCpk00000dHuFa.0
REMARK                            x       y       z     vdW  Elec       q    Type
REMARK                         _______ _______ _______ _____ _____    ______ ____
ROOT
ATOM      1  O   LIG    1       -0.176   3.478  -3.049  0.00  0.00    -0.560 OA
ATOM      2  C   LIG    1       -0.694   3.910  -2.038  0.00  0.00    +0.710 C 
ATOM      3  N   LIG    1       -1.101   3.061  -1.073  0.00  0.00    -0.620 N 
ATOM      4  C   LIG    1       -1.038   1.608  -1.280  0.00  0.00    +0.300 C 
ATOM      5  C   LIG    1       -0.223   0.985  -0.139  0.00  0.00    +0.290 C 
ATOM      6  N   LIG    1       -0.734   1.496   1.140  0.00  0.00    -0.610 N 
ATOM      7  C   LIG    1       -0.802   2.950   1.346  0.00  0.00    +0.270 C 
ATOM      8  C   LIG    1       -1.138   0.647   2.106  0.00  0.00    +0.520 C 
ATOM      9  O   LIG    1       -1.082  -0.550   1.923  0.00  0.00    -0.510 OA
ATOM     10  C   LIG    1       -1.616   3.573   0.205  0.00  0.00    +0.270 C 
ATOM     11  N   LIG    1       -0.862   5.238  -1.881  0.00  0.00    -0.680 N 
ATOM     12  H   LIG    1       -1.210   5.588  -1.046  0.00  0.00    +0.420 HD
ENDROOT
BRANCH  11  13
ATOM     13  C   LIG    1       -0.534   6.112  -2.924  0.00  0.00    +0.240 A 
ATOM     14  C   LIG    1        0.526   5.818  -3.771  0.00  0.00    +0.040 A 
ATOM     15  C   LIG    1        0.847   6.683  -4.799  0.00  0.00    +0.110 A 
ATOM     16  C   LIG    1        0.114   7.841  -4.985  0.00  0.00    +0.010 A 
ATOM     17  C   LIG    1       -0.942   8.137  -4.142  0.00  0.00    +0.120 A 
ATOM     18  C   LIG    1       -1.271   7.273  -3.116  0.00  0.00    -0.080 A 
BRANCH  18  19
ATOM     19  N   LIG    1       -2.405   7.588  -2.219  0.00  0.00    +0.040 N 
ATOM     20  O   LIG    1       -2.763   6.779  -1.381  0.00  0.00    -0.190 OA
ATOM     21  O   LIG    1       -2.982   8.656  -2.317  0.00  0.00    -0.150 OA
ENDBRANCH  18  19
ENDBRANCH  11  13
BRANCH   8  22
ATOM     22  C   LIG    1       -1.660   1.186   3.413  0.00  0.00    +0.160 C 
ATOM     23  C   LIG    1       -0.541   1.932   4.173  0.00  0.00    +0.020 C 
ATOM     24  C   LIG    1       -0.796   1.582   5.656  0.00  0.00    +0.010 C 
ATOM     25  C   LIG    1       -2.040   0.666   5.617  0.00  0.00    +0.210 C 
ATOM     26  O   LIG    1       -2.041   0.101   4.288  0.00  0.00    -0.340 OA
ENDBRANCH   8  22
TORSDOF 3
