REMARK  Name = ZINCrH000009j4eG.0
REMARK                            x       y       z     vdW  Elec       q    Type
REMARK                         _______ _______ _______ _____ _____    ______ ____
ROOT
ATOM      1  C   LIG    1       -2.065   5.870   1.376  0.00  0.00    +0.240 C 
ATOM      2  C   LIG    1       -2.660   4.765   2.253  0.00  0.00    +0.010 C 
ATOM      3  C   LIG    1       -1.548   3.800   2.676  0.00  0.00    +0.280 C 
ATOM      4  N   LIG    1       -0.863   3.311   1.472  0.00  0.00    -0.620 N 
ATOM      5  C   LIG    1       -0.327   4.290   0.517  0.00  0.00    +0.280 C 
ATOM      6  C   LIG    1       -0.724   1.989   1.250  0.00  0.00    +0.520 C 
ATOM      7  O   LIG    1       -1.166   1.190   2.049  0.00  0.00    -0.530 OA
ATOM      8  C   LIG    1       -1.457   5.250   0.115  0.00  0.00    +0.010 C 
ENDROOT
BRANCH   1  10
ATOM      9  C   LIG    1       -3.020   8.111   1.346  0.00  0.00    +0.510 C 
ATOM     10  N   LIG    1       -3.119   6.813   0.997  0.00  0.00    -0.620 N 
ATOM     11  C   LIG    1       -4.282   6.346   0.238  0.00  0.00    +0.270 C 
ATOM     12  O   LIG    1       -2.057   8.498   1.975  0.00  0.00    -0.540 OA
BRANCH   9  14
ATOM     13  C   LIG    1       -3.749  10.478   1.472  0.00  0.00    +0.040 C 
ATOM     14  C   LIG    1       -4.104   9.082   0.956  0.00  0.00    +0.040 C 
ENDBRANCH   9  14
ENDBRANCH   1  10
BRANCH   6  15
ATOM     15  C   LIG    1       -0.018   1.503   0.010  0.00  0.00    +0.100 C 
BRANCH  15  16
ATOM     16  C   LIG    1        0.002  -0.004   0.002  0.00  0.00    -0.070 A 
ATOM     17  C   LIG    1        1.058  -0.682   0.583  0.00  0.00    +0.020 A 
ATOM     18  C   LIG    1        1.080  -2.062   0.583  0.00  0.00    +0.020 A 
ATOM     19  C   LIG    1        0.040  -2.772  -0.014  0.00  0.00    -0.040 A 
ATOM     20  C   LIG    1       -1.019  -2.084  -0.602  0.00  0.00    +0.020 A 
ATOM     21  C   LIG    1       -1.033  -0.704  -0.592  0.00  0.00    +0.020 A 
BRANCH  19  22
ATOM     22  C   LIG    1        0.061  -4.256  -0.023  0.00  0.00    -0.050 A 
ATOM     23  C   LIG    1       -0.982  -4.966  -0.615  0.00  0.00    +0.020 A 
ATOM     24  C   LIG    1       -0.955  -6.346  -0.625  0.00  0.00    +0.000 A 
ATOM     25  C   LIG    1        0.099  -7.024  -0.039  0.00  0.00    +0.000 A 
ATOM     26  C   LIG    1        1.134  -6.324   0.555  0.00  0.00    +0.000 A 
ATOM     27  C   LIG    1        1.120  -4.944   0.565  0.00  0.00    +0.020 A 
ENDBRANCH  19  22
ENDBRANCH  15  16
ENDBRANCH   6  15
TORSDOF 5
