REMARK  Name = ZINCrH000004p1M4.0
REMARK                            x       y       z     vdW  Elec       q    Type
REMARK                         _______ _______ _______ _____ _____    ______ ____
ROOT
ATOM      1  C   LIG    1        4.499  -0.487   1.387  0.00  0.00    +0.030 C 
ATOM      2  C   LIG    1        3.743  -0.967   0.147  0.00  0.00    +0.190 C 
ENDROOT
BRANCH   2   3
ATOM      3  C   LIG    1        2.427  -0.241   0.048  0.00  0.00    +0.530 C 
ATOM      4  N   LIG    1        2.404   1.102  -0.057  0.00  0.00    -0.670 N 
ATOM      5  H   LIG    1        3.235   1.596  -0.139  0.00  0.00    +0.420 HD
ATOM      6  O   LIG    1        1.387  -0.866   0.064  0.00  0.00    -0.490 OA
BRANCH   4   7
ATOM      7  C   LIG    1        1.181   1.786  -0.049  0.00  0.00    +0.140 A 
ATOM      8  C   LIG    1        0.061   1.213  -0.635  0.00  0.00    +0.090 A 
ATOM      9  C   LIG    1       -1.144   1.890  -0.630  0.00  0.00    +0.050 A 
ATOM     10  C   LIG    1       -1.239   3.134  -0.032  0.00  0.00    +0.080 A 
ATOM     11  C   LIG    1       -0.123   3.710   0.555  0.00  0.00    +0.050 A 
ATOM     12  F   LIG    1       -0.216   4.927   1.134  0.00  0.00    -0.110 F 
ATOM     13  F   LIG    1       -2.420   3.791  -0.025  0.00  0.00    -0.120 F 
ATOM     14  C   LIG    1        1.087   3.038   0.548  0.00  0.00    +0.070 A 
ATOM     15  F   LIG    1        2.176   3.598   1.120  0.00  0.00    -0.120 F 
ENDBRANCH   4   7
ENDBRANCH   2   3
BRANCH   2  16
ATOM     16  N   LIG    1        3.499  -2.412   0.252  0.00  0.00    -0.500 NA
ATOM     17  C   LIG    1        2.719  -2.728   1.456  0.00  0.00    +0.210 C 
BRANCH  16  18
ATOM     18  C   LIG    1        4.762  -3.163   0.231  0.00  0.00    +0.210 C 
BRANCH  18  19
ATOM     19  C   LIG    1        4.469  -4.634   0.093  0.00  0.00    +0.520 C 
ATOM     20  N   LIG    1        5.482  -5.522   0.051  0.00  0.00    -0.670 N 
ATOM     21  H   LIG    1        6.395  -5.223   0.191  0.00  0.00    +0.410 HD
ATOM     22  O   LIG    1        3.321  -5.020   0.019  0.00  0.00    -0.490 OA
BRANCH  20  23
ATOM     23  C   LIG    1        5.219  -6.874  -0.194  0.00  0.00    +0.180 A 
ATOM     24  C   LIG    1        4.072  -7.246  -0.883  0.00  0.00    +0.030 A 
ATOM     25  C   LIG    1        3.814  -8.582  -1.123  0.00  0.00    +0.050 A 
ATOM     26  C   LIG    1        4.696  -9.549  -0.678  0.00  0.00    +0.000 A 
ATOM     27  C   LIG    1        5.840  -9.183   0.008  0.00  0.00    +0.070 A 
ATOM     28  C   LIG    1        6.107  -7.848   0.246  0.00  0.00    -0.130 A 
ATOM     29 BR   LIG    1        7.675  -7.348   1.178  0.00  0.00    -0.050 Br
ENDBRANCH  20  23
ENDBRANCH  18  19
ENDBRANCH  16  18
ENDBRANCH   2  16
TORSDOF 6
