REMARK  Name = ZINCrg000000qPIh.0
REMARK                            x       y       z     vdW  Elec       q    Type
REMARK                         _______ _______ _______ _____ _____    ______ ____
ROOT
ATOM      1  C   LIG    1        6.832   2.588  -0.928  0.00  0.00    -0.140 A 
ATOM      2  C   LIG    1        6.708   3.959  -1.164  0.00  0.00    +0.140 A 
ATOM      3  C   LIG    1        5.660   4.659  -0.604  0.00  0.00    +0.000 A 
ATOM      4  C   LIG    1        4.733   4.007   0.190  0.00  0.00    +0.170 A 
ATOM      5  C   LIG    1        4.851   2.649   0.428  0.00  0.00    -0.690 A 
ATOM      6  C   LIG    1        5.896   1.937  -0.122  0.00  0.00    +0.200 A 
ENDROOT
BRANCH   5   7
ATOM      7  S   LIG    1        3.666   1.828   1.442  0.00  0.00    +2.700 S 
ATOM      8  O   LIG    1        4.306   0.664   1.946  0.00  0.00    -0.940 OA
ATOM      9  O   LIG    1        3.094   2.825   2.278  0.00  0.00    -0.940 OA
BRANCH   7  10
ATOM     10  N   LIG    1        2.452   1.300   0.447  0.00  0.00    -1.000 NA
ATOM     11  C   LIG    1        2.500  -0.031  -0.181  0.00  0.00    +0.310 C 
ATOM     12  C   LIG    1        1.297  -0.837   0.315  0.00  0.00    +0.280 C 
ATOM     13  N   LIG    1        0.078  -0.043   0.240  0.00  0.00    -0.720 N 
ATOM     14  H   LIG    1       -0.767  -0.517   0.210  0.00  0.00    +0.400 HD
ATOM     15  C   LIG    1        0.043   1.290   0.208  0.00  0.00    +0.520 C 
ATOM     16  O   LIG    1       -1.037   1.841   0.220  0.00  0.00    -0.540 OA
ATOM     17  C   LIG    1        1.282   2.142   0.153  0.00  0.00    +0.340 C 
ENDBRANCH   7  10
ENDBRANCH   5   7
BRANCH   1  18
ATOM     18  C   LIG    1        7.952   1.832  -1.525  0.00  0.00    +0.500 C 
ATOM     19  O   LIG    1        8.058   0.639  -1.318  0.00  0.00    -0.480 OA
BRANCH  18  20
ATOM     20  O   LIG    1        8.856   2.464  -2.298  0.00  0.00    -0.280 OA
BRANCH  20  24
ATOM     21  C   LIG    1       12.077   0.242  -3.614  0.00  0.00    +0.140 A 
ATOM     22  C   LIG    1       10.837   0.093  -4.219  0.00  0.00    +0.000 A 
ATOM     23  C   LIG    1        9.760   0.836  -3.779  0.00  0.00    +0.070 A 
ATOM     24  C   LIG    1        9.917   1.732  -2.732  0.00  0.00    +0.040 A 
ATOM     25  C   LIG    1       11.157   1.886  -2.130  0.00  0.00    +0.070 A 
ATOM     26  C   LIG    1       12.234   1.138  -2.567  0.00  0.00    -0.060 A 
BRANCH  21  28
ATOM     27  C   LIG    1       14.384  -0.284  -3.379  0.00  0.00    +0.240 C 
ATOM     28  O   LIG    1       13.138  -0.489  -4.048  0.00  0.00    -0.310 OA
ENDBRANCH  21  28
ENDBRANCH  20  24
ENDBRANCH  18  20
ENDBRANCH   1  18
TORSDOF 6
