REMARK  Name = ZINCpe00000MzPIM.0
REMARK                            x       y       z     vdW  Elec       q    Type
REMARK                         _______ _______ _______ _____ _____    ______ ____
ROOT
ATOM      1  S   LIG    1       -1.696   5.343   0.831  0.00  0.00    +2.690 S 
ATOM      2  O   LIG    1       -0.334   5.087   1.148  0.00  0.00    -0.890 OA
ATOM      3  O   LIG    1       -2.525   6.202   1.601  0.00  0.00    -0.920 OA
ENDROOT
BRANCH   1   4
ATOM      4  C   LIG    1       -1.714   5.976  -0.813  0.00  0.00    -0.730 A 
ATOM      5  C   LIG    1       -0.607   5.814  -1.629  0.00  0.00    +0.240 A 
ATOM      6  C   LIG    1       -0.623   6.307  -2.924  0.00  0.00    +0.030 A 
ATOM      7  C   LIG    1       -1.741   6.973  -3.398  0.00  0.00    +0.150 A 
ATOM      8  C   LIG    1       -2.846   7.140  -2.579  0.00  0.00    +0.030 A 
ATOM      9  F   LIG    1       -3.938   7.790  -3.040  0.00  0.00    -0.090 F 
ATOM     10  F   LIG    1       -1.755   7.460  -4.658  0.00  0.00    -0.080 F 
ATOM     11  F   LIG    1        0.456   6.144  -3.722  0.00  0.00    -0.090 F 
ATOM     12  F   LIG    1        0.486   5.170  -1.164  0.00  0.00    -0.050 F 
ATOM     13  C   LIG    1       -2.832   6.641  -1.286  0.00  0.00    +0.210 A 
ATOM     14  F   LIG    1       -3.909   6.804  -0.487  0.00  0.00    -0.080 F 
ENDBRANCH   1   4
BRANCH   1  15
ATOM     15  N   LIG    1       -2.453   3.870   0.797  0.00  0.00    -0.910 N 
ATOM     16  C   LIG    1       -3.766   3.736   0.163  0.00  0.00    +0.300 C 
BRANCH  15  19
ATOM     17  C   LIG    1       -3.990   2.186   2.468  0.00  0.00    +0.160 C 
ATOM     18  C   LIG    1       -2.535   1.917   2.183  0.00  0.00    +0.200 A 
ATOM     19  C   LIG    1       -1.834   2.748   1.377  0.00  0.00    -0.040 A 
ATOM     20  C   LIG    1       -0.465   2.467   1.122  0.00  0.00    +0.540 A 
ATOM     21  N   LIG    1        0.106   1.385   1.689  0.00  0.00    -0.650 N 
ATOM     22  H   LIG    1        1.040   1.187   1.519  0.00  0.00    +0.440 HD
ATOM     23  C   LIG    1       -0.614   0.578   2.490  0.00  0.00    +0.700 A 
ATOM     24  O   LIG    1       -0.083  -0.394   2.994  0.00  0.00    -0.530 OA
ATOM     25  O   LIG    1        0.188   3.196   0.397  0.00  0.00    -0.450 OA
ATOM     26  N   LIG    1       -1.911   0.829   2.744  0.00  0.00    -0.630 N 
ATOM     27  H   LIG    1       -2.411   0.235   3.325  0.00  0.00    +0.440 HD
ENDBRANCH  15  19
ENDBRANCH   1  15
TORSDOF 3
