REMARK  Name = ZINCpk00000KfKWo.0
REMARK                            x       y       z     vdW  Elec       q    Type
REMARK                         _______ _______ _______ _____ _____    ______ ____
ROOT
ATOM      1  C   LIG    1       -0.097   1.539  -0.572  0.00  0.00    +0.110 A 
ATOM      2  C   LIG    1        1.093   2.252  -0.564  0.00  0.00    +0.050 A 
ATOM      3  C   LIG    1        1.152   3.491   0.044  0.00  0.00    +0.000 A 
ATOM      4  C   LIG    1        0.028   4.025   0.647  0.00  0.00    +0.050 A 
ATOM      5  C   LIG    1       -1.162   3.322   0.644  0.00  0.00    +0.020 A 
ATOM      6  C   LIG    1       -1.232   2.080   0.030  0.00  0.00    +0.170 A 
ENDROOT
BRANCH   1  14
ATOM      7  C   LIG    1       -0.839   1.080  -3.546  0.00  0.00    +0.150 C 
ATOM      8  C   LIG    1       -0.488   0.039  -2.515  0.00  0.00    +0.020 A 
ATOM      9  C   LIG    1       -0.433  -1.274  -2.716  0.00  0.00    +0.180 A 
ATOM     10  N   LIG    1       -0.080  -1.874  -1.517  0.00  0.00    -0.640 N 
ATOM     11  H   LIG    1        0.032  -2.826  -1.368  0.00  0.00    +0.440 HD
ATOM     12  C   LIG    1        0.084  -0.904  -0.596  0.00  0.00    +0.650 A 
ATOM     13  O   LIG    1        0.397  -1.070   0.569  0.00  0.00    -0.560 OA
ATOM     14  N   LIG    1       -0.159   0.281  -1.189  0.00  0.00    -0.490 N 
ENDBRANCH   1  14
BRANCH   6  15
ATOM     15  N   LIG    1       -2.438   1.368   0.021  0.00  0.00    -0.660 N 
ATOM     16  H   LIG    1       -2.431   0.402  -0.065  0.00  0.00    +0.410 HD
ATOM     17  C   LIG    1       -3.610   2.026   0.132  0.00  0.00    +0.530 C 
ATOM     18  O   LIG    1       -3.626   3.239   0.139  0.00  0.00    -0.500 OA
BRANCH  17  19
ATOM     19  C   LIG    1       -4.899   1.254   0.247  0.00  0.00    +0.000 C 
ATOM     20  C   LIG    1       -4.936   0.431   1.556  0.00  0.00    +0.070 C 
ATOM     21  C   LIG    1       -6.378   0.515   2.006  0.00  0.00    +0.520 C 
ATOM     22  N   LIG    1       -7.006   1.514   1.362  0.00  0.00    -0.590 N 
ATOM     23  O   LIG    1       -6.893  -0.214   2.827  0.00  0.00    -0.520 OA
ATOM     24  C   LIG    1       -6.099   2.208   0.440  0.00  0.00    +0.310 C 
BRANCH  22  25
ATOM     25  C   LIG    1       -8.415   1.865   1.556  0.00  0.00    +0.210 C 
ATOM     26  C   LIG    1       -9.164   1.176   2.698  0.00  0.00    +0.040 C 
ATOM     27  C   LIG    1       -9.460   0.790   1.246  0.00  0.00    +0.000 C 
ENDBRANCH  22  25
ENDBRANCH  17  19
ENDBRANCH   6  15
TORSDOF 4
