REMARK  Name = ZINCqH0000037Fir.0
REMARK                            x       y       z     vdW  Elec       q    Type
REMARK                         _______ _______ _______ _____ _____    ______ ____
ROOT
ATOM      1  C   LIG    1        0.765   5.556   0.015  0.00  0.00    -0.020 C 
ATOM      2  C   LIG    1        1.502   5.840   1.325  0.00  0.00    +0.030 C 
ATOM      3  C   LIG    1        1.861   7.326   1.397  0.00  0.00    +0.020 C 
ATOM      4  C   LIG    1        0.581   8.163   1.339  0.00  0.00    +0.000 C 
ATOM      5  C   LIG    1       -0.156   7.878   0.029  0.00  0.00    +0.010 C 
ATOM      6  C   LIG    1       -0.515   6.393  -0.042  0.00  0.00    +0.040 C 
ENDROOT
BRANCH   1   7
ATOM      7  C   LIG    1        0.412   4.093  -0.056  0.00  0.00    -0.070 A 
ATOM      8  C   LIG    1        0.821   3.235   0.948  0.00  0.00    +0.030 A 
ATOM      9  C   LIG    1        0.496   1.893   0.891  0.00  0.00    +0.040 A 
ATOM     10  C   LIG    1       -0.235   1.402  -0.179  0.00  0.00    +0.030 A 
ATOM     11  O   LIG    1       -0.678   0.144  -0.472  0.00  0.00    -0.310 OA
ATOM     12  C   LIG    1       -1.012   0.171  -1.872  0.00  0.00    +0.430 C 
ATOM     13  O   LIG    1       -1.349   1.550  -2.117  0.00  0.00    -0.310 OA
ATOM     14  C   LIG    1       -0.648   2.266  -1.190  0.00  0.00    +0.040 A 
ATOM     15  C   LIG    1       -0.322   3.611  -1.124  0.00  0.00    +0.050 A 
ENDBRANCH   1   7
BRANCH   1  16
ATOM     16  C   LIG    1        1.666   5.920  -1.167  0.00  0.00    +0.310 C 
BRANCH  16  20
ATOM     17  N   LIG    1        4.982   4.558  -1.984  0.00  0.00    -0.640 N 
ATOM     18  H   LIG    1        5.076   3.863  -1.314  0.00  0.00    +0.410 HD
ATOM     19  C   LIG    1        3.865   5.312  -2.021  0.00  0.00    +0.710 C 
ATOM     20  N   LIG    1        2.880   5.101  -1.127  0.00  0.00    -0.730 N 
ATOM     21  H   LIG    1        2.974   4.406  -0.456  0.00  0.00    +0.400 HD
ATOM     22  O   LIG    1        3.747   6.182  -2.862  0.00  0.00    -0.560 OA
BRANCH  17  26
ATOM     23  C   LIG    1        7.754   6.317  -5.736  0.00  0.00    +0.180 C 
ATOM     24  C   LIG    1        7.211   5.553  -4.556  0.00  0.00    -0.020 A 
ATOM     25  C   LIG    1        6.016   5.742  -3.952  0.00  0.00    -0.040 A 
ATOM     26  C   LIG    1        6.002   4.776  -2.910  0.00  0.00    +0.270 A 
ATOM     27  N   LIG    1        7.134   4.129  -2.998  0.00  0.00    -0.390 NA
ATOM     28  O   LIG    1        7.814   4.548  -3.905  0.00  0.00    +0.090 OA
ENDBRANCH  17  26
ENDBRANCH  16  20
ENDBRANCH   1  16
TORSDOF 4
