REMARK  Name = ZINCrD00000hQ4J7.0
REMARK                            x       y       z     vdW  Elec       q    Type
REMARK                         _______ _______ _______ _____ _____    ______ ____
ROOT
ATOM      1  N   LIG    1        4.325  -1.100  -1.628  0.00  0.00    -1.000 NA
ATOM      2  C   LIG    1        4.015  -2.322  -2.385  0.00  0.00    +0.320 C 
ATOM      3  C   LIG    1        3.328  -1.915  -3.697  0.00  0.00    +0.170 C 
ATOM      4  N   LIG    1        4.173  -0.944  -4.406  0.00  0.00    -0.490 N 
ATOM      5  C   LIG    1        4.330   0.293  -3.629  0.00  0.00    +0.170 C 
ATOM      6  C   LIG    1        5.053  -0.022  -2.314  0.00  0.00    +0.310 C 
ENDROOT
BRANCH   4   7
ATOM      7  C   LIG    1        3.667  -0.674  -5.679  0.00  0.00    +0.090 A 
ATOM      8  C   LIG    1        2.391  -0.143  -5.822  0.00  0.00    -0.030 A 
ATOM      9  C   LIG    1        1.895   0.128  -7.083  0.00  0.00    +0.010 A 
ATOM     10  C   LIG    1        2.663  -0.140  -8.201  0.00  0.00    +0.000 A 
ATOM     11  C   LIG    1        3.931  -0.674  -8.062  0.00  0.00    -0.080 A 
ATOM     12  C   LIG    1        4.764  -0.964  -9.285  0.00  0.00    +0.090 C 
ATOM     13  C   LIG    1        4.435  -0.941  -6.805  0.00  0.00    -0.060 A 
ATOM     14  C   LIG    1        5.817  -1.523  -6.655  0.00  0.00    +0.100 C 
ENDBRANCH   4   7
BRANCH   1  15
ATOM     15  S   LIG    1        3.874  -0.944  -0.042  0.00  0.00    +2.690 S 
ATOM     16  O   LIG    1        3.721  -2.264   0.463  0.00  0.00    -0.940 OA
ATOM     17  O   LIG    1        4.754   0.011   0.534  0.00  0.00    -0.950 OA
BRANCH  15  20
ATOM     18  C   LIG    1        0.874   1.732   0.027  0.00  0.00    +0.080 A 
ATOM     19  C   LIG    1        2.136   1.159   0.015  0.00  0.00    +0.060 A 
ATOM     20  C   LIG    1        2.269  -0.216  -0.026  0.00  0.00    -0.650 A 
ATOM     21  C   LIG    1        1.146  -1.021  -0.053  0.00  0.00    +0.120 A 
ATOM     22  C   LIG    1       -0.115  -0.453  -0.041  0.00  0.00    +0.020 A 
ATOM     23  C   LIG    1       -0.255   0.922  -0.001  0.00  0.00    +0.130 A 
ATOM     24  F   LIG    1       -1.486   1.477   0.005  0.00  0.00    -0.120 F 
BRANCH  18  25
ATOM     25  O   LIG    1        0.741   3.085   0.066  0.00  0.00    -0.300 OA
BRANCH  25  27
ATOM     26  C   LIG    1        1.596   5.344   0.135  0.00  0.00    +0.070 C 
ATOM     27  C   LIG    1        1.944   3.855   0.093  0.00  0.00    +0.190 C 
ENDBRANCH  25  27
ENDBRANCH  18  25
ENDBRANCH  15  20
ENDBRANCH   1  15
TORSDOF 5
