REMARK  Name = ZINCpe000000Z5Uz.0
REMARK                            x       y       z     vdW  Elec       q    Type
REMARK                         _______ _______ _______ _____ _____    ______ ____
ROOT
ATOM      1  N   LIG    1       -4.811   8.175   0.096  0.00  0.00    -0.740 N 
ATOM      2  H   LIG    1       -5.647   7.684   0.101  0.00  0.00    +0.400 HD
ATOM      3  C   LIG    1       -4.822   9.523   0.104  0.00  0.00    +0.730 C 
ATOM      4  N   LIG    1       -5.994  10.188   0.119  0.00  0.00    -0.640 N 
ATOM      5  C   LIG    1       -7.329   9.571   0.129  0.00  0.00    +0.260 C 
ATOM      6  C   LIG    1       -8.363  10.716   0.119  0.00  0.00    +0.050 C 
ATOM      7  C   LIG    1       -7.558  11.906  -0.466  0.00  0.00    +0.270 C 
ATOM      8  C   LIG    1       -6.151  11.654   0.136  0.00  0.00    +0.300 C 
ATOM      9  O   LIG    1       -3.774  10.139   0.098  0.00  0.00    -0.580 OA
ENDROOT
BRANCH   7  10
ATOM     10  N   LIG    1       -8.102  13.186  -0.005  0.00  0.00    -0.370 N 
ATOM     11  C   LIG    1       -7.816  13.815   1.148  0.00  0.00    +0.480 A 
ATOM     12  N   LIG    1       -8.503  14.928   1.185  0.00  0.00    -0.540 NA
ATOM     13  C   LIG    1       -9.243  15.039   0.083  0.00  0.00    +0.420 A 
ATOM     14  N   LIG    1       -9.032  13.996  -0.677  0.00  0.00    -0.310 NA
ENDBRANCH   7  10
BRANCH   1  15
ATOM     15  C   LIG    1       -3.537   7.453   0.079  0.00  0.00    +0.290 C 
BRANCH  15  16
ATOM     16  C   LIG    1       -3.805   5.947   0.073  0.00  0.00    +0.270 C 
BRANCH  16  19
ATOM     17  O   LIG    1       -3.568   3.260   0.054  0.00  0.00    -0.520 OA
ATOM     18  C   LIG    1       -2.520   3.877   0.048  0.00  0.00    +0.560 C 
ATOM     19  N   LIG    1       -2.530   5.224   0.056  0.00  0.00    -0.720 N 
ATOM     20  H   LIG    1       -1.694   5.716   0.051  0.00  0.00    +0.400 HD
BRANCH  18  21
ATOM     21  C   LIG    1       -1.235   3.148   0.031  0.00  0.00    -0.180 A 
ATOM     22  C   LIG    1       -0.029   3.852   0.024  0.00  0.00    +0.080 A 
ATOM     23  C   LIG    1        1.167   3.166   0.008  0.00  0.00    +0.000 A 
ATOM     24  C   LIG    1        1.176   1.782   0.000  0.00  0.00    +0.080 A 
ATOM     25  C   LIG    1       -0.013   1.076   0.008  0.00  0.00    -0.010 A 
ATOM     26  C   LIG    1       -1.220   1.750   0.017  0.00  0.00    +0.160 A 
ATOM     27  F   LIG    1       -2.381   1.059   0.019  0.00  0.00    -0.110 F 
ENDBRANCH  18  21
ENDBRANCH  16  19
ENDBRANCH  15  16
ENDBRANCH   1  15
TORSDOF 5
