REMARK  Name = ZINCqH0000034J7d.1
REMARK                            x       y       z     vdW  Elec       q    Type
REMARK                         _______ _______ _______ _____ _____    ______ ____
ROOT
ATOM      1  N   LIG    1       -3.195   4.624   3.438  0.00  0.00    -0.650 N 
ATOM      2  H   LIG    1       -3.123   4.005   2.695  0.00  0.00    +0.410 HD
ATOM      3  C   LIG    1       -3.744   5.841   3.250  0.00  0.00    +0.550 C 
ATOM      4  O   LIG    1       -3.738   6.656   4.152  0.00  0.00    -0.490 OA
ENDROOT
BRANCH   1  10
ATOM      5  C   LIG    1       -1.823   3.202   4.838  0.00  0.00    +0.070 A 
ATOM      6  C   LIG    1       -1.368   2.837   6.097  0.00  0.00    -0.010 A 
ATOM      7  C   LIG    1       -1.805   3.524   7.215  0.00  0.00    +0.010 A 
ATOM      8  C   LIG    1       -2.703   4.567   7.083  0.00  0.00    +0.010 A 
ATOM      9  C   LIG    1       -3.165   4.934   5.833  0.00  0.00    +0.040 A 
ATOM     10  C   LIG    1       -2.728   4.254   4.706  0.00  0.00    +0.140 A 
BRANCH   5  15
ATOM     11  C   LIG    1        1.048   0.676   0.774  0.00  0.00    +0.190 C 
ATOM     12  N   LIG    1        0.581   1.400   1.964  0.00  0.00    -0.550 NA
ATOM     13  C   LIG    1       -0.240   0.533   2.820  0.00  0.00    +0.180 C 
ATOM     14  C   LIG    1       -0.640   1.299   4.084  0.00  0.00    +0.210 C 
ATOM     15  N   LIG    1       -1.378   2.512   3.706  0.00  0.00    -0.490 N 
ATOM     16  C   LIG    1       -0.557   3.379   2.849  0.00  0.00    +0.190 C 
ATOM     17  C   LIG    1       -0.157   2.614   1.586  0.00  0.00    +0.180 C 
ENDBRANCH   5  15
ENDBRANCH   1  10
BRANCH   3  18
ATOM     18  C   LIG    1       -4.354   6.184   1.948  0.00  0.00    -0.090 A 
ATOM     19  C   LIG    1       -4.363   5.250   0.911  0.00  0.00    +0.050 A 
ATOM     20  C   LIG    1       -4.934   5.576  -0.302  0.00  0.00    +0.050 A 
ATOM     21  C   LIG    1       -5.496   6.826  -0.491  0.00  0.00    +0.050 A 
ATOM     22  C   LIG    1       -5.490   7.756   0.533  0.00  0.00    +0.070 A 
ATOM     23  C   LIG    1       -4.929   7.441   1.752  0.00  0.00    -0.130 A 
BRANCH  23  24
ATOM     24  C   LIG    1       -4.929   8.453   2.869  0.00  0.00    +0.510 C 
ATOM     25  F   LIG    1       -3.611   8.739   3.239  0.00  0.00    -0.160 F 
ATOM     26  F   LIG    1       -5.620   7.934   3.969  0.00  0.00    -0.160 F 
ATOM     27  F   LIG    1       -5.556   9.626   2.435  0.00  0.00    -0.180 F 
ENDBRANCH  23  24
ENDBRANCH   3  18
TORSDOF 4
