REMARK  Name = ZINCrg000000taXO.0
REMARK                            x       y       z     vdW  Elec       q    Type
REMARK                         _______ _______ _______ _____ _____    ______ ____
ROOT
ATOM      1  O   LIG    1       -0.741  -2.176  -1.023  0.00  0.00    -0.510 OA
ATOM      2  C   LIG    1        0.185  -2.768  -0.509  0.00  0.00    +0.510 C 
ATOM      3  N   LIG    1        1.237  -2.080  -0.021  0.00  0.00    -0.670 N 
ATOM      4  H   LIG    1        2.010  -2.555   0.320  0.00  0.00    +0.420 HD
ENDROOT
BRANCH   3   5
ATOM      5  C   LIG    1        1.212  -0.681  -0.008  0.00  0.00    +0.130 A 
ATOM      6  C   LIG    1        2.387   0.037  -0.189  0.00  0.00    +0.070 A 
ATOM      7  C   LIG    1        2.361   1.418  -0.175  0.00  0.00    +0.040 A 
ATOM      8  C   LIG    1        1.164   2.086   0.018  0.00  0.00    +0.040 A 
ATOM      9  C   LIG    1       -0.008   1.373   0.198  0.00  0.00    -0.650 A 
ATOM     10 CL   LIG    1        1.134   3.821   0.034  0.00  0.00    -0.040 Cl
ATOM     11  C   LIG    1        0.013  -0.008   0.186  0.00  0.00    +0.150 A 
BRANCH   9  12
ATOM     12  S   LIG    1       -1.530   2.228   0.437  0.00  0.00    +2.710 S 
ATOM     13  O   LIG    1       -2.526   1.231   0.617  0.00  0.00    -0.940 OA
ATOM     14  O   LIG    1       -1.598   3.218  -0.580  0.00  0.00    -0.930 OA
BRANCH  12  15
ATOM     15  N   LIG    1       -1.416   3.041   1.875  0.00  0.00    -1.010 NA
ATOM     16  C   LIG    1       -1.806   2.514   3.190  0.00  0.00    +0.270 C 
ATOM     17  C   LIG    1       -1.545   3.627   4.226  0.00  0.00    +0.030 C 
ATOM     18  C   LIG    1       -1.562   4.915   3.361  0.00  0.00    +0.030 C 
ATOM     19  C   LIG    1       -0.911   4.415   2.047  0.00  0.00    +0.260 C 
ENDBRANCH  12  15
ENDBRANCH   9  12
ENDBRANCH   3   5
BRANCH   2  20
ATOM     20  C   LIG    1        0.159  -4.272  -0.415  0.00  0.00    +0.070 C 
BRANCH  20  21
ATOM     21  C   LIG    1       -1.136  -4.799  -1.037  0.00  0.00    +0.090 C 
BRANCH  21  22
ATOM     22  C   LIG    1       -1.162  -6.326  -0.942  0.00  0.00    +0.220 C 
ATOM     23  N   LIG    1       -0.117  -6.917  -1.797  0.00  0.00    -0.720 N 
ATOM     24  H   LIG    1        0.840  -6.784  -1.717  0.00  0.00    +0.440 HD
ATOM     25  C   LIG    1       -0.750  -7.676  -2.709  0.00  0.00    +0.710 C 
ATOM     26  N   LIG    1       -2.079  -7.655  -2.558  0.00  0.00    -0.680 N 
ATOM     27  H   LIG    1       -2.700  -8.142  -3.123  0.00  0.00    +0.440 HD
ATOM     28  O   LIG    1       -0.179  -8.309  -3.575  0.00  0.00    -0.540 OA
ATOM     29  C   LIG    1       -2.452  -6.874  -1.520  0.00  0.00    +0.530 C 
ATOM     30  O   LIG    1       -3.579  -6.656  -1.131  0.00  0.00    -0.460 OA
ENDBRANCH  21  22
ENDBRANCH  20  21
ENDBRANCH   2  20
TORSDOF 6
