REMARK  Name = ZINCvU00000009ow.0
REMARK                            x       y       z     vdW  Elec       q    Type
REMARK                         _______ _______ _______ _____ _____    ______ ____
ROOT
ATOM      1  C   LIG    1        1.651   9.090   0.453  0.00  0.00    +0.560 C 
ATOM      2  N   LIG    1        0.647   8.233   0.180  0.00  0.00    -0.460 N 
ATOM      3  N   LIG    1        0.778   7.016  -0.484  0.00  0.00    -0.230 NA
ATOM      4  C   LIG    1       -0.329   6.373  -0.630  0.00  0.00    +0.140 C 
ATOM      5  C   LIG    1       -1.457   7.163  -0.005  0.00  0.00    +0.100 C 
ATOM      6  C   LIG    1       -0.767   8.428   0.541  0.00  0.00    +0.310 C 
ATOM      7  O   LIG    1        1.422  10.124   1.044  0.00  0.00    -0.480 OA
ENDROOT
BRANCH   4   8
ATOM      8  C   LIG    1       -0.473   5.066  -1.297  0.00  0.00    -0.030 A 
ATOM      9  C   LIG    1        0.645   4.428  -1.839  0.00  0.00    +0.070 A 
ATOM     10  C   LIG    1        0.504   3.206  -2.462  0.00  0.00    +0.030 A 
ATOM     11  C   LIG    1       -0.744   2.611  -2.549  0.00  0.00    -0.020 A 
ATOM     12  C   LIG    1       -1.857   3.240  -2.018  0.00  0.00    +0.030 A 
ATOM     13 CL   LIG    1       -0.913   1.072  -3.335  0.00  0.00    -0.060 Cl
ATOM     14  C   LIG    1       -1.729   4.460  -1.389  0.00  0.00    +0.060 A 
ENDBRANCH   4   8
BRANCH   6  15
ATOM     15  C   LIG    1       -0.928   8.517   2.037  0.00  0.00    -0.030 A 
ATOM     16  C   LIG    1       -1.822   9.283   2.688  0.00  0.00    -0.030 A 
ATOM     17  C   LIG    1       -1.626   9.057   4.070  0.00  0.00    -0.060 A 
ATOM     18  C   LIG    1       -0.619   8.172   4.181  0.00  0.00    +0.170 A 
ATOM     19  O   LIG    1       -0.200   7.848   2.946  0.00  0.00    -0.170 OA
ENDBRANCH   6  15
BRANCH   1  20
ATOM     20  C   LIG    1        3.058   8.763   0.023  0.00  0.00    +0.250 C 
BRANCH  20  31
ATOM     21  C   LIG    1        5.595   8.783   1.085  0.00  0.00    +0.040 C 
ATOM     22  C   LIG    1        5.272   9.728  -0.074  0.00  0.00    +0.190 C 
ATOM     23  C   LIG    1        5.666   9.069  -1.401  0.00  0.00    +0.000 C 
ATOM     24  C   LIG    1        5.518  10.114  -2.510  0.00  0.00    +0.080 C 
ATOM     25  C   LIG    1        4.188  10.811  -2.374  0.00  0.00    -0.120 A 
ATOM     26  C   LIG    1        3.725  11.551  -3.450  0.00  0.00    +0.010 A 
ATOM     27  C   LIG    1        2.520  12.221  -3.374  0.00  0.00    -0.010 A 
ATOM     28  C   LIG    1        1.767  12.155  -2.216  0.00  0.00    +0.010 A 
ATOM     29  C   LIG    1        2.219  11.418  -1.142  0.00  0.00    +0.020 A 
ATOM     30  C   LIG    1        3.435  10.737  -1.214  0.00  0.00    +0.100 A 
ATOM     31  N   LIG    1        3.834  10.004  -0.098  0.00  0.00    -0.480 N 
ENDBRANCH  20  31
ENDBRANCH   1  20
TORSDOF 4
