REMARK  Name = ZINCnE000004tyMD.0
REMARK                            x       y       z     vdW  Elec       q    Type
REMARK                         _______ _______ _______ _____ _____    ______ ____
ROOT
ATOM      1  S   LIG    1        0.769   3.860   0.028  0.00  0.00    +2.620 S 
ATOM      2  O   LIG    1       -0.493   4.338  -0.419  0.00  0.00    -1.020 OA
ATOM      3  O   LIG    1        1.995   4.189  -0.610  0.00  0.00    -1.020 OA
ENDROOT
BRANCH   1   8
ATOM      4  C   LIG    1       -0.650   0.098   0.111  0.00  0.00    +0.100 A 
ATOM      5  C   LIG    1        0.506  -0.663   0.017  0.00  0.00    -0.040 A 
ATOM      6  C   LIG    1        1.736  -0.040  -0.073  0.00  0.00    +0.020 A 
ATOM      7  C   LIG    1        1.815   1.340  -0.070  0.00  0.00    +0.080 A 
ATOM      8  C   LIG    1        0.663   2.101   0.024  0.00  0.00    -0.580 A 
ATOM      9  C   LIG    1       -0.569   1.483   0.114  0.00  0.00    +0.090 A 
BRANCH   4  10
ATOM     10  O   LIG    1       -1.862  -0.513   0.199  0.00  0.00    -0.320 OA
BRANCH  10  12
ATOM     11  C   LIG    1       -3.312  -2.444   0.296  0.00  0.00    +0.070 C 
ATOM     12  C   LIG    1       -1.870  -1.942   0.190  0.00  0.00    +0.170 C 
ENDBRANCH  10  12
ENDBRANCH   4  10
ENDBRANCH   1   8
BRANCH   1  13
ATOM     13  N   LIG    1        0.918   4.338   1.606  0.00  0.00    -1.060 NA
BRANCH  13  14
ATOM     14  C   LIG    1        1.023   5.690   1.915  0.00  0.00    +0.450 A 
ATOM     15  N   LIG    1        1.007   6.588   0.943  0.00  0.00    -0.600 NA
ATOM     16  C   LIG    1        1.098   7.881   1.194  0.00  0.00    +0.280 A 
ATOM     17  C   LIG    1        1.225   8.343   2.488  0.00  0.00    -0.170 A 
ATOM     18  C   LIG    1        1.251   7.433   3.537  0.00  0.00    -0.010 A 
ATOM     19  C   LIG    1        1.389   7.902   4.962  0.00  0.00    +0.080 C 
ATOM     20  C   LIG    1        1.148   6.085   3.243  0.00  0.00    -0.160 A 
BRANCH  20  21
ATOM     21  C   LIG    1        1.173   5.059   4.347  0.00  0.00    +0.030 C 
ATOM     22  C   LIG    1        0.127   3.943   4.297  0.00  0.00    +0.040 C 
ATOM     23  C   LIG    1        0.006   5.059   5.337  0.00  0.00    -0.040 C 
ENDBRANCH  20  21
ENDBRANCH  13  14
ENDBRANCH   1  13
TORSDOF 6
