REMARK  Name = ZINCpk00000y6x3L.0
REMARK                            x       y       z     vdW  Elec       q    Type
REMARK                         _______ _______ _______ _____ _____    ______ ____
ROOT
ATOM      1  C   LIG    1       -0.736   1.583   1.265  0.00  0.00    -0.030 C 
ATOM      2  C   LIG    1       -0.975   3.092   1.153  0.00  0.00    +0.050 C 
ATOM      3  C   LIG    1       -2.021   3.361   0.063  0.00  0.00    +0.170 C 
ATOM      4  C   LIG    1       -1.626   2.586  -1.172  0.00  0.00    +0.230 A 
ATOM      5  N   LIG    1       -2.066   2.754  -2.385  0.00  0.00    -0.450 NA
ATOM      6  C   LIG    1       -1.469   1.868  -3.198  0.00  0.00    -0.100 A 
ATOM      7  C   LIG    1       -0.626   1.120  -2.456  0.00  0.00    +0.210 A 
ATOM      8  N   LIG    1       -0.726   1.574  -1.174  0.00  0.00    -0.450 N 
ATOM      9  C   LIG    1       -0.013   1.086   0.008  0.00  0.00    +0.280 C 
ENDROOT
BRANCH   6  10
ATOM     10  C   LIG    1       -1.700   1.732  -4.681  0.00  0.00    +0.560 C 
ATOM     11  F   LIG    1       -0.532   1.266  -5.294  0.00  0.00    -0.170 F 
ATOM     12  F   LIG    1       -2.042   2.979  -5.216  0.00  0.00    -0.170 F 
ATOM     13  F   LIG    1       -2.741   0.826  -4.910  0.00  0.00    -0.170 F 
ENDBRANCH   6  10
BRANCH   1  14
ATOM     14  C   LIG    1        0.123   1.290   2.497  0.00  0.00    +0.320 C 
BRANCH  14  16
ATOM     15  C   LIG    1        1.355  -0.879   2.032  0.00  0.00    +0.310 C 
ATOM     16  N   LIG    1        0.250  -0.159   2.670  0.00  0.00    -0.590 N 
BRANCH  16  17
ATOM     17  C   LIG    1       -0.678  -0.851   3.440  0.00  0.00    +0.410 A 
ATOM     18  N   LIG    1       -1.667  -0.198   4.010  0.00  0.00    -0.290 NA
ATOM     19  N   LIG    1       -2.607  -0.876   4.785  0.00  0.00    -0.170 N 
ATOM     20  N   LIG    1       -3.743  -0.489   5.507  0.00  0.00    -0.040 NA
ATOM     21  N   LIG    1       -4.233  -1.557   6.040  0.00  0.00    -0.020 NA
ATOM     22  N   LIG    1       -3.526  -2.586   5.734  0.00  0.00    -0.290 NA
ATOM     23  C   LIG    1       -2.509  -2.229   4.961  0.00  0.00    +0.180 A 
ATOM     24  C   LIG    1       -1.452  -2.929   4.352  0.00  0.00    +0.180 A 
ATOM     25  C   LIG    1       -0.552  -2.244   3.597  0.00  0.00    +0.020 A 
ENDBRANCH  16  17
ENDBRANCH  14  16
ENDBRANCH   1  14
TORSDOF 4
