REMARK  Name = ZINCpk00000Fa5lz.1
REMARK                            x       y       z     vdW  Elec       q    Type
REMARK                         _______ _______ _______ _____ _____    ______ ____
ROOT
ATOM      1  C   LIG    1       -0.702  -5.868  -0.305  0.00  0.00    +0.290 C 
ATOM      2  C   LIG    1       -1.851  -4.858  -0.243  0.00  0.00    +0.170 C 
ATOM      3  N   LIG    1       -1.303  -3.514  -0.008  0.00  0.00    -0.530 NA
ATOM      4  C   LIG    1       -0.532  -3.478   1.243  0.00  0.00    +0.150 C 
ATOM      5  C   LIG    1        0.604  -4.501   1.166  0.00  0.00    +0.250 C 
ATOM      6  O   LIG    1        0.055  -5.796   0.906  0.00  0.00    -0.370 OA
ENDROOT
BRANCH   1  10
ATOM      7  C   LIG    1       -1.994 -10.224  -2.412  0.00  0.00    +0.200 C 
ATOM      8  C   LIG    1       -1.815  -9.133  -1.387  0.00  0.00    +0.290 A 
ATOM      9  N   LIG    1       -1.253  -7.970  -1.593  0.00  0.00    -0.530 NA
ATOM     10  C   LIG    1       -1.262  -7.258  -0.467  0.00  0.00    +0.230 A 
ATOM     11  N   LIG    1       -1.840  -7.958   0.473  0.00  0.00    -0.290 NA
ATOM     12  N   LIG    1       -2.209  -9.185  -0.103  0.00  0.00    -0.480 N 
ATOM     13  H   LIG    1       -2.659  -9.922   0.338  0.00  0.00    +0.440 HD
ENDBRANCH   1  10
BRANCH   3  14
ATOM     14  C   LIG    1       -2.371  -2.505   0.002  0.00  0.00    +0.210 C 
BRANCH  14  15
ATOM     15  C   LIG    1       -1.750  -1.107   0.006  0.00  0.00    +0.070 C 
BRANCH  15  16
ATOM     16  C   LIG    1       -2.845  -0.071   0.016  0.00  0.00    +0.530 C 
ATOM     17  N   LIG    1       -2.533   1.240   0.021  0.00  0.00    -0.550 N 
ATOM     18  C   LIG    1       -3.506   2.335   0.032  0.00  0.00    +0.280 C 
ATOM     19  C   LIG    1       -2.665   3.622   0.044  0.00  0.00    +0.090 C 
ATOM     20  C   LIG    1       -1.232   3.140   0.029  0.00  0.00    -0.130 A 
ATOM     21  C   LIG    1       -0.041   3.840   0.022  0.00  0.00    +0.060 A 
ATOM     22  C   LIG    1        1.164   3.161   0.007  0.00  0.00    -0.010 A 
ATOM     23  C   LIG    1        1.174   1.778   0.000  0.00  0.00    +0.040 A 
ATOM     24  C   LIG    1       -0.013   1.076   0.008  0.00  0.00    -0.020 A 
ATOM     25  C   LIG    1       -1.232   1.754   0.017  0.00  0.00    +0.140 A 
ATOM     26  O   LIG    1       -4.007  -0.418   0.019  0.00  0.00    -0.520 OA
ENDBRANCH  15  16
ENDBRANCH  14  15
ENDBRANCH   3  14
TORSDOF 4
