REMARK  Name = ZINCpk00000Fa5lz.0
REMARK                            x       y       z     vdW  Elec       q    Type
REMARK                         _______ _______ _______ _____ _____    ______ ____
ROOT
ATOM      1  C   LIG    1        6.740   6.979  -0.197  0.00  0.00    +0.280 C 
ATOM      2  C   LIG    1        5.232   6.721  -0.251  0.00  0.00    +0.180 C 
ATOM      3  N   LIG    1        4.975   5.293  -0.018  0.00  0.00    -0.540 NA
ATOM      4  C   LIG    1        5.663   4.468  -1.022  0.00  0.00    +0.140 C 
ATOM      5  C   LIG    1        7.167   4.748  -0.960  0.00  0.00    +0.240 C 
ATOM      6  O   LIG    1        7.396   6.146  -1.158  0.00  0.00    -0.370 OA
ENDROOT
BRANCH   1  11
ATOM      7  C   LIG    1        8.350  11.762   0.033  0.00  0.00    +0.200 C 
ATOM      8  C   LIG    1        7.705  10.476  -0.415  0.00  0.00    +0.190 A 
ATOM      9  N   LIG    1        7.038  10.289  -1.522  0.00  0.00    -0.290 NA
ATOM     10  N   LIG    1        6.629   9.072  -1.580  0.00  0.00    -0.260 NA
ATOM     11  C   LIG    1        7.015   8.426  -0.514  0.00  0.00    +0.180 A 
ATOM     12  N   LIG    1        7.705   9.300   0.258  0.00  0.00    -0.570 N 
ATOM     13  H   LIG    1        8.117   9.120   1.118  0.00  0.00    +0.430 HD
ENDBRANCH   1  11
BRANCH   3  14
ATOM     14  C   LIG    1        3.533   5.012  -0.006  0.00  0.00    +0.210 C 
BRANCH  14  15
ATOM     15  C   LIG    1        3.308   3.499  -0.011  0.00  0.00    +0.070 C 
BRANCH  15  16
ATOM     16  C   LIG    1        1.829   3.211   0.001  0.00  0.00    +0.530 C 
ATOM     17  N   LIG    1        1.390   1.937  -0.001  0.00  0.00    -0.550 N 
ATOM     18  C   LIG    1       -0.019   1.533   0.011  0.00  0.00    +0.280 C 
ATOM     19  C   LIG    1        0.002  -0.004   0.002  0.00  0.00    +0.090 C 
ATOM     20  C   LIG    1        1.470  -0.365  -0.014  0.00  0.00    -0.130 A 
ATOM     21  C   LIG    1        2.101  -1.594  -0.026  0.00  0.00    +0.060 A 
ATOM     22  C   LIG    1        3.482  -1.666  -0.039  0.00  0.00    -0.010 A 
ATOM     23  C   LIG    1        4.231  -0.503  -0.041  0.00  0.00    +0.040 A 
ATOM     24  C   LIG    1        3.606   0.725  -0.029  0.00  0.00    -0.020 A 
ATOM     25  C   LIG    1        2.212   0.806  -0.015  0.00  0.00    +0.140 A 
ATOM     26  O   LIG    1        1.033   4.126   0.013  0.00  0.00    -0.510 OA
ENDBRANCH  15  16
ENDBRANCH  14  15
ENDBRANCH   3  14
TORSDOF 4
