REMARK  Name = ZINCqH0000038lRN.0
REMARK                            x       y       z     vdW  Elec       q    Type
REMARK                         _______ _______ _______ _____ _____    ______ ____
ROOT
ATOM      1  N   LIG    1       -3.989  -5.675   1.730  0.00  0.00    -0.490 N 
ATOM      2  C   LIG    1       -4.762  -5.096   2.838  0.00  0.00    +0.210 C 
ATOM      3  C   LIG    1       -5.339  -3.747   2.403  0.00  0.00    +0.210 C 
ATOM      4  N   LIG    1       -4.243  -2.852   2.006  0.00  0.00    -0.550 NA
ATOM      5  C   LIG    1       -3.471  -3.432   0.897  0.00  0.00    +0.200 C 
ATOM      6  C   LIG    1       -2.893  -4.780   1.332  0.00  0.00    +0.200 C 
ENDROOT
BRANCH   1  12
ATOM      7  C   LIG    1       -1.450  -9.697   0.493  0.00  0.00    +0.090 C 
ATOM      8  C   LIG    1       -2.272  -8.914   1.485  0.00  0.00    -0.060 A 
ATOM      9  C   LIG    1       -2.548  -9.451   2.729  0.00  0.00    -0.030 A 
ATOM     10  C   LIG    1       -3.302  -8.736   3.642  0.00  0.00    +0.030 A 
ATOM     11  C   LIG    1       -3.781  -7.484   3.314  0.00  0.00    -0.050 A 
ATOM     12  C   LIG    1       -3.506  -6.941   2.065  0.00  0.00    +0.110 A 
ATOM     13  C   LIG    1       -2.752  -7.664   1.149  0.00  0.00    -0.020 A 
ENDBRANCH   1  12
BRANCH   4  14
ATOM     14  C   LIG    1       -4.752  -1.520   1.653  0.00  0.00    +0.530 C 
BRANCH  14  15
ATOM     15  N   LIG    1       -3.692  -0.527   1.843  0.00  0.00    -0.360 N 
ATOM     16  N   LIG    1       -3.232  -0.026   3.069  0.00  0.00    -0.260 NA
ATOM     17  C   LIG    1       -2.288   0.826   2.828  0.00  0.00    +0.310 A 
ATOM     18  N   LIG    1       -2.108   0.915   1.469  0.00  0.00    -0.460 N 
ATOM     19  C   LIG    1       -2.976   0.075   0.870  0.00  0.00    +0.460 A 
ATOM     20  S   LIG    1       -3.140  -0.180  -0.815  0.00  0.00    -0.580 S 
BRANCH  18  21
ATOM     21  C   LIG    1       -1.136   1.773   0.788  0.00  0.00    +0.190 C 
ATOM     22  C   LIG    1       -0.197   1.111  -0.223  0.00  0.00    +0.060 C 
ATOM     23  C   LIG    1       -1.332   2.013  -0.711  0.00  0.00    +0.080 C 
ENDBRANCH  18  21
BRANCH  17  24
ATOM     24  C   LIG    1       -1.515   1.595   3.867  0.00  0.00    +0.030 C 
ATOM     25  C   LIG    1       -1.038   0.830   5.103  0.00  0.00    +0.070 C 
ATOM     26  C   LIG    1       -2.190   1.830   5.220  0.00  0.00    +0.080 C 
ENDBRANCH  17  24
ENDBRANCH  14  15
ENDBRANCH   4  14
TORSDOF 5
