REMARK  Name = ZINCrD00000sbgFv.0
REMARK                            x       y       z     vdW  Elec       q    Type
REMARK                         _______ _______ _______ _____ _____    ______ ____
ROOT
ATOM      1  C   LIG    1       -1.274   2.268   8.223  0.00  0.00    +0.160 C 
ATOM      2  C   LIG    1       -1.002   1.289   9.388  0.00  0.00    +0.080 C 
ATOM      3  C   LIG    1        0.238   1.927  10.052  0.00  0.00    +0.270 C 
ATOM      4  N   LIG    1        0.175   3.353   9.712  0.00  0.00    -0.610 N 
ATOM      5  C   LIG    1       -0.665   3.574   8.682  0.00  0.00    +0.500 C 
ATOM      6  O   LIG    1       -0.900   4.660   8.194  0.00  0.00    -0.500 OA
ENDROOT
BRANCH   4   7
ATOM      7  C   LIG    1        0.928   4.402  10.403  0.00  0.00    +0.310 C 
ATOM      8  C   LIG    1        1.863   5.096   9.412  0.00  0.00    +0.030 C 
BRANCH   7   9
ATOM      9  C   LIG    1       -0.031   5.411  10.980  0.00  0.00    -0.100 A 
ATOM     10  C   LIG    1        0.322   6.747  11.035  0.00  0.00    +0.060 A 
ATOM     11  C   LIG    1       -0.558   7.674  11.559  0.00  0.00    -0.010 A 
ATOM     12  C   LIG    1       -1.790   7.263  12.040  0.00  0.00    +0.100 A 
ATOM     13  C   LIG    1       -2.140   5.925  11.990  0.00  0.00    -0.010 A 
ATOM     14  F   LIG    1       -2.649   8.168  12.558  0.00  0.00    -0.140 F 
ATOM     15  C   LIG    1       -1.261   5.000  11.460  0.00  0.00    +0.050 A 
ENDBRANCH   7   9
ENDBRANCH   4   7
BRANCH   1  16
ATOM     16  O   LIG    1       -0.638   1.812   7.028  0.00  0.00    -0.290 OA
BRANCH  16  21
ATOM     17  C   LIG    1       -1.214   2.177   3.445  0.00  0.00    -0.100 A 
ATOM     18  C   LIG    1       -2.254   3.107   3.449  0.00  0.00    +0.010 A 
ATOM     19  C   LIG    1       -2.739   3.593   4.646  0.00  0.00    +0.040 A 
ATOM     20  C   LIG    1       -2.199   3.160   5.842  0.00  0.00    -0.020 A 
ATOM     21  C   LIG    1       -1.165   2.234   5.848  0.00  0.00    +0.110 A 
ATOM     22  C   LIG    1       -0.673   1.737   4.653  0.00  0.00    +0.060 A 
BRANCH  17  25
ATOM     23  N   LIG    1       -1.218   2.077   0.998  0.00  0.00    -0.730 N 
ATOM     24  H   LIG    1       -1.941   2.724   0.999  0.00  0.00    +0.400 HD
ATOM     25  C   LIG    1       -0.690   1.655   2.164  0.00  0.00    +0.560 C 
ATOM     26  O   LIG    1        0.215   0.844   2.163  0.00  0.00    -0.530 OA
BRANCH  23  28
ATOM     27  C   LIG    1       -1.466   2.196  -1.432  0.00  0.00    +0.030 C 
ATOM     28  C   LIG    1       -0.700   1.560  -0.271  0.00  0.00    +0.250 C 
ENDBRANCH  23  28
ENDBRANCH  17  25
ENDBRANCH  16  21
ENDBRANCH   1  16
TORSDOF 6
