REMARK  Name = ZINCAx0000000ady.0
REMARK                            x       y       z     vdW  Elec       q    Type
REMARK                         _______ _______ _______ _____ _____    ______ ____
ROOT
ATOM      1  C   LIG    1        9.525  -2.596   3.107  0.00  0.00    -0.650 A 
ATOM      2  C   LIG    1        9.961  -2.735   1.799  0.00  0.00    +0.130 A 
ATOM      3  C   LIG    1        9.118  -2.423   0.755  0.00  0.00    +0.070 A 
ATOM      4  C   LIG    1        7.827  -1.968   1.009  0.00  0.00    -0.150 A 
ATOM      5  S   LIG    1        6.529  -1.493  -0.082  0.00  0.00    +0.060 S 
ATOM      6  C   LIG    1        5.487  -1.139   1.289  0.00  0.00    +0.380 A 
ATOM      7  N   LIG    1        6.107  -1.367   2.395  0.00  0.00    -0.540 NA
ATOM      8  C   LIG    1        7.375  -1.823   2.324  0.00  0.00    +0.110 A 
ATOM      9  C   LIG    1        8.255  -2.149   3.377  0.00  0.00    +0.170 A 
ENDROOT
BRANCH   1  10
ATOM     10  S   LIG    1       10.609  -2.996   4.437  0.00  0.00    +2.690 S 
ATOM     11  O   LIG    1       11.566  -3.907   3.914  0.00  0.00    -0.950 OA
ATOM     12  O   LIG    1        9.783  -3.294   5.554  0.00  0.00    -0.950 OA
BRANCH  10  13
ATOM     13  N   LIG    1       11.440  -1.617   4.825  0.00  0.00    -1.090 NA
ATOM     14  H   LIG    1       12.400  -1.576   4.693  0.00  0.00    +0.430 HD
BRANCH  13  15
ATOM     15  C   LIG    1       10.724  -0.459   5.366  0.00  0.00    +0.260 C 
BRANCH  15  16
ATOM     16  C   LIG    1       10.767  -0.502   6.895  0.00  0.00    +0.170 C 
BRANCH  16  18
ATOM     17  C   LIG    1       12.270  -0.379   8.758  0.00  0.00    +0.200 C 
ATOM     18  O   LIG    1       12.118  -0.352   7.338  0.00  0.00    -0.380 OA
ENDBRANCH  16  18
ENDBRANCH  15  16
BRANCH  15  19
ATOM     19  C   LIG    1       11.389   0.828   4.873  0.00  0.00    +0.200 C 
BRANCH  19  20
ATOM     20  N   LIG    1       11.421   0.831   3.404  0.00  0.00    -0.530 NA
ATOM     21  C   LIG    1       12.428   1.775   2.901  0.00  0.00    +0.150 C 
ATOM     22  C   LIG    1       12.469   1.703   1.372  0.00  0.00    +0.220 C 
ATOM     23  O   LIG    1       11.165   1.975   0.852  0.00  0.00    -0.380 OA
ATOM     24  C   LIG    1       10.159   1.073   1.321  0.00  0.00    +0.220 C 
ATOM     25  C   LIG    1       10.094   1.139   2.849  0.00  0.00    +0.140 C 
ENDBRANCH  19  20
ENDBRANCH  15  19
ENDBRANCH  13  15
ENDBRANCH  10  13
ENDBRANCH   1  10
BRANCH   6  26
ATOM     26  N   LIG    1        4.189  -0.677   1.194  0.00  0.00    -0.680 N 
ATOM     27  H   LIG    1        3.676  -0.504   1.999  0.00  0.00    +0.420 HD
BRANCH  26  28
ATOM     28  C   LIG    1        3.588  -0.448  -0.122  0.00  0.00    +0.300 C 
ATOM     29  C   LIG    1        2.825  -1.703  -0.607  0.00  0.00    +0.260 C 
ATOM     30  O   LIG    1        1.484  -1.456  -0.150  0.00  0.00    -0.280 OA
ATOM     31  C   LIG    1        1.275  -0.113  -0.077  0.00  0.00    +0.190 A 
ATOM     32  C   LIG    1        0.082   0.603  -0.026  0.00  0.00    -0.030 A 
ATOM     33  C   LIG    1        0.100   1.982   0.066  0.00  0.00    +0.190 A 
ATOM     34  C   LIG    1        1.304   2.663   0.110  0.00  0.00    -0.060 A 
ATOM     35  C   LIG    1        2.495   1.957   0.058  0.00  0.00    +0.210 A 
ATOM     36  F   LIG    1        3.674   2.616   0.100  0.00  0.00    -0.120 F 
ATOM     37  F   LIG    1       -1.063   2.668   0.108  0.00  0.00    -0.120 F 
ATOM     38  C   LIG    1        2.477   0.581  -0.038  0.00  0.00    -0.260 A 
ENDBRANCH  26  28
ENDBRANCH   6  26
TORSDOF 9
