REMARK  Name = ZINCrD000000fDbJ.0
REMARK                            x       y       z     vdW  Elec       q    Type
REMARK                         _______ _______ _______ _____ _____    ______ ____
ROOT
ATOM      1  C   LIG    1       -2.521  -1.944  -1.684  0.00  0.00    +0.450 C 
ATOM      2  O   LIG    1       -3.504  -1.616  -1.063  0.00  0.00    -0.480 OA
ENDROOT
BRANCH   1  13
ATOM      3  C   LIG    1       -3.722  -4.727  -1.091  0.00  0.00    +0.110 C 
ATOM      4  C   LIG    1       -4.556  -4.159  -2.210  0.00  0.00    +0.530 C 
ATOM      5  N   LIG    1       -4.014  -3.279  -3.075  0.00  0.00    -0.540 N 
ATOM      6  C   LIG    1       -4.658  -2.767  -4.207  0.00  0.00    +0.150 A 
ATOM      7  C   LIG    1       -5.942  -3.028  -4.688  0.00  0.00    +0.010 A 
ATOM      8  C   LIG    1       -6.391  -2.413  -5.837  0.00  0.00    +0.040 A 
ATOM      9  C   LIG    1       -5.573  -1.533  -6.521  0.00  0.00    -0.010 A 
ATOM     10  C   LIG    1       -4.300  -1.270  -6.051  0.00  0.00    +0.050 A 
ATOM     11  C   LIG    1       -3.845  -1.884  -4.900  0.00  0.00    -0.140 A 
ATOM     12  C   LIG    1       -2.521  -1.780  -4.177  0.00  0.00    +0.140 C 
ATOM     13  C   LIG    1       -2.665  -2.719  -2.969  0.00  0.00    +0.280 C 
ATOM     14  O   LIG    1       -5.716  -4.493  -2.332  0.00  0.00    -0.510 OA
ENDBRANCH   1  13
BRANCH   1  15
ATOM     15  O   LIG    1       -1.300  -1.617  -1.230  0.00  0.00    -0.340 OA
BRANCH  15  16
ATOM     16  C   LIG    1       -1.237  -0.870   0.013  0.00  0.00    +0.290 C 
ATOM     17  C   LIG    1       -1.159  -1.845   1.190  0.00  0.00    +0.070 C 
BRANCH  16  18
ATOM     18  C   LIG    1       -0.014   0.010   0.009  0.00  0.00    +0.260 A 
ATOM     19  N   LIG    1       -0.035   1.326   0.014  0.00  0.00    -0.500 NA
ATOM     20  C   LIG    1        1.236   1.767   0.007  0.00  0.00    -0.010 A 
ATOM     21  C   LIG    1        1.835   3.027   0.008  0.00  0.00    +0.250 A 
ATOM     22  C   LIG    1        3.223   3.108  -0.002  0.00  0.00    -0.190 A 
ATOM     23  C   LIG    1        3.980   1.975  -0.012  0.00  0.00    +0.390 A 
ATOM     24  N   LIG    1        3.418   0.755  -0.013  0.00  0.00    -0.470 N 
ATOM     25  H   LIG    1        3.983  -0.034  -0.021  0.00  0.00    +0.440 HD
ATOM     26 BR   LIG    1        4.065   4.801  -0.002  0.00  0.00    +0.010 Br
ATOM     27  C   LIG    1        2.059   0.613  -0.004  0.00  0.00    +0.230 A 
ATOM     28  N   LIG    1        1.238  -0.431  -0.002  0.00  0.00    -0.530 NA
ENDBRANCH  16  18
ENDBRANCH  15  16
ENDBRANCH   1  15
TORSDOF 4
