REMARK  Name = ZINCrg00000fRvbu.0
REMARK                            x       y       z     vdW  Elec       q    Type
REMARK                         _______ _______ _______ _____ _____    ______ ____
ROOT
ATOM      1  N   LIG    1        1.341  -0.388  -0.013  0.00  0.00    -0.540 N 
ATOM      2  C   LIG    1        2.101   0.723  -0.014  0.00  0.00    +0.690 A 
ATOM      3  N   LIG    1        1.311   1.813  -0.001  0.00  0.00    -0.520 N 
ATOM      4  C   LIG    1       -0.017   1.393   0.010  0.00  0.00    +0.080 A 
ATOM      5  C   LIG    1       -1.228   2.066   0.030  0.00  0.00    +0.140 A 
ATOM      6  C   LIG    1       -2.412   1.354   0.033  0.00  0.00    -0.670 A 
ATOM      7  C   LIG    1       -2.393  -0.030   0.025  0.00  0.00    +0.140 A 
ATOM      8  C   LIG    1       -1.190  -0.711   0.010  0.00  0.00    +0.020 A 
ATOM      9  O   LIG    1        3.318   0.739  -0.025  0.00  0.00    -0.540 OA
ATOM     10  C   LIG    1        0.002  -0.004   0.002  0.00  0.00    +0.150 A 
ENDROOT
BRANCH   6  11
ATOM     11  S   LIG    1       -3.951   2.210   0.053  0.00  0.00    +2.700 S 
ATOM     12  O   LIG    1       -4.915   1.316  -0.487  0.00  0.00    -0.950 OA
ATOM     13  O   LIG    1       -3.700   3.500  -0.487  0.00  0.00    -0.950 OA
BRANCH  11  14
ATOM     14  N   LIG    1       -4.364   2.440   1.640  0.00  0.00    -1.000 NA
ATOM     15  C   LIG    1       -5.163   1.433   2.342  0.00  0.00    +0.310 C 
ATOM     16  C   LIG    1       -3.930   3.650   2.342  0.00  0.00    +0.300 C 
ENDBRANCH  11  14
ENDBRANCH   6  11
BRANCH   1  18
ATOM     17  C   LIG    1        1.996  -2.239  -1.472  0.00  0.00    +0.030 C 
ATOM     18  C   LIG    1        1.837  -1.767  -0.025  0.00  0.00    +0.310 C 
ENDBRANCH   1  18
BRANCH   3  19
ATOM     19  C   LIG    1        1.770   3.204   0.002  0.00  0.00    +0.360 C 
BRANCH  19  20
ATOM     20  C   LIG    1        1.941   3.674   1.424  0.00  0.00    +0.500 C 
ATOM     21  N   LIG    1        2.358   4.931   1.673  0.00  0.00    -0.610 N 
ATOM     22  C   LIG    1        2.656   5.853   0.569  0.00  0.00    +0.260 C 
ATOM     23  C   LIG    1        1.849   7.143   0.779  0.00  0.00    +0.010 C 
ATOM     24  C   LIG    1        2.152   7.708   2.168  0.00  0.00    +0.020 C 
ATOM     25  C   LIG    1        1.728   6.696   3.236  0.00  0.00    +0.020 C 
ATOM     26  C   LIG    1        2.529   5.403   3.054  0.00  0.00    +0.270 C 
ATOM     27  O   LIG    1        1.703   2.920   2.344  0.00  0.00    -0.520 OA
ENDBRANCH  19  20
ENDBRANCH   3  19
TORSDOF 5
