REMARK  Name = ZINCpe000000TIIo.0
REMARK                            x       y       z     vdW  Elec       q    Type
REMARK                         _______ _______ _______ _____ _____    ______ ____
ROOT
ATOM      1  C   LIG    1       -1.614   1.998   0.582  0.00  0.00    +0.030 C 
ATOM      2  C   LIG    1       -2.734   0.974   0.385  0.00  0.00    +0.050 C 
ATOM      3  C   LIG    1       -4.063   1.702   0.174  0.00  0.00    +0.030 C 
ATOM      4  C   LIG    1       -3.972   2.568  -1.087  0.00  0.00    +0.270 C 
ATOM      5  N   LIG    1       -2.809   3.457  -0.967  0.00  0.00    -0.600 N 
ATOM      6  C   LIG    1       -2.944   4.789  -1.122  0.00  0.00    +0.510 C 
ATOM      7  O   LIG    1       -1.976   5.513  -1.020  0.00  0.00    -0.520 OA
ATOM      8  C   LIG    1       -1.495   2.867  -0.674  0.00  0.00    +0.310 C 
ENDROOT
BRANCH   1   9
ATOM      9  C   LIG    1       -0.311   1.279   0.821  0.00  0.00    +0.470 C 
ATOM     10  O   LIG    1       -0.281   0.072   0.836  0.00  0.00    -0.500 OA
BRANCH   9  11
ATOM     11  O   LIG    1        0.817   1.981   1.012  0.00  0.00    -0.360 OA
BRANCH  11  13
ATOM     12  C   LIG    1        3.208   2.187   1.428  0.00  0.00    +0.070 C 
ATOM     13  C   LIG    1        2.036   1.223   1.231  0.00  0.00    +0.200 C 
ENDBRANCH  11  13
ENDBRANCH   9  11
ENDBRANCH   1   9
BRANCH   6  14
ATOM     14  C   LIG    1       -4.298   5.380  -1.421  0.00  0.00    +0.340 C 
BRANCH  14  15
ATOM     15  N   LIG    1       -4.180   6.835  -1.543  0.00  0.00    -0.470 N 
ATOM     16  C   LIG    1       -4.034   7.391  -2.761  0.00  0.00    +0.530 A 
ATOM     17  C   LIG    1       -3.921   8.786  -2.887  0.00  0.00    -0.050 A 
ATOM     18  C   LIG    1       -3.960   9.564  -1.767  0.00  0.00    +0.180 A 
ATOM     19  C   LIG    1       -4.112   8.953  -0.514  0.00  0.00    -0.150 A 
ATOM     20  O   LIG    1       -4.001   6.684  -3.755  0.00  0.00    -0.510 OA
ATOM     21  C   LIG    1       -4.224   7.607  -0.428  0.00  0.00    +0.280 A 
ATOM     22  C   LIG    1       -4.393   6.959   0.922  0.00  0.00    +0.180 C 
BRANCH  19  23
ATOM     23  N   LIG    1       -4.156   9.781   0.712  0.00  0.00    +0.050 N 
ATOM     24  O   LIG    1       -4.153  10.996   0.627  0.00  0.00    -0.160 OA
ATOM     25  O   LIG    1       -4.197   9.247   1.806  0.00  0.00    -0.170 OA
ENDBRANCH  19  23
ENDBRANCH  14  15
ENDBRANCH   6  14
TORSDOF 6
