REMARK  Name = ZINCrD00000l6UFm.0
REMARK                            x       y       z     vdW  Elec       q    Type
REMARK                         _______ _______ _______ _____ _____    ______ ____
ROOT
ATOM      1  N   LIG    1        2.126   5.058  -1.402  0.00  0.00    -0.700 N 
ATOM      2  H   LIG    1        1.241   5.433  -1.529  0.00  0.00    +0.410 HD
ATOM      3  C   LIG    1        3.212   5.738  -1.823  0.00  0.00    +0.600 C 
ATOM      4  O   LIG    1        4.326   5.318  -1.575  0.00  0.00    -0.530 OA
ENDROOT
BRANCH   3   5
ATOM      5  C   LIG    1        3.049   6.988  -2.582  0.00  0.00    -0.040 A 
ATOM      6  C   LIG    1        1.860   7.631  -2.872  0.00  0.00    -0.010 A 
ATOM      7  C   LIG    1        2.225   8.771  -3.611  0.00  0.00    +0.060 A 
ATOM      8  N   LIG    1        3.537   8.765  -3.728  0.00  0.00    -0.260 NA
ATOM      9  N   LIG    1        4.043   7.745  -3.135  0.00  0.00    -0.250 N 
ATOM     10  C   LIG    1        5.473   7.436  -3.065  0.00  0.00    +0.380 C 
BRANCH   7  11
ATOM     11  C   LIG    1        1.300   9.794  -4.159  0.00  0.00    -0.000 A 
ATOM     12  C   LIG    1       -0.073   9.671  -3.963  0.00  0.00    +0.050 A 
ATOM     13  C   LIG    1       -0.929  10.627  -4.470  0.00  0.00    +0.030 A 
ATOM     14  C   LIG    1       -0.425  11.703  -5.182  0.00  0.00    -0.030 A 
ATOM     15  C   LIG    1        0.938  11.826  -5.384  0.00  0.00    +0.030 A 
ATOM     16 CL   LIG    1       -1.508  12.899  -5.824  0.00  0.00    -0.070 Cl
ATOM     17  C   LIG    1        1.802  10.878  -4.876  0.00  0.00    +0.060 A 
ENDBRANCH   7  11
ENDBRANCH   3   5
BRANCH   1  18
ATOM     18  C   LIG    1        2.284   3.754  -0.754  0.00  0.00    +0.320 C 
BRANCH  18  19
ATOM     19  C   LIG    1        1.023   2.949  -0.931  0.00  0.00    -0.120 A 
ATOM     20  C   LIG    1       -0.214   3.555  -0.828  0.00  0.00    +0.280 A 
ATOM     21  N   LIG    1       -1.323   2.858  -0.982  0.00  0.00    -0.450 NA
ATOM     22  C   LIG    1       -1.300   1.567  -1.244  0.00  0.00    +0.250 A 
ATOM     23  C   LIG    1       -0.098   0.889  -1.356  0.00  0.00    +0.050 A 
ATOM     24  F   LIG    1       -0.081  -0.436  -1.619  0.00  0.00    -0.130 F 
ATOM     25  C   LIG    1        1.090   1.590  -1.200  0.00  0.00    +0.050 A 
ENDBRANCH  18  19
BRANCH  18  26
ATOM     26  C   LIG    1        2.555   3.956   0.739  0.00  0.00    +0.180 C 
BRANCH  26  28
ATOM     27  C   LIG    1        1.558   4.780   2.757  0.00  0.00    +0.200 C 
ATOM     28  O   LIG    1        1.409   4.548   1.355  0.00  0.00    -0.390 OA
ENDBRANCH  26  28
ENDBRANCH  18  26
ENDBRANCH   1  18
TORSDOF 6
