REMARK  Name = ZINCrH000004sfNe.0
REMARK                            x       y       z     vdW  Elec       q    Type
REMARK                         _______ _______ _______ _____ _____    ______ ____
ROOT
ATOM      1  N   LIG    1        1.849   3.139  -0.797  0.00  0.00    -0.730 N 
ATOM      2  H   LIG    1        2.783   3.154  -0.534  0.00  0.00    +0.400 HD
ATOM      3  C   LIG    1        1.514   2.909  -2.082  0.00  0.00    +0.720 C 
ATOM      4  N   LIG    1        2.476   2.806  -3.021  0.00  0.00    -0.630 N 
ATOM      5  C   LIG    1        2.130   2.658  -4.443  0.00  0.00    +0.320 C 
ATOM      6  C   LIG    1        2.910   3.715  -5.241  0.00  0.00    +0.180 C 
ATOM      7  N   LIG    1        4.341   3.595  -4.935  0.00  0.00    -0.490 N 
ATOM      8  C   LIG    1        4.609   3.878  -3.518  0.00  0.00    +0.190 C 
ATOM      9  C   LIG    1        3.899   2.833  -2.650  0.00  0.00    +0.280 C 
ATOM     10  O   LIG    1        0.345   2.793  -2.395  0.00  0.00    -0.580 OA
ENDROOT
BRANCH   7  11
ATOM     11  C   LIG    1        5.103   4.426  -5.765  0.00  0.00    +0.010 A 
ATOM     12  C   LIG    1        4.955   5.807  -5.694  0.00  0.00    +0.100 A 
ATOM     13  C   LIG    1        5.713   6.625  -6.512  0.00  0.00    -0.020 A 
ATOM     14  C   LIG    1        6.609   6.071  -7.407  0.00  0.00    +0.090 A 
ATOM     15  C   LIG    1        6.756   4.698  -7.485  0.00  0.00    -0.010 A 
ATOM     16  F   LIG    1        4.075   6.348  -4.823  0.00  0.00    -0.130 F 
ATOM     17  C   LIG    1        6.005   3.873  -6.666  0.00  0.00    +0.160 A 
ATOM     18  F   LIG    1        6.150   2.532  -6.742  0.00  0.00    -0.120 F 
ENDBRANCH   7  11
BRANCH   1  19
ATOM     19  C   LIG    1        0.803   3.369   0.202  0.00  0.00    +0.390 C 
BRANCH  19  24
ATOM     20  C   LIG    1        1.879   1.610   5.228  0.00  0.00    +0.150 C 
ATOM     21  C   LIG    1        1.815   2.202   3.844  0.00  0.00    -0.220 A 
ATOM     22  C   LIG    1        2.777   2.913   3.248  0.00  0.00    +0.210 A 
ATOM     23  N   LIG    1        2.482   3.319   2.030  0.00  0.00    -0.460 NA
ATOM     24  C   LIG    1        1.322   2.996   1.567  0.00  0.00    +0.030 A 
ATOM     25  S   LIG    1        0.460   2.078   2.724  0.00  0.00    +0.150 S 
ENDBRANCH  19  24
BRANCH  19  26
ATOM     26  C   LIG    1        0.405   4.846   0.194  0.00  0.00    -0.060 C 
ATOM     27  C   LIG    1       -0.150   5.421  -1.111  0.00  0.00    +0.040 C 
ATOM     28  C   LIG    1       -1.086   5.176   0.075  0.00  0.00    +0.030 C 
ENDBRANCH  19  26
ENDBRANCH   1  19
TORSDOF 4
