REMARK  Name = ZINCqH000000702M.0
REMARK                            x       y       z     vdW  Elec       q    Type
REMARK                         _______ _______ _______ _____ _____    ______ ____
ROOT
ATOM      1  C   LIG    1       -0.011   4.250   0.013  0.00  0.00    +0.230 A 
ATOM      2  N   LIG    1       -1.231   3.778   0.022  0.00  0.00    -0.350 NA
ATOM      3  O   LIG    1       -2.030   4.690   0.029  0.00  0.00    +0.090 OA
ATOM      4  C   LIG    1       -1.388   5.862   0.025  0.00  0.00    +0.150 A 
ATOM      5  N   LIG    1       -0.105   5.600   0.021  0.00  0.00    -0.450 NA
ENDROOT
BRANCH   1   9
ATOM      6  C   LIG    1        3.583   1.970  -0.021  0.00  0.00    +0.190 A 
ATOM      7  C   LIG    1        3.639   3.358  -0.014  0.00  0.00    -0.110 A 
ATOM      8  C   LIG    1        2.477   4.099   0.001  0.00  0.00    +0.160 A 
ATOM      9  C   LIG    1        1.241   3.456   0.003  0.00  0.00    -0.100 A 
ATOM     10  C   LIG    1        1.184   2.058   0.002  0.00  0.00    +0.200 A 
ATOM     11  C   LIG    1        2.356   1.321  -0.013  0.00  0.00    -0.100 A 
BRANCH   6  13
ATOM     12  C   LIG    1        5.959   1.976  -0.043  0.00  0.00    +0.250 C 
ATOM     13  O   LIG    1        4.731   1.245  -0.036  0.00  0.00    -0.310 OA
ENDBRANCH   6  13
BRANCH  10  14
ATOM     14  O   LIG    1       -0.017   1.425   0.010  0.00  0.00    -0.290 OA
ATOM     15  C   LIG    1        0.002  -0.004   0.002  0.00  0.00    +0.250 C 
ENDBRANCH  10  14
ENDBRANCH   1   9
BRANCH   4  16
ATOM     16  C   LIG    1       -2.022   7.230   0.032  0.00  0.00    +0.450 C 
BRANCH  16  17
ATOM     17  N   LIG    1       -2.237   7.675  -1.347  0.00  0.00    -0.730 N 
ATOM     18  H   LIG    1       -1.977   7.104  -2.087  0.00  0.00    +0.410 HD
BRANCH  17  19
ATOM     19  C   LIG    1       -2.817   8.924  -1.597  0.00  0.00    +0.210 A 
ATOM     20  C   LIG    1       -3.189   9.741  -0.539  0.00  0.00    +0.000 A 
ATOM     21  C   LIG    1       -3.762  10.975  -0.787  0.00  0.00    +0.080 A 
ATOM     22  C   LIG    1       -3.966  11.396  -2.089  0.00  0.00    +0.040 A 
ATOM     23  C   LIG    1       -3.596  10.583  -3.150  0.00  0.00    +0.090 A 
ATOM     24  F   LIG    1       -3.796  10.996  -4.420  0.00  0.00    -0.110 F 
ATOM     25  F   LIG    1       -4.527  12.602  -2.328  0.00  0.00    -0.120 F 
ATOM     26  C   LIG    1       -3.017   9.349  -2.906  0.00  0.00    +0.020 A 
ATOM     27  F   LIG    1       -2.651   8.558  -3.938  0.00  0.00    -0.120 F 
ENDBRANCH  17  19
ENDBRANCH  16  17
ENDBRANCH   4  16
TORSDOF 6
