REMARK  Name = ZINCvU00000008iS.0
REMARK                            x       y       z     vdW  Elec       q    Type
REMARK                         _______ _______ _______ _____ _____    ______ ____
ROOT
ATOM      1  N   LIG    1       -3.387   1.488   2.480  0.00  0.00    -1.000 NA
ATOM      2  C   LIG    1       -3.738   0.115   2.086  0.00  0.00    +0.310 C 
ATOM      3  C   LIG    1       -3.172  -0.849   3.142  0.00  0.00    +0.170 C 
ATOM      4  N   LIG    1       -3.647  -0.443   4.472  0.00  0.00    -0.520 NA
ATOM      5  C   LIG    1       -3.149   0.891   4.831  0.00  0.00    +0.170 C 
ATOM      6  C   LIG    1       -3.708   1.924   3.847  0.00  0.00    +0.310 C 
ENDROOT
BRANCH   1   7
ATOM      7  S   LIG    1       -2.655   2.518   1.409  0.00  0.00    +2.690 S 
ATOM      8  O   LIG    1       -2.871   1.972   0.115  0.00  0.00    -0.950 OA
ATOM      9  O   LIG    1       -3.058   3.830   1.776  0.00  0.00    -0.950 OA
BRANCH   7  13
ATOM     10  C   LIG    1        1.839   4.643   3.023  0.00  0.00    +0.120 C 
ATOM     11  C   LIG    1        1.110   3.453   2.454  0.00  0.00    -0.100 A 
ATOM     12  C   LIG    1       -0.252   3.520   2.229  0.00  0.00    +0.140 A 
ATOM     13  C   LIG    1       -0.920   2.430   1.703  0.00  0.00    -0.680 A 
ATOM     14  C   LIG    1       -0.228   1.269   1.413  0.00  0.00    +0.030 A 
ATOM     15  C   LIG    1        1.133   1.199   1.642  0.00  0.00    +0.010 A 
ATOM     16  C   LIG    1       -0.959   0.079   0.845  0.00  0.00    +0.110 C 
ATOM     17  C   LIG    1        1.803   2.291   2.163  0.00  0.00    +0.020 A 
ATOM     18 CL   LIG    1        3.513   2.204   2.453  0.00  0.00    -0.050 Cl
ENDBRANCH   7  13
ENDBRANCH   1   7
BRANCH   4  19
ATOM     19  C   LIG    1       -3.274  -1.436   5.489  0.00  0.00    +0.230 C 
BRANCH  19  20
ATOM     20  C   LIG    1       -3.723  -2.804   5.043  0.00  0.00    -0.080 A 
ATOM     21  C   LIG    1       -4.999  -2.984   4.544  0.00  0.00    +0.040 A 
ATOM     22  C   LIG    1       -5.409  -4.238   4.131  0.00  0.00    +0.000 A 
ATOM     23  C   LIG    1       -4.546  -5.314   4.226  0.00  0.00    +0.000 A 
ATOM     24  C   LIG    1       -3.271  -5.134   4.730  0.00  0.00    +0.000 A 
ATOM     25  C   LIG    1       -2.860  -3.879   5.139  0.00  0.00    +0.010 A 
ENDBRANCH  19  20
BRANCH  19  26
ATOM     26  C   LIG    1       -3.940  -1.090   6.796  0.00  0.00    -0.080 A 
ATOM     27  C   LIG    1       -5.278  -0.745   6.820  0.00  0.00    +0.040 A 
ATOM     28  C   LIG    1       -5.890  -0.432   8.019  0.00  0.00    +0.000 A 
ATOM     29  C   LIG    1       -5.161  -0.455   9.193  0.00  0.00    +0.000 A 
ATOM     30  C   LIG    1       -3.821  -0.794   9.169  0.00  0.00    +0.000 A 
ATOM     31  C   LIG    1       -3.211  -1.112   7.970  0.00  0.00    +0.010 A 
ENDBRANCH  19  26
ENDBRANCH   4  19
TORSDOF 5
