REMARK  Name = ZINCrD000000Bpf0.0
REMARK                            x       y       z     vdW  Elec       q    Type
REMARK                         _______ _______ _______ _____ _____    ______ ____
ROOT
ATOM      1  O   LIG    1        7.007   1.600  -0.057  0.00  0.00    -0.520 OA
ATOM      2  C   LIG    1        5.951   2.200  -0.044  0.00  0.00    +0.580 C 
ATOM      3  N   LIG    1        5.942   3.548  -0.036  0.00  0.00    -0.710 N 
ATOM      4  H   LIG    1        5.099   4.028  -0.025  0.00  0.00    +0.410 HD
ENDROOT
BRANCH   2   5
ATOM      5  C   LIG    1        4.672   1.451  -0.035  0.00  0.00    +0.060 A 
ATOM      6  N   LIG    1        3.526   2.109  -0.020  0.00  0.00    -0.390 NA
ATOM      7  C   LIG    1        2.376   1.433  -0.013  0.00  0.00    +0.080 A 
ATOM      8  C   LIG    1        1.140   2.106   0.003  0.00  0.00    +0.060 A 
ATOM      9  C   LIG    1       -0.017   1.390   0.010  0.00  0.00    +0.040 A 
ATOM     10  C   LIG    1        0.002  -0.004   0.002  0.00  0.00    +0.060 A 
ATOM     11  C   LIG    1        1.178  -0.690  -0.013  0.00  0.00    +0.060 A 
ATOM     12  C   LIG    1        2.395   0.013  -0.021  0.00  0.00    +0.100 A 
ATOM     13  N   LIG    1        3.565  -0.635  -0.035  0.00  0.00    -0.420 NA
ATOM     14  C   LIG    1        4.687   0.045  -0.043  0.00  0.00    +0.320 A 
ENDBRANCH   2   5
BRANCH   3  15
ATOM     15  C   LIG    1        7.206   4.289  -0.045  0.00  0.00    +0.330 C 
BRANCH  15  16
ATOM     16  C   LIG    1        6.920   5.769  -0.034  0.00  0.00    -0.200 A 
ATOM     17  C   LIG    1        6.800   6.451   1.170  0.00  0.00    +0.110 A 
ATOM     18  C   LIG    1        6.538   7.809   1.135  0.00  0.00    -0.050 A 
ATOM     19  C   LIG    1        6.405   8.441  -0.096  0.00  0.00    +0.330 A 
ATOM     20  N   LIG    1        6.527   7.756  -1.223  0.00  0.00    -0.520 NA
ATOM     21  C   LIG    1        6.782   6.461  -1.220  0.00  0.00    +0.310 A 
BRANCH  19  22
ATOM     22  N   LIG    1        6.142   9.805  -0.145  0.00  0.00    -0.490 N 
ATOM     23  C   LIG    1        4.985  10.154   0.709  0.00  0.00    +0.200 C 
ATOM     24  C   LIG    1        4.493  11.557   0.482  0.00  0.00    +0.040 C 
ATOM     25  C   LIG    1        3.355  11.515  -0.559  0.00  0.00    +0.000 C 
ATOM     26  C   LIG    1        3.861  11.386  -1.922  0.00  0.00    +0.000 C 
ATOM     27  C   LIG    1        4.663  10.084  -2.125  0.00  0.00    +0.000 C 
ATOM     28  C   LIG    1        6.038  10.276  -1.545  0.00  0.00    +0.230 C 
ENDBRANCH  19  22
ENDBRANCH  15  16
ENDBRANCH   3  15
TORSDOF 4
