REMARK  Name = ZINCpk00000e8YCg.0
REMARK                            x       y       z     vdW  Elec       q    Type
REMARK                         _______ _______ _______ _____ _____    ______ ____
ROOT
ATOM      1  C   LIG    1       -1.032   8.686  -0.324  0.00  0.00    +0.560 C 
ATOM      2  N   LIG    1       -0.008   7.810  -0.342  0.00  0.00    -0.520 N 
ATOM      3  H   LIG    1        0.902   8.125  -0.227  0.00  0.00    +0.430 HD
ATOM      4  O   LIG    1       -2.173   8.291  -0.469  0.00  0.00    -0.530 OA
ENDROOT
BRANCH   1   9
ATOM      5  C   LIG    1       -1.571  12.386   0.075  0.00  0.00    +0.140 A 
ATOM      6  C   LIG    1       -0.265  12.830   0.239  0.00  0.00    +0.020 A 
ATOM      7  C   LIG    1        0.784  11.930   0.220  0.00  0.00    +0.040 A 
ATOM      8  C   LIG    1        0.540  10.583   0.043  0.00  0.00    +0.030 A 
ATOM      9  C   LIG    1       -0.769  10.127  -0.129  0.00  0.00    -0.110 A 
ATOM     10  C   LIG    1       -1.827  11.036  -0.109  0.00  0.00    +0.090 A 
BRANCH   5  13
ATOM     11  C   LIG    1       -4.998  13.882   0.512  0.00  0.00    +0.110 C 
ATOM     12  C   LIG    1       -3.826  12.938   0.598  0.00  0.00    +0.510 C 
ATOM     13  N   LIG    1       -2.629  13.302   0.095  0.00  0.00    -0.680 N 
ATOM     14  H   LIG    1       -2.502  14.198  -0.253  0.00  0.00    +0.410 HD
ATOM     15  O   LIG    1       -3.959  11.851   1.120  0.00  0.00    -0.520 OA
ENDBRANCH   5  13
ENDBRANCH   1   9
BRANCH   2  16
ATOM     16  N   LIG    1       -0.258   6.444  -0.528  0.00  0.00    -0.520 N 
ATOM     17  H   LIG    1       -1.168   6.128  -0.643  0.00  0.00    +0.430 HD
ATOM     18  C   LIG    1        0.766   5.568  -0.546  0.00  0.00    +0.570 C 
ATOM     19  O   LIG    1        1.906   5.963  -0.402  0.00  0.00    -0.530 OA
BRANCH  18  20
ATOM     20  C   LIG    1        0.502   4.128  -0.741  0.00  0.00    -0.120 A 
ATOM     21  C   LIG    1       -0.807   3.673  -0.908  0.00  0.00    +0.070 A 
ATOM     22  C   LIG    1       -1.051   2.329  -1.095  0.00  0.00    +0.040 A 
ATOM     23  C   LIG    1        0.001   1.424  -1.110  0.00  0.00    +0.070 A 
ATOM     24  O   LIG    1        0.023   0.070  -1.271  0.00  0.00    -0.300 OA
ATOM     25  C   LIG    1        1.313  -0.355  -0.795  0.00  0.00    +0.440 C 
ATOM     26  O   LIG    1        2.151   0.797  -1.002  0.00  0.00    -0.300 OA
ATOM     27  C   LIG    1        1.312   1.873  -0.944  0.00  0.00    +0.030 A 
ATOM     28  C   LIG    1        1.563   3.219  -0.760  0.00  0.00    +0.110 A 
ENDBRANCH  18  20
ENDBRANCH   2  16
TORSDOF 4
