REMARK  Name = ZINCpe00000MJLnZ.0
REMARK                            x       y       z     vdW  Elec       q    Type
REMARK                         _______ _______ _______ _____ _____    ______ ____
ROOT
ATOM      1  C   LIG    1       -0.579   1.477   1.362  0.00  0.00    -0.080 C 
ATOM      2  C   LIG    1       -1.415   2.745   1.320  0.00  0.00    +0.030 C 
ATOM      3  C   LIG    1       -2.250   2.836   0.049  0.00  0.00    +0.220 C 
ATOM      4  O   LIG    1       -1.367   2.758  -1.076  0.00  0.00    -0.370 OA
ATOM      5  C   LIG    1       -0.766   1.490  -1.200  0.00  0.00    +0.230 C 
ATOM      6  C   LIG    1        0.670   1.755   2.235  0.00  0.00    +0.300 C 
ATOM      7  N   LIG    1        1.711   2.196   1.291  0.00  0.00    -0.610 N 
ATOM      8  C   LIG    1        2.716   3.053   1.559  0.00  0.00    +0.580 C 
ATOM      9  O   LIG    1        2.763   3.617   2.634  0.00  0.00    -0.520 OA
ATOM     10  C   LIG    1        1.456   1.533   0.002  0.00  0.00    +0.270 C 
ATOM     11  C   LIG    1       -0.002   1.060   0.021  0.00  0.00    -0.020 C 
ENDROOT
BRANCH   8  12
ATOM     12  C   LIG    1        3.762   3.306   0.544  0.00  0.00    -0.100 A 
ATOM     13  C   LIG    1        4.033   2.350  -0.435  0.00  0.00    +0.040 A 
ATOM     14  C   LIG    1        5.006   2.592  -1.384  0.00  0.00    +0.050 A 
ATOM     15  C   LIG    1        5.722   3.774  -1.361  0.00  0.00    +0.030 A 
ATOM     16  C   LIG    1        5.462   4.730  -0.387  0.00  0.00    +0.130 A 
ATOM     17  C   LIG    1        4.484   4.499   0.567  0.00  0.00    +0.060 A 
BRANCH  16  18
ATOM     18  N   LIG    1        6.191   5.928  -0.368  0.00  0.00    -0.410 N 
ATOM     19  C   LIG    1        7.183   6.292  -1.242  0.00  0.00    +0.120 A 
ATOM     20  C   LIG    1        7.609   7.512  -0.862  0.00  0.00    +0.160 A 
ATOM     21  N   LIG    1        6.900   7.887   0.213  0.00  0.00    -0.480 NA
ATOM     22  C   LIG    1        6.044   6.949   0.515  0.00  0.00    +0.400 A 
ENDBRANCH  16  18
ENDBRANCH   8  12
BRANCH   1  26
ATOM     23  N   LIG    1       -1.982   0.494   3.147  0.00  0.00    -0.850 N 
ATOM     24  H   LIG    1       -2.495  -0.236   3.526  0.00  0.00    +0.410 HD
ATOM     25  H   LIG    1       -1.904   1.334   3.627  0.00  0.00    +0.400 HD
ATOM     26  C   LIG    1       -1.377   0.343   1.952  0.00  0.00    +0.530 C 
ATOM     27  O   LIG    1       -1.474  -0.707   1.352  0.00  0.00    -0.530 OA
ENDBRANCH   1  26
TORSDOF 3
