REMARK  Name = ZINCrD0000075UCJ.0
REMARK                            x       y       z     vdW  Elec       q    Type
REMARK                         _______ _______ _______ _____ _____    ______ ____
ROOT
ATOM      1  O   LIG    1       -4.178  -7.535   4.780  0.00  0.00    -0.530 OA
ATOM      2  C   LIG    1       -3.246  -6.834   4.436  0.00  0.00    +0.560 C 
ATOM      3  N   LIG    1       -3.410  -5.931   3.449  0.00  0.00    -0.610 N 
ATOM      4  C   LIG    1       -4.683  -5.834   2.719  0.00  0.00    +0.300 C 
ATOM      5  C   LIG    1       -4.387  -5.884   1.216  0.00  0.00    +0.190 C 
ATOM      6  N   LIG    1       -3.397  -4.851   0.880  0.00  0.00    -0.540 NA
ATOM      7  C   LIG    1       -2.117  -5.099   1.557  0.00  0.00    +0.180 C 
ATOM      8  C   LIG    1       -2.320  -5.018   3.073  0.00  0.00    +0.280 C 
ENDROOT
BRANCH   2   9
ATOM      9  C   LIG    1       -1.932  -6.973   5.100  0.00  0.00    -0.130 A 
ATOM     10  C   LIG    1       -1.361  -8.236   5.266  0.00  0.00    +0.060 A 
ATOM     11  C   LIG    1       -0.132  -8.358   5.881  0.00  0.00    +0.010 A 
ATOM     12  C   LIG    1        0.528  -7.234   6.345  0.00  0.00    +0.030 A 
ATOM     13  C   LIG    1       -0.036  -5.980   6.189  0.00  0.00    +0.010 A 
ATOM     14  C   LIG    1       -1.261  -5.843   5.570  0.00  0.00    +0.040 A 
ENDBRANCH   2   9
BRANCH   6  15
ATOM     15  C   LIG    1       -3.214  -4.750  -0.574  0.00  0.00    +0.360 C 
BRANCH  15  16
ATOM     16  C   LIG    1       -2.389  -3.530  -0.892  0.00  0.00    +0.190 A 
ATOM     17  N   LIG    1       -1.083  -3.477  -0.986  0.00  0.00    -0.470 NA
ATOM     18  C   LIG    1       -0.793  -2.190  -1.285  0.00  0.00    +0.200 A 
ATOM     19  N   LIG    1       -1.928  -1.544  -1.350  0.00  0.00    -0.350 NA
ATOM     20  O   LIG    1       -2.851  -2.299  -1.132  0.00  0.00    +0.100 OA
BRANCH  18  21
ATOM     21  C   LIG    1        0.560  -1.618  -1.494  0.00  0.00    -0.020 A 
ATOM     22  C   LIG    1        1.687  -2.431  -1.388  0.00  0.00    +0.070 A 
ATOM     23  C   LIG    1        2.943  -1.893  -1.584  0.00  0.00    +0.020 A 
ATOM     24  C   LIG    1        3.086  -0.551  -1.885  0.00  0.00    +0.050 A 
ATOM     25  C   LIG    1        1.971   0.261  -1.993  0.00  0.00    +0.030 A 
ATOM     26  C   LIG    1        0.709  -0.266  -1.799  0.00  0.00    -0.010 A 
ATOM     27 CL   LIG    1       -0.690   0.753  -1.941  0.00  0.00    -0.040 Cl
ENDBRANCH  18  21
ENDBRANCH  15  16
ENDBRANCH   6  15
TORSDOF 4
