REMARK  Name = ZINCvU0000000BKm.0
REMARK                            x       y       z     vdW  Elec       q    Type
REMARK                         _______ _______ _______ _____ _____    ______ ____
ROOT
ATOM      1  C   LIG    1       -4.533   4.540  -0.805  0.00  0.00    -0.030 A 
ATOM      2  N   LIG    1       -4.394   5.822  -0.540  0.00  0.00    -0.170 NA
ATOM      3  N   LIG    1       -5.357   6.656  -0.682  0.00  0.00    -0.280 N 
ATOM      4  C   LIG    1       -6.593   6.300  -1.112  0.00  0.00    +0.130 A 
ATOM      5  C   LIG    1       -6.875   5.012  -1.422  0.00  0.00    -0.080 A 
ATOM      6  C   LIG    1       -7.665   7.350  -1.248  0.00  0.00    +0.150 C 
ATOM      7  C   LIG    1       -5.837   4.054  -1.285  0.00  0.00    +0.380 A 
ATOM      8  O   LIG    1       -6.018   2.876  -1.551  0.00  0.00    -0.440 OA
ENDROOT
BRANCH   3   9
ATOM      9  C   LIG    1       -5.122   8.000  -0.376  0.00  0.00    +0.160 A 
ATOM     10  C   LIG    1       -5.373   8.984  -1.324  0.00  0.00    +0.040 A 
ATOM     11  C   LIG    1       -5.145  10.311  -1.018  0.00  0.00    +0.080 A 
ATOM     12  C   LIG    1       -4.657  10.660   0.228  0.00  0.00    +0.050 A 
ATOM     13  C   LIG    1       -4.401   9.683   1.173  0.00  0.00    +0.090 A 
ATOM     14  C   LIG    1       -4.632   8.355   0.875  0.00  0.00    -0.160 A 
BRANCH  14  15
ATOM     15  C   LIG    1       -4.353   7.291   1.905  0.00  0.00    +0.510 C 
ATOM     16  F   LIG    1       -3.397   6.399   1.407  0.00  0.00    -0.160 F 
ATOM     17  F   LIG    1       -5.534   6.596   2.190  0.00  0.00    -0.170 F 
ATOM     18  F   LIG    1       -3.870   7.889   3.074  0.00  0.00    -0.170 F 
ENDBRANCH  14  15
ENDBRANCH   3   9
BRANCH   1  21
ATOM     19  N   LIG    1       -2.211   4.068  -0.196  0.00  0.00    -0.660 N 
ATOM     20  H   LIG    1       -2.108   5.004   0.035  0.00  0.00    +0.410 HD
ATOM     21  C   LIG    1       -3.401   3.608  -0.631  0.00  0.00    +0.590 C 
ATOM     22  O   LIG    1       -3.543   2.427  -0.880  0.00  0.00    -0.470 OA
BRANCH  19  29
ATOM     23  C   LIG    1       -1.432   2.576  -2.491  0.00  0.00    +0.090 C 
ATOM     24  C   LIG    1       -0.711   2.447  -1.173  0.00  0.00    -0.070 A 
ATOM     25  C   LIG    1        0.358   1.582  -1.052  0.00  0.00    +0.020 A 
ATOM     26  C   LIG    1        1.024   1.468   0.155  0.00  0.00    +0.010 A 
ATOM     27  C   LIG    1        0.617   2.215   1.245  0.00  0.00    +0.020 A 
ATOM     28  C   LIG    1       -0.455   3.078   1.132  0.00  0.00    -0.080 A 
ATOM     29  C   LIG    1       -1.125   3.195  -0.078  0.00  0.00    +0.140 A 
BRANCH  28  30
ATOM     30  C   LIG    1       -0.897   3.892   2.321  0.00  0.00    +0.020 C 
ATOM     31  C   LIG    1        0.254   4.790   2.780  0.00  0.00    +0.040 C 
ATOM     32  C   LIG    1       -1.297   2.953   3.461  0.00  0.00    +0.040 C 
ENDBRANCH  28  30
ENDBRANCH  19  29
ENDBRANCH   1  21
TORSDOF 5
