REMARK  Name = ZINCvU00000003Vw.0
REMARK                            x       y       z     vdW  Elec       q    Type
REMARK                         _______ _______ _______ _____ _____    ______ ____
ROOT
ATOM      1  N   LIG    1        1.143   1.902   0.001  0.00  0.00    -0.620 N 
ATOM      2  H   LIG    1        1.130   2.872   0.007  0.00  0.00    +0.420 HD
ATOM      3  C   LIG    1       -0.014   1.212   0.009  0.00  0.00    +0.600 C 
ATOM      4  O   LIG    1        0.002  -0.004   0.002  0.00  0.00    -0.490 OA
ENDROOT
BRANCH   3   5
ATOM      5  C   LIG    1       -1.296   1.929   0.019  0.00  0.00    -0.240 A 
ATOM      6  C   LIG    1       -2.490   1.335   0.021  0.00  0.00    +0.170 A 
ATOM      7  C   LIG    1       -3.620   2.244   0.032  0.00  0.00    -0.170 A 
ATOM      8  C   LIG    1       -4.992   1.936   0.037  0.00  0.00    +0.180 A 
ATOM      9  C   LIG    1       -5.912   2.986   0.049  0.00  0.00    -0.150 A 
ATOM     10  C   LIG    1       -7.301   2.760   0.055  0.00  0.00    +0.100 A 
ATOM     11  C   LIG    1       -8.153   3.818   0.067  0.00  0.00    -0.050 A 
ATOM     12  C   LIG    1       -7.683   5.135   0.073  0.00  0.00    +0.170 A 
ATOM     13  C   LIG    1       -6.336   5.417   0.067  0.00  0.00    -0.010 A 
ATOM     14  C   LIG    1       -5.409   4.362   0.055  0.00  0.00    +0.220 A 
ATOM     15  N   LIG    1       -4.097   4.584   0.049  0.00  0.00    -0.460 NA
ATOM     16  C   LIG    1       -3.211   3.592   0.038  0.00  0.00    +0.120 A 
ATOM     17  S   LIG    1       -1.451   3.675   0.036  0.00  0.00    +0.160 S 
BRANCH  12  18
ATOM     18  O   LIG    1       -8.575   6.158   0.085  0.00  0.00    -0.310 OA
ATOM     19  C   LIG    1       -9.961   5.811   0.091  0.00  0.00    +0.250 C 
ENDBRANCH  12  18
ENDBRANCH   3   5
BRANCH   1  23
ATOM     20  C   LIG    1        4.577   0.975  -0.036  0.00  0.00    +0.140 A 
ATOM     21  C   LIG    1        4.294  -0.340  -0.041  0.00  0.00    -0.110 A 
ATOM     22  S   LIG    1        2.542  -0.526  -0.026  0.00  0.00    +0.210 S 
ATOM     23  C   LIG    1        2.355   1.225  -0.014  0.00  0.00    +0.270 A 
ATOM     24  N   LIG    1        3.526   1.782  -0.027  0.00  0.00    -0.500 NA
BRANCH  20  28
ATOM     25  C   LIG    1        8.570   2.441  -0.065  0.00  0.00    +0.140 A 
ATOM     26  C   LIG    1        7.505   3.331  -0.050  0.00  0.00    -0.020 A 
ATOM     27  C   LIG    1        6.209   2.859  -0.041  0.00  0.00    +0.090 A 
ATOM     28  C   LIG    1        5.969   1.486  -0.047  0.00  0.00    -0.060 A 
ATOM     29  C   LIG    1        7.041   0.594  -0.056  0.00  0.00    +0.070 A 
ATOM     30  C   LIG    1        8.334   1.073  -0.071  0.00  0.00    -0.080 A 
BRANCH  25  32
ATOM     31  C   LIG    1       10.893   1.938  -0.090  0.00  0.00    +0.250 C 
ATOM     32  O   LIG    1        9.846   2.909  -0.075  0.00  0.00    -0.320 OA
ENDBRANCH  25  32
ENDBRANCH  20  28
ENDBRANCH   1  23
TORSDOF 5
