REMARK  Name = ZINCpk00000KfL65.0
REMARK                            x       y       z     vdW  Elec       q    Type
REMARK                         _______ _______ _______ _____ _____    ______ ____
ROOT
ATOM      1  C   LIG    1       -8.387   1.022   0.049  0.00  0.00    +0.500 C 
ATOM      2  N   LIG    1       -7.135   0.523   0.040  0.00  0.00    -0.520 N 
ATOM      3  H   LIG    1       -6.996  -0.437   0.035  0.00  0.00    +0.430 HD
ATOM      4  O   LIG    1       -8.561   2.223   0.056  0.00  0.00    -0.510 OA
ENDROOT
BRANCH   1  13
ATOM      5  C   LIG    1      -11.149   1.909   2.265  0.00  0.00    +0.080 C 
ATOM      6  C   LIG    1      -11.575   0.839   1.258  0.00  0.00    +0.170 C 
ATOM      7  C   LIG    1      -13.043   0.985   0.822  0.00  0.00    +0.090 C 
ATOM      8  C   LIG    1      -12.884   1.921  -0.401  0.00  0.00    +0.100 C 
ATOM      9  C   LIG    1      -11.484   1.655  -0.894  0.00  0.00    +0.550 C 
ATOM     10  O   LIG    1      -11.028   2.081  -1.934  0.00  0.00    -0.500 OA
ATOM     11  S   LIG    1      -11.237  -0.866   1.851  0.00  0.00    -0.230 S 
ATOM     12  C   LIG    1       -9.482  -0.819   1.295  0.00  0.00    +0.170 C 
ATOM     13  C   LIG    1       -9.571   0.089   0.050  0.00  0.00    +0.270 C 
ATOM     14  N   LIG    1      -10.799   0.890  -0.005  0.00  0.00    -0.610 N 
ENDBRANCH   1  13
BRANCH   2  15
ATOM     15  N   LIG    1       -6.035   1.390   0.039  0.00  0.00    -0.520 N 
ATOM     16  H   LIG    1       -6.174   2.350   0.045  0.00  0.00    +0.430 HD
ATOM     17  C   LIG    1       -4.783   0.890   0.030  0.00  0.00    +0.520 C 
ATOM     18  O   LIG    1       -4.609  -0.310   0.024  0.00  0.00    -0.510 OA
BRANCH  17  19
ATOM     19  C   LIG    1       -3.599   1.823   0.029  0.00  0.00    +0.250 C 
BRANCH  19  20
ATOM     20  O   LIG    1       -2.392   1.059   0.020  0.00  0.00    -0.280 OA
BRANCH  20  21
ATOM     21  C   LIG    1       -1.223   1.754   0.017  0.00  0.00    +0.140 A 
ATOM     22  C   LIG    1       -0.013   1.076   0.008  0.00  0.00    +0.000 A 
ATOM     23  C   LIG    1        1.174   1.783   0.000  0.00  0.00    +0.090 A 
ATOM     24  C   LIG    1        1.156   3.167   0.008  0.00  0.00    -0.130 A 
ATOM     25  C   LIG    1       -0.050   3.844   0.023  0.00  0.00    +0.090 A 
ATOM     26 BR   LIG    1        2.781   4.132  -0.002  0.00  0.00    -0.050 Br
ATOM     27  C   LIG    1       -1.239   3.141   0.031  0.00  0.00    -0.070 A 
ENDBRANCH  20  21
ENDBRANCH  19  20
ENDBRANCH  17  19
ENDBRANCH   2  15
TORSDOF 5
