REMARK  Name = ZINCb800000011iQ.0
REMARK                            x       y       z     vdW  Elec       q    Type
REMARK                         _______ _______ _______ _____ _____    ______ ____
ROOT
ATOM      1  N   LIG    1        0.423   7.539   2.928  0.00  0.00    -0.870 N 
ATOM      2  H   LIG    1        0.468   8.491   3.109  0.00  0.00    +0.420 HD
ATOM      3  H   LIG    1        0.475   6.903   3.658  0.00  0.00    +0.400 HD
ATOM      4  C   LIG    1        0.287   7.101   1.661  0.00  0.00    +0.710 C 
ATOM      5  N   LIG    1        0.225   5.778   1.408  0.00  0.00    -0.740 N 
ATOM      6  H   LIG    1        0.277   5.142   2.139  0.00  0.00    +0.400 HD
ATOM      7  O   LIG    1        0.221   7.898   0.745  0.00  0.00    -0.590 OA
ENDROOT
BRANCH   5   8
ATOM      8  C   LIG    1        0.077   5.302   0.031  0.00  0.00    +0.370 C 
BRANCH   8   9
ATOM      9  C   LIG    1        0.033   3.795   0.023  0.00  0.00    +0.100 A 
ATOM     10  C   LIG    1       -1.188   3.148   0.030  0.00  0.00    -0.010 A 
ATOM     11  C   LIG    1       -1.217   1.761   0.017  0.00  0.00    +0.060 A 
ATOM     12  C   LIG    1       -0.013   1.076   0.008  0.00  0.00    -0.020 A 
ATOM     13  C   LIG    1        1.170   1.792   0.001  0.00  0.00    +0.260 A 
ATOM     14  N   LIG    1        1.160   3.110   0.008  0.00  0.00    -0.470 NA
ENDBRANCH   8   9
ENDBRANCH   5   8
TORSDOF 2
