REMARK  Name = ZINCrH000004vHKP.0
REMARK                            x       y       z     vdW  Elec       q    Type
REMARK                         _______ _______ _______ _____ _____    ______ ____
ROOT
ATOM      1  C   LIG    1       -5.420   2.542   0.177  0.00  0.00    +0.560 C 
ATOM      2  N   LIG    1       -6.372   1.590   0.238  0.00  0.00    -0.710 N 
ATOM      3  H   LIG    1       -6.121   0.654   0.273  0.00  0.00    +0.410 HD
ATOM      4  O   LIG    1       -5.736   3.715   0.133  0.00  0.00    -0.540 OA
ENDROOT
BRANCH   1  12
ATOM      5  O   LIG    1        2.103   0.676   0.269  0.00  0.00    -0.540 OA
ATOM      6  C   LIG    1        1.195   1.473   0.156  0.00  0.00    +0.530 C 
ATOM      7  C   LIG    1        1.578   2.908   0.102  0.00  0.00    +0.070 C 
ATOM      8  C   LIG    1        0.566   3.787   0.797  0.00  0.00    +0.040 C 
ATOM      9  C   LIG    1       -0.708   3.953   0.029  0.00  0.00    +0.090 C 
ATOM     10  C   LIG    1       -1.655   2.798   0.085  0.00  0.00    -0.120 A 
ATOM     11  C   LIG    1       -3.005   3.135   0.100  0.00  0.00    +0.120 A 
ATOM     12  C   LIG    1       -3.995   2.160   0.163  0.00  0.00    -0.160 A 
ATOM     13  C   LIG    1       -3.622   0.814   0.213  0.00  0.00    +0.080 A 
ATOM     14  C   LIG    1       -2.294   0.483   0.193  0.00  0.00    -0.040 A 
ATOM     15  C   LIG    1       -1.288   1.467   0.119  0.00  0.00    +0.210 A 
ATOM     16  N   LIG    1       -0.007   0.976   0.097  0.00  0.00    -0.650 N 
ATOM     17  H   LIG    1        0.006   0.010   0.012  0.00  0.00    +0.400 HD
ENDBRANCH   1  12
BRANCH   2  18
ATOM     18  C   LIG    1       -7.787   1.969   0.252  0.00  0.00    +0.290 C 
ATOM     19  C   LIG    1       -8.226   2.263   1.687  0.00  0.00    +0.020 C 
ATOM     20  C   LIG    1       -7.540   1.321   2.665  0.00  0.00    +0.010 C 
ATOM     21  C   LIG    1       -7.983  -0.121   2.525  0.00  0.00    +0.230 C 
ATOM     22  O   LIG    1       -7.589  -0.656   1.257  0.00  0.00    -0.330 OA
ATOM     23  C   LIG    1       -8.459  -0.442   0.232  0.00  0.00    +0.130 A 
ATOM     24  C   LIG    1       -9.204  -1.499  -0.273  0.00  0.00    -0.020 A 
ATOM     25  C   LIG    1      -10.120  -1.270  -1.284  0.00  0.00    +0.120 A 
ATOM     26  C   LIG    1      -10.293   0.007  -1.792  0.00  0.00    -0.020 A 
ATOM     27  C   LIG    1       -9.543   1.058  -1.293  0.00  0.00    +0.080 A 
ATOM     28  F   LIG    1      -10.848  -2.295  -1.778  0.00  0.00    -0.130 F 
ATOM     29  C   LIG    1       -8.626   0.826  -0.288  0.00  0.00    -0.140 A 
ENDBRANCH   2  18
TORSDOF 2
