REMARK  Name = ZINCnE000001DKVq.0
REMARK                            x       y       z     vdW  Elec       q    Type
REMARK                         _______ _______ _______ _____ _____    ______ ____
ROOT
ATOM      1  C   LIG    1       -2.965  -3.101   0.135  0.00  0.00    +0.020 C 
ENDROOT
BRANCH   1   2
ATOM      2  C   LIG    1       -1.728  -2.690   0.936  0.00  0.00    +0.240 C 
ATOM      3  C   LIG    1       -1.854  -3.210   2.370  0.00  0.00    +0.000 C 
BRANCH   2   4
ATOM      4  N   LIG    1       -1.620  -1.229   0.954  0.00  0.00    -0.730 N 
ATOM      5  H   LIG    1       -2.413  -0.683   0.836  0.00  0.00    +0.390 HD
ATOM      6  C   LIG    1       -0.419  -0.644   1.134  0.00  0.00    +0.670 C 
ATOM      7  O   LIG    1        0.577  -1.331   1.282  0.00  0.00    -0.610 OA
BRANCH   6   8
ATOM      8  N   LIG    1       -0.321   0.688   1.150  0.00  0.00    -0.680 NA
ATOM      9  C   LIG    1        0.865   1.266   1.328  0.00  0.00    +0.360 A 
ATOM     10  N   LIG    1        2.053   0.654   1.504  0.00  0.00    -0.420 NA
ATOM     11  N   LIG    1        3.149   1.473   1.669  0.00  0.00    -0.280 NA
ATOM     12  C   LIG    1        2.946   2.748   1.640  0.00  0.00    +0.160 A 
ATOM     13  S   LIG    1        1.207   2.953   1.373  0.00  0.00    -0.090 S 
ENDBRANCH   6   8
ENDBRANCH   2   4
ENDBRANCH   1   2
BRANCH   1  14
ATOM     14  C   LIG    1       -2.784  -2.691  -1.328  0.00  0.00    +0.070 C 
BRANCH  14  18
ATOM     15  C   LIG    1       -6.239  -3.837  -3.567  0.00  0.00    +0.120 A 
ATOM     16  C   LIG    1       -6.182  -2.587  -2.967  0.00  0.00    -0.020 A 
ATOM     17  C   LIG    1       -5.065  -2.219  -2.244  0.00  0.00    +0.050 A 
ATOM     18  C   LIG    1       -4.002  -3.095  -2.117  0.00  0.00    -0.110 A 
ATOM     19  C   LIG    1       -4.053  -4.339  -2.719  0.00  0.00    +0.040 A 
ATOM     20  C   LIG    1       -5.171  -4.714  -3.438  0.00  0.00    -0.080 A 
BRANCH  15  21
ATOM     21  O   LIG    1       -7.337  -4.202  -4.280  0.00  0.00    -0.310 OA
BRANCH  21  23
ATOM     22  C   LIG    1       -7.670  -6.580  -4.009  0.00  0.00    +0.020 C 
ATOM     23  C   LIG    1       -7.278  -5.453  -4.967  0.00  0.00    +0.150 C 
ATOM     24  C   LIG    1       -8.248  -5.431  -6.151  0.00  0.00    +0.060 C 
ENDBRANCH  21  23
ENDBRANCH  15  21
ENDBRANCH  14  18
ENDBRANCH   1  14
TORSDOF 7
