REMARK  Name = ZINCpe000000Z55t.0
REMARK                            x       y       z     vdW  Elec       q    Type
REMARK                         _______ _______ _______ _____ _____    ______ ____
ROOT
ATOM      1  C   LIG    1        5.782  -1.651  -1.940  0.00  0.00    -0.010 C 
ATOM      2  C   LIG    1        6.502  -0.351  -1.515  0.00  0.00    +0.080 C 
ATOM      3  C   LIG    1        5.404   0.690  -1.494  0.00  0.00    +0.520 C 
ATOM      4  N   LIG    1        4.200   0.091  -1.480  0.00  0.00    -0.620 N 
ATOM      5  O   LIG    1        5.583   1.889  -1.489  0.00  0.00    -0.520 OA
ATOM      6  C   LIG    1        4.331  -1.371  -1.489  0.00  0.00    +0.300 C 
ENDROOT
BRANCH   1   8
ATOM      7  O   LIG    1        5.675  -3.439  -0.403  0.00  0.00    -0.530 OA
ATOM      8  C   LIG    1        6.350  -2.844  -1.216  0.00  0.00    +0.530 C 
ATOM      9  N   LIG    1        7.609  -3.251  -1.472  0.00  0.00    -0.730 N 
ATOM     10  H   LIG    1        8.150  -2.776  -2.123  0.00  0.00    +0.400 HD
BRANCH   9  11
ATOM     11  C   LIG    1        8.162  -4.411  -0.768  0.00  0.00    +0.270 C 
BRANCH  11  12
ATOM     12  C   LIG    1        9.596  -4.658  -1.240  0.00  0.00    +0.030 C 
BRANCH  12  13
ATOM     13  C   LIG    1       10.174  -5.869  -0.505  0.00  0.00    +0.330 C 
BRANCH  13  14
ATOM     14  N   LIG    1       11.547  -6.106  -0.957  0.00  0.00    -0.380 N 
ATOM     15  C   LIG    1       12.646  -6.183  -0.187  0.00  0.00    +0.480 A 
ATOM     16  N   LIG    1       13.673  -6.406  -0.966  0.00  0.00    -0.550 NA
ATOM     17  C   LIG    1       13.272  -6.468  -2.235  0.00  0.00    +0.420 A 
ATOM     18  N   LIG    1       11.978  -6.290  -2.281  0.00  0.00    -0.320 NA
ENDBRANCH  13  14
ENDBRANCH  12  13
ENDBRANCH  11  12
ENDBRANCH   9  11
ENDBRANCH   1   8
BRANCH   4  19
ATOM     19  C   LIG    1        2.921   0.806  -1.464  0.00  0.00    +0.300 C 
BRANCH  19  20
ATOM     20  C   LIG    1        2.490   1.048  -0.016  0.00  0.00    +0.060 C 
BRANCH  20  21
ATOM     21  C   LIG    1        1.175   1.783   0.000  0.00  0.00    -0.080 A 
ATOM     22  C   LIG    1       -0.013   1.076   0.008  0.00  0.00    +0.000 A 
ATOM     23  C   LIG    1       -1.219   1.751   0.017  0.00  0.00    +0.000 A 
ATOM     24  C   LIG    1       -1.238   3.133   0.030  0.00  0.00    +0.000 A 
ATOM     25  C   LIG    1       -0.050   3.840   0.022  0.00  0.00    +0.000 A 
ATOM     26  C   LIG    1        1.156   3.165   0.008  0.00  0.00    +0.010 A 
ENDBRANCH  20  21
ENDBRANCH  19  20
ENDBRANCH   4  19
TORSDOF 8
