REMARK  Name = ZINCpk00001AZitz.0
REMARK                            x       y       z     vdW  Elec       q    Type
REMARK                         _______ _______ _______ _____ _____    ______ ____
ROOT
ATOM      1  C   LIG    1        3.671   2.188  -0.021  0.00  0.00    +0.320 C 
ATOM      2  N   LIG    1        3.555   3.313   0.895  0.00  0.00    -0.710 N 
ATOM      3  H   LIG    1        3.647   3.147   1.846  0.00  0.00    +0.420 HD
ATOM      4  C   LIG    1        3.326   4.566   0.487  0.00  0.00    +0.530 C 
ATOM      5  C   LIG    1        3.196   4.904  -0.970  0.00  0.00    +0.130 C 
ATOM      6  N   LIG    1        3.734   3.876  -1.854  0.00  0.00    -0.700 N 
ATOM      7  H   LIG    1        3.930   4.101  -2.777  0.00  0.00    +0.410 HD
ATOM      8  C   LIG    1        1.788   5.373  -1.364  0.00  0.00    +0.060 C 
ATOM      9  C   LIG    1        2.252   6.798  -1.017  0.00  0.00    +0.070 C 
ATOM     10  C   LIG    1        3.684   6.320  -1.313  0.00  0.00    +0.130 C 
ATOM     11  O   LIG    1        3.220   5.449   1.312  0.00  0.00    -0.470 OA
ATOM     12  C   LIG    1        3.965   2.630  -1.421  0.00  0.00    +0.520 C 
ATOM     13  O   LIG    1        4.431   1.824  -2.198  0.00  0.00    -0.510 OA
ENDROOT
BRANCH   1  17
ATOM     14  C   LIG    1        0.002  -0.004   0.002  0.00  0.00    +0.150 A 
ATOM     15  C   LIG    1       -0.017   1.382   0.010  0.00  0.00    -0.060 A 
ATOM     16  C   LIG    1        1.171   2.089   0.002  0.00  0.00    +0.070 A 
ATOM     17  C   LIG    1        2.378   1.415  -0.013  0.00  0.00    -0.140 A 
ATOM     18  C   LIG    1        2.400   0.032  -0.021  0.00  0.00    +0.110 A 
ATOM     19  C   LIG    1        1.215  -0.679  -0.013  0.00  0.00    -0.070 A 
ATOM     20 CL   LIG    1        1.244  -2.415  -0.023  0.00  0.00    -0.050 Cl
BRANCH  14  22
ATOM     21  C   LIG    1       -2.375   0.060   0.024  0.00  0.00    +0.250 C 
ATOM     22  O   LIG    1       -1.165  -0.701   0.009  0.00  0.00    -0.300 OA
ENDBRANCH  14  22
ENDBRANCH   1  17
BRANCH   9  23
ATOM     23  C   LIG    1        1.748   7.862  -1.995  0.00  0.00    +0.440 C 
ATOM     24  F   LIG    1        2.583   8.983  -1.936  0.00  0.00    -0.170 F 
ATOM     25  F   LIG    1        0.444   8.233  -1.648  0.00  0.00    -0.180 F 
ATOM     26  F   LIG    1        1.755   7.343  -3.294  0.00  0.00    -0.170 F 
ENDBRANCH   9  23
BRANCH   9  27
ATOM     27  O   LIG    1        2.038   7.153   0.350  0.00  0.00    -0.470 OA
ATOM     28  H   LIG    1        1.139   7.455   0.542  0.00  0.00    +0.380 HD
ENDBRANCH   9  27
TORSDOF 4
