REMARK  Name = ZINCpe000011ESBF.1
REMARK                            x       y       z     vdW  Elec       q    Type
REMARK                         _______ _______ _______ _____ _____    ______ ____
ROOT
ATOM      1  N   LIG    1       -0.065   1.119  -2.440  0.00  0.00    -0.380 N 
ATOM      2  C   LIG    1        0.068  -0.342  -2.385  0.00  0.00    +0.250 C 
ATOM      3  C   LIG    1        0.855  -0.833  -3.602  0.00  0.00    +0.050 C 
ATOM      4  C   LIG    1        0.110  -0.434  -4.879  0.00  0.00    +0.130 C 
ATOM      5  C   LIG    1       -0.089   1.084  -4.890  0.00  0.00    +0.090 C 
ATOM      6  C   LIG    1       -0.841   1.504  -3.625  0.00  0.00    +0.260 C 
ATOM      7  H   LIG    1        0.852   1.536  -2.490  0.00  0.00    +0.420 HD
ENDROOT
BRANCH   4   8
ATOM      8  O   LIG    1       -1.163  -1.083  -4.914  0.00  0.00    -0.560 OA
ATOM      9  H   LIG    1       -1.113  -2.049  -4.909  0.00  0.00    +0.400 HD
ENDBRANCH   4   8
BRANCH   1  10
ATOM     10  C   LIG    1       -0.753   1.593  -1.232  0.00  0.00    +0.260 C 
BRANCH  10  11
ATOM     11  C   LIG    1       -0.013   1.086   0.008  0.00  0.00    +0.110 C 
BRANCH  11  16
ATOM     12  C   LIG    1       -0.945   3.175   3.016  0.00  0.00    +0.100 A 
ATOM     13  C   LIG    1       -2.017   2.461   3.528  0.00  0.00    -0.020 A 
ATOM     14  C   LIG    1       -2.440   1.304   2.902  0.00  0.00    -0.020 A 
ATOM     15  C   LIG    1       -1.791   0.858   1.760  0.00  0.00    +0.100 A 
ATOM     16  C   LIG    1       -0.718   1.572   1.248  0.00  0.00    -0.090 A 
ATOM     17  C   LIG    1       -0.292   2.725   1.877  0.00  0.00    +0.030 A 
BRANCH  12  19
ATOM     18  C   LIG    1       -1.243   4.715   4.804  0.00  0.00    +0.250 C 
ATOM     19  O   LIG    1       -0.529   4.313   3.633  0.00  0.00    -0.320 OA
ENDBRANCH  12  19
BRANCH  15  20
ATOM     20  O   LIG    1       -2.207  -0.281   1.143  0.00  0.00    -0.320 OA
ATOM     21  C   LIG    1       -3.318  -0.965   1.726  0.00  0.00    +0.250 C 
ENDBRANCH  15  20
ENDBRANCH  11  16
ENDBRANCH  10  11
ENDBRANCH   1  10
BRANCH   4  22
ATOM     22  C   LIG    1        0.930  -0.852  -6.101  0.00  0.00    +0.130 C 
BRANCH  22  23
ATOM     23  C   LIG    1        1.124  -2.346  -6.089  0.00  0.00    +0.030 A 
ATOM     24  N   LIG    1        2.123  -3.005  -5.529  0.00  0.00    -0.390 NA
ATOM     25  N   LIG    1        1.926  -4.262  -5.735  0.00  0.00    -0.190 NA
ATOM     26  N   LIG    1        0.841  -4.409  -6.412  0.00  0.00    -0.190 NA
ATOM     27  N   LIG    1        0.331  -3.247  -6.642  0.00  0.00    -0.380 NA
ENDBRANCH  22  23
ENDBRANCH   4  22
TORSDOF 8
