REMARK  Name = ZINCvU0000000Gt7.0
REMARK                            x       y       z     vdW  Elec       q    Type
REMARK                         _______ _______ _______ _____ _____    ______ ____
ROOT
ATOM      1  C   LIG    1        1.184   3.188  -0.024  0.00  0.00    +0.120 A 
ATOM      2  C   LIG    1       -0.011   3.877  -0.011  0.00  0.00    +0.000 A 
ATOM      3  C   LIG    1       -1.223   3.170   0.026  0.00  0.00    -0.050 A 
ATOM      4  C   LIG    1       -1.211   1.768   0.043  0.00  0.00    +0.070 A 
ATOM      5  C   LIG    1       -0.012   1.091   0.035  0.00  0.00    +0.060 A 
ATOM      6  C   LIG    1        1.187   1.792  -0.001  0.00  0.00    +0.090 A 
ENDROOT
BRANCH   1   8
ATOM      7  C   LIG    1        2.284   5.296  -0.082  0.00  0.00    +0.250 C 
ATOM      8  O   LIG    1        2.361   3.869  -0.060  0.00  0.00    -0.310 OA
ENDBRANCH   1   8
BRANCH   3   9
ATOM      9  C   LIG    1       -2.495   3.894   0.040  0.00  0.00    +0.380 C 
ATOM     10  N   LIG    1       -3.631   3.229   0.074  0.00  0.00    -0.370 NA
BRANCH  10  11
ATOM     11  N   LIG    1       -4.752   3.867   0.087  0.00  0.00    -0.250 NA
ATOM     12  C   LIG    1       -5.889   3.200   0.121  0.00  0.00    +0.160 C 
ATOM     13  C   LIG    1       -6.072   1.735   0.143  0.00  0.00    +0.530 C 
ATOM     14  N   LIG    1       -7.392   1.484   0.181  0.00  0.00    -0.650 N 
ATOM     15  H   LIG    1       -7.779   0.595   0.204  0.00  0.00    +0.430 HD
ATOM     16  C   LIG    1       -8.133   2.662   0.176  0.00  0.00    +0.190 A 
ATOM     17  C   LIG    1       -9.504   2.892   0.201  0.00  0.00    -0.050 A 
ATOM     18  C   LIG    1       -9.991   4.185   0.188  0.00  0.00    +0.120 A 
ATOM     19  C   LIG    1       -9.124   5.266   0.152  0.00  0.00    -0.060 A 
ATOM     20  C   LIG    1       -7.759   5.057   0.129  0.00  0.00    +0.150 A 
ATOM     21 CL   LIG    1       -9.754   6.883   0.138  0.00  0.00    -0.040 Cl
ATOM     22 CL   LIG    1      -10.606   1.552   0.247  0.00  0.00    -0.040 Cl
ATOM     23  O   LIG    1       -5.185   0.903   0.133  0.00  0.00    -0.450 OA
ATOM     24  C   LIG    1       -7.258   3.758   0.140  0.00  0.00    -0.090 A 
ENDBRANCH  10  11
ENDBRANCH   3   9
BRANCH   6  25
ATOM     25  O   LIG    1        2.365   1.118  -0.015  0.00  0.00    -0.280 OA
BRANCH  25  26
ATOM     26  C   LIG    1        3.029   0.980   1.152  0.00  0.00    +0.540 C 
ATOM     27  O   LIG    1        2.524   1.367   2.189  0.00  0.00    -0.480 OA
BRANCH  26  28
ATOM     28  C   LIG    1        4.358   0.366   1.169  0.00  0.00    -0.270 A 
ATOM     29  C   LIG    1        5.128   0.172   2.283  0.00  0.00    +0.120 A 
ATOM     30  C   LIG    1        6.334  -0.428   2.011  0.00  0.00    -0.010 A 
ATOM     31  C   LIG    1        6.548  -0.716   0.722  0.00  0.00    -0.060 A 
ATOM     32  S   LIG    1        5.216  -0.247  -0.237  0.00  0.00    +0.260 S 
ENDBRANCH  26  28
ENDBRANCH  25  26
ENDBRANCH   6  25
TORSDOF 6
