REMARK  Name = ZINCrD000000AndF.0
REMARK                            x       y       z     vdW  Elec       q    Type
REMARK                         _______ _______ _______ _____ _____    ______ ____
ROOT
ATOM      1  O   LIG    1       -0.381   5.739  -2.082  0.00  0.00    -0.480 OA
ATOM      2  C   LIG    1        0.144   6.441  -1.250  0.00  0.00    +0.460 C 
ENDROOT
BRANCH   2   3
ATOM      3  O   LIG    1        0.269   7.760  -1.466  0.00  0.00    -0.350 OA
BRANCH   3   4
ATOM      4  C   LIG    1       -0.251   8.274  -2.720  0.00  0.00    +0.330 C 
BRANCH   4   5
ATOM      5  C   LIG    1       -0.024   9.763  -2.784  0.00  0.00    -0.180 A 
ATOM      6  C   LIG    1        1.057  10.328  -3.287  0.00  0.00    -0.000 A 
ATOM      7  C   LIG    1        1.061  11.782  -3.246  0.00  0.00    -0.080 A 
ATOM      8  C   LIG    1        2.048  12.687  -3.694  0.00  0.00    +0.060 A 
ATOM      9  C   LIG    1        1.862  14.029  -3.565  0.00  0.00    +0.020 A 
ATOM     10  C   LIG    1        0.701  14.530  -2.993  0.00  0.00    +0.050 A 
ATOM     11  C   LIG    1       -0.277  13.672  -2.548  0.00  0.00    +0.050 A 
ATOM     12  C   LIG    1       -0.107  12.290  -2.670  0.00  0.00    -0.130 A 
ATOM     13 CL   LIG    1        2.373   9.408  -3.946  0.00  0.00    -0.030 Cl
ATOM     14  S   LIG    1       -1.165  10.962  -2.208  0.00  0.00    +0.160 S 
ENDBRANCH   4   5
ENDBRANCH   3   4
ENDBRANCH   2   3
BRANCH   2  15
ATOM     15  C   LIG    1        0.661   5.834   0.029  0.00  0.00    +0.280 C 
BRANCH  15  16
ATOM     16  N   LIG    1        0.407   4.391   0.023  0.00  0.00    -0.490 NA
ATOM     17  C   LIG    1        1.405   3.555   0.009  0.00  0.00    +0.400 C 
ATOM     18  N   LIG    1        2.705   3.993  -0.001  0.00  0.00    -1.050 N 
ATOM     19  H   LIG    1        3.013   4.912   0.002  0.00  0.00    +0.450 HD
ATOM     20  S   LIG    1        3.646   2.612  -0.018  0.00  0.00    +2.670 S 
ATOM     21  C   LIG    1        2.380   1.373  -0.013  0.00  0.00    -0.630 A 
ATOM     22  C   LIG    1        2.395   0.004  -0.021  0.00  0.00    +0.160 A 
ATOM     23  C   LIG    1        1.199  -0.697  -0.014  0.00  0.00    +0.050 A 
ATOM     24  C   LIG    1        0.002  -0.004   0.002  0.00  0.00    +0.080 A 
ATOM     25  C   LIG    1       -0.017   1.372   0.010  0.00  0.00    +0.100 A 
ATOM     26  O   LIG    1        4.295   2.554  -1.280  0.00  0.00    -0.930 OA
ATOM     27  O   LIG    1        4.319   2.539   1.231  0.00  0.00    -0.930 OA
ATOM     28  C   LIG    1        1.185   2.099   0.002  0.00  0.00    -0.020 A 
ENDBRANCH  15  16
ENDBRANCH   2  15
TORSDOF 5
