REMARK  Name = ZINCrg00001Jdv2z.0
REMARK                            x       y       z     vdW  Elec       q    Type
REMARK                         _______ _______ _______ _____ _____    ______ ____
ROOT
ATOM      1  C   LIG    1       10.537  -0.865  -2.120  0.00  0.00    +0.360 C 
ENDROOT
BRANCH   1  11
ATOM      2  C   LIG    1       13.803   3.480  -0.771  0.00  0.00    +0.350 C 
ATOM      3  N   LIG    1       13.525   2.593  -1.903  0.00  0.00    -0.550 N 
ATOM      4  C   LIG    1       12.598   1.621  -1.773  0.00  0.00    +0.590 A 
ATOM      5  C   LIG    1       12.331   0.772  -2.869  0.00  0.00    -0.150 A 
ATOM      6  C   LIG    1       13.037   0.952  -4.052  0.00  0.00    +0.320 A 
ATOM      7  N   LIG    1       13.976   1.968  -4.122  0.00  0.00    -0.510 N 
ATOM      8  C   LIG    1       14.730   2.182  -5.360  0.00  0.00    +0.340 C 
ATOM      9  N   LIG    1       12.605   0.028  -4.915  0.00  0.00    -0.500 NA
ATOM     10  C   LIG    1       11.686  -0.712  -4.348  0.00  0.00    +0.500 A 
ATOM     11  N   LIG    1       11.483  -0.296  -3.083  0.00  0.00    -0.410 N 
ATOM     12  O   LIG    1       11.995   1.481  -0.724  0.00  0.00    -0.510 OA
ATOM     13  C   LIG    1       14.197   2.759  -3.055  0.00  0.00    +0.710 A 
ATOM     14  O   LIG    1       15.024   3.646  -3.136  0.00  0.00    -0.530 OA
ENDBRANCH   1  11
BRANCH   1  15
ATOM     15  C   LIG    1        9.229  -0.073  -2.161  0.00  0.00    +0.110 C 
BRANCH  15  16
ATOM     16  C   LIG    1        8.256  -0.658  -1.170  0.00  0.00    +0.470 C 
ATOM     17  O   LIG    1        8.576  -1.611  -0.500  0.00  0.00    -0.500 OA
BRANCH  16  18
ATOM     18  O   LIG    1        7.034  -0.121  -1.032  0.00  0.00    -0.350 OA
BRANCH  18  19
ATOM     19  C   LIG    1        6.149  -0.736  -0.058  0.00  0.00    +0.270 C 
BRANCH  19  20
ATOM     20  C   LIG    1        4.832  -0.004  -0.043  0.00  0.00    -0.030 C 
ATOM     21  C   LIG    1        3.695  -0.685  -0.036  0.00  0.00    +0.030 C 
BRANCH  21  22
ATOM     22  C   LIG    1        2.403   0.034  -0.020  0.00  0.00    -0.060 A 
ATOM     23  C   LIG    1        1.204  -0.681  -0.013  0.00  0.00    +0.030 A 
ATOM     24  C   LIG    1        0.002  -0.004   0.002  0.00  0.00    +0.010 A 
ATOM     25  C   LIG    1       -0.017   1.379   0.010  0.00  0.00    +0.000 A 
ATOM     26  C   LIG    1        1.168   2.093   0.002  0.00  0.00    +0.010 A 
ATOM     27  C   LIG    1        2.377   1.429  -0.013  0.00  0.00    +0.020 A 
ENDBRANCH  21  22
ENDBRANCH  19  20
ENDBRANCH  18  19
ENDBRANCH  16  18
ENDBRANCH  15  16
ENDBRANCH   1  15
TORSDOF 7
