REMARK  Name = ZINCrg00001JduWn.0
REMARK                            x       y       z     vdW  Elec       q    Type
REMARK                         _______ _______ _______ _____ _____    ______ ____
ROOT
ATOM      1  C   LIG    1       -2.590   4.122   0.037  0.00  0.00    +0.290 C 
ENDROOT
BRANCH   1   3
ATOM      2  C   LIG    1       -1.293   2.060   0.019  0.00  0.00    +0.550 C 
ATOM      3  N   LIG    1       -1.311   3.407   0.027  0.00  0.00    -0.730 N 
ATOM      4  H   LIG    1       -0.478   3.904   0.025  0.00  0.00    +0.400 HD
ATOM      5  O   LIG    1       -2.338   1.437   0.021  0.00  0.00    -0.540 OA
BRANCH   2   7
ATOM      6  C   LIG    1        0.002  -0.004   0.002  0.00  0.00    +0.140 C 
ATOM      7  C   LIG    1       -0.016   1.346   0.009  0.00  0.00    -0.100 C 
BRANCH   6  11
ATOM      8  C   LIG    1        3.704  -2.075  -0.045  0.00  0.00    +0.140 A 
ATOM      9  C   LIG    1        2.511  -2.788  -0.037  0.00  0.00    -0.020 A 
ATOM     10  C   LIG    1        1.307  -2.121  -0.022  0.00  0.00    +0.090 A 
ATOM     11  C   LIG    1        1.285  -0.722  -0.014  0.00  0.00    -0.120 A 
ATOM     12  C   LIG    1        2.489  -0.008  -0.028  0.00  0.00    +0.070 A 
ATOM     13  C   LIG    1        3.688  -0.684  -0.037  0.00  0.00    -0.080 A 
BRANCH   8  15
ATOM     14  C   LIG    1        6.076  -1.943  -0.067  0.00  0.00    +0.240 C 
ATOM     15  O   LIG    1        4.888  -2.737  -0.060  0.00  0.00    -0.310 OA
ENDBRANCH   8  15
ENDBRANCH   6  11
ENDBRANCH   2   7
ENDBRANCH   1   3
BRANCH   1  16
ATOM     16  C   LIG    1       -2.330   5.630   0.044  0.00  0.00    +0.080 C 
BRANCH  16  17
ATOM     17  C   LIG    1       -3.646   6.366   0.054  0.00  0.00    +0.520 C 
ATOM     18  N   LIG    1       -3.664   7.713   0.061  0.00  0.00    -0.520 N 
ATOM     19  H   LIG    1       -2.830   8.210   0.060  0.00  0.00    +0.430 HD
ATOM     20  O   LIG    1       -4.688   5.745   0.056  0.00  0.00    -0.530 OA
BRANCH  18  21
ATOM     21  N   LIG    1       -4.886   8.398   0.071  0.00  0.00    -0.520 N 
ATOM     22  H   LIG    1       -5.720   7.901   0.072  0.00  0.00    +0.430 HD
ATOM     23  C   LIG    1       -4.905   9.745   0.078  0.00  0.00    +0.560 C 
ATOM     24  O   LIG    1       -3.861  10.367   0.077  0.00  0.00    -0.530 OA
BRANCH  23  25
ATOM     25  C   LIG    1       -6.198  10.468   0.088  0.00  0.00    -0.080 A 
ATOM     26  C   LIG    1       -7.410   9.772   0.085  0.00  0.00    +0.000 A 
ATOM     27  C   LIG    1       -8.593  10.487   0.100  0.00  0.00    +0.270 A 
ATOM     28  N   LIG    1       -8.587  11.805   0.107  0.00  0.00    -0.460 NA
ATOM     29  C   LIG    1       -7.467  12.499   0.105  0.00  0.00    +0.270 A 
ATOM     30  C   LIG    1       -6.239  11.866   0.096  0.00  0.00    +0.040 A 
ENDBRANCH  23  25
ENDBRANCH  18  21
ENDBRANCH  16  17
ENDBRANCH   1  16
TORSDOF 8
