REMARK  Name = ZINCrg00001JduRk.0
REMARK                            x       y       z     vdW  Elec       q    Type
REMARK                         _______ _______ _______ _____ _____    ______ ____
ROOT
ATOM      1  N   LIG    1       -1.250   3.669   2.603  0.00  0.00    -0.590 N 
ATOM      2  C   LIG    1       -2.576   3.866   2.740  0.00  0.00    +0.510 C 
ATOM      3  O   LIG    1       -3.020   4.306   3.779  0.00  0.00    -0.510 OA
ENDROOT
BRANCH   1   4
ATOM      4  C   LIG    1       -0.344   3.987   3.710  0.00  0.00    +0.280 C 
ATOM      5  C   LIG    1       -0.412   5.491   4.030  0.00  0.00    +0.070 C 
ATOM      6  C   LIG    1        0.272   5.738   5.389  0.00  0.00    -0.310 C 
ATOM      7  S   LIG    1        0.066   4.175   6.317  0.00  0.00    +2.390 S 
ATOM      8  O   LIG    1       -0.827   4.386   7.402  0.00  0.00    -0.930 OA
ATOM      9  O   LIG    1        1.341   3.595   6.552  0.00  0.00    -0.930 OA
ATOM     10  C   LIG    1       -0.790   3.240   4.993  0.00  0.00    -0.320 C 
ENDBRANCH   1   4
BRANCH   1  11
ATOM     11  C   LIG    1       -0.714   3.137   1.348  0.00  0.00    +0.270 C 
BRANCH  11  13
ATOM     12  C   LIG    1       -0.387   1.061  -0.003  0.00  0.00    +0.030 C 
ATOM     13  C   LIG    1       -0.797   1.609   1.365  0.00  0.00    -0.050 C 
ATOM     14  C   LIG    1        0.144   1.059   2.438  0.00  0.00    +0.020 C 
ENDBRANCH  11  13
ENDBRANCH   1  11
BRANCH   2  15
ATOM     15  C   LIG    1       -3.508   3.538   1.602  0.00  0.00    +0.330 C 
BRANCH  15  16
ATOM     16  N   LIG    1       -4.886   3.838   1.997  0.00  0.00    -0.530 N 
ATOM     17  C   LIG    1       -5.623   2.903   2.572  0.00  0.00    +0.530 C 
ATOM     18  C   LIG    1       -7.021   3.350   2.931  0.00  0.00    +0.110 C 
ATOM     19  S   LIG    1       -7.072   5.083   2.364  0.00  0.00    +0.050 S 
ATOM     20  O   LIG    1       -5.211   1.785   2.796  0.00  0.00    -0.470 OA
ATOM     21  C   LIG    1       -5.404   5.080   1.764  0.00  0.00    +0.200 C 
ATOM     22  C   LIG    1       -4.747   6.140   1.170  0.00  0.00    -0.140 C 
BRANCH  22  23
ATOM     23  C   LIG    1       -5.402   7.354   0.996  0.00  0.00    +0.410 C 
ATOM     24  O   LIG    1       -6.554   7.483   1.366  0.00  0.00    -0.470 OA
BRANCH  23  25
ATOM     25  C   LIG    1       -4.686   8.511   0.347  0.00  0.00    -0.090 C 
ATOM     26  C   LIG    1       -4.852   9.892   0.985  0.00  0.00    +0.050 C 
ATOM     27  C   LIG    1       -5.542   9.575  -0.343  0.00  0.00    +0.050 C 
ENDBRANCH  23  25
ENDBRANCH  22  23
ENDBRANCH  15  16
ENDBRANCH   2  15
TORSDOF 7
