REMARK  Name = ZINCnE000001CtiQ.1
REMARK                            x       y       z     vdW  Elec       q    Type
REMARK                         _______ _______ _______ _____ _____    ______ ____
ROOT
ATOM      1  C   LIG    1        2.411  -0.108   2.818  0.00  0.00    -0.150 A 
ATOM      2  C   LIG    1        2.884   0.172   4.053  0.00  0.00    +0.130 A 
ATOM      3  N   LIG    1        3.332   1.399   4.194  0.00  0.00    -0.460 NA
ATOM      4  C   LIG    1        3.259   2.179   3.158  0.00  0.00    +0.240 A 
ATOM      5  C   LIG    1        2.899  -0.838   5.171  0.00  0.00    +0.170 C 
ATOM      6  S   LIG    1        2.572   1.344   1.834  0.00  0.00    +0.150 S 
ENDROOT
BRANCH   1  12
ATOM      7  N   LIG    1        1.367  -1.676   1.111  0.00  0.00    -0.500 N 
ATOM      8  C   LIG    1        0.952  -2.958   1.092  0.00  0.00    +0.390 A 
ATOM      9  N   LIG    1        1.166  -3.477   2.318  0.00  0.00    -0.370 NA
ATOM     10  N   LIG    1        1.733  -2.470   3.111  0.00  0.00    -0.300 NA
ATOM     11  S   LIG    1        0.274  -3.779  -0.248  0.00  0.00    -0.770 S 
ATOM     12  C   LIG    1        1.854  -1.397   2.375  0.00  0.00    +0.240 A 
BRANCH   7  13
ATOM     13  C   LIG    1        1.317  -0.740  -0.015  0.00  0.00    +0.330 C 
BRANCH  13  15
ATOM     14  C   LIG    1       -0.016   1.306   0.009  0.00  0.00    +0.010 C 
ATOM     15  C   LIG    1        0.002  -0.004   0.002  0.00  0.00    -0.030 C 
ENDBRANCH  13  15
ENDBRANCH   7  13
ENDBRANCH   1  12
BRANCH   4  16
ATOM     16  N   LIG    1        3.679   3.500   3.130  0.00  0.00    -0.630 N 
ATOM     17  H   LIG    1        3.591   4.020   2.316  0.00  0.00    +0.420 HD
ATOM     18  C   LIG    1        4.208   4.063   4.235  0.00  0.00    +0.580 C 
ATOM     19  O   LIG    1        4.318   3.411   5.256  0.00  0.00    -0.460 OA
BRANCH  18  20
ATOM     20  C   LIG    1        4.654   5.466   4.205  0.00  0.00    -0.230 A 
ATOM     21  C   LIG    1        4.606   6.325   3.145  0.00  0.00    +0.230 A 
ATOM     22  O   LIG    1        5.104   7.503   3.534  0.00  0.00    -0.170 OA
ATOM     23  C   LIG    1        5.493   7.458   4.818  0.00  0.00    +0.170 A 
ATOM     24  C   LIG    1        5.250   6.234   5.309  0.00  0.00    +0.000 A 
ENDBRANCH  18  20
ENDBRANCH   4  16
TORSDOF 5
