REMARK  Name = ZINCrD00000F5LCI.0
REMARK                            x       y       z     vdW  Elec       q    Type
REMARK                         _______ _______ _______ _____ _____    ______ ____
ROOT
ATOM      1  C   LIG    1       -2.573   4.138   0.252  0.00  0.00    +0.260 C 
ENDROOT
BRANCH   1   2
ATOM      2  C   LIG    1       -1.259   3.411   0.128  0.00  0.00    +0.520 C 
ATOM      3  N   LIG    1       -1.239   2.068   0.019  0.00  0.00    -0.670 N 
ATOM      4  H   LIG    1       -2.072   1.575  -0.047  0.00  0.00    +0.420 HD
ATOM      5  O   LIG    1       -0.218   4.035   0.127  0.00  0.00    -0.490 OA
BRANCH   3   6
ATOM      6  C   LIG    1       -0.017   1.385   0.002  0.00  0.00    +0.150 A 
ATOM      7  C   LIG    1        1.089   1.954  -0.615  0.00  0.00    +0.040 A 
ATOM      8  C   LIG    1        2.293   1.277  -0.638  0.00  0.00    +0.050 A 
ATOM      9  C   LIG    1        2.402   0.028  -0.047  0.00  0.00    +0.040 A 
ATOM     10  O   LIG    1        3.596  -0.626  -0.083  0.00  0.00    -0.310 OA
ATOM     11  C   LIG    1        3.767  -1.706   0.842  0.00  0.00    +0.220 C 
ATOM     12  C   LIG    1        2.506  -2.580   0.798  0.00  0.00    +0.220 C 
ATOM     13  O   LIG    1        1.385  -1.768   1.164  0.00  0.00    -0.310 OA
ATOM     14  C   LIG    1        1.297  -0.545   0.573  0.00  0.00    +0.070 A 
ATOM     15  C   LIG    1        0.089   0.135   0.596  0.00  0.00    +0.000 A 
ENDBRANCH   3   6
ENDBRANCH   1   2
BRANCH   1  16
ATOM     16  O   LIG    1       -2.333   5.543   0.353  0.00  0.00    -0.330 OA
BRANCH  16  17
ATOM     17  C   LIG    1       -3.413   6.343   0.471  0.00  0.00    +0.510 C 
ATOM     18  O   LIG    1       -4.529   5.859   0.487  0.00  0.00    -0.510 OA
BRANCH  17  20
ATOM     19  C   LIG    1       -4.331   8.547   0.694  0.00  0.00    +0.160 C 
ATOM     20  C   LIG    1       -3.248   7.746   0.576  0.00  0.00    -0.080 C 
BRANCH  19  24
ATOM     21  C   LIG    1       -3.838  12.738   1.008  0.00  0.00    -0.070 A 
ATOM     22  C   LIG    1       -5.117  12.185   1.026  0.00  0.00    +0.020 A 
ATOM     23  C   LIG    1       -5.281  10.833   0.925  0.00  0.00    +0.080 A 
ATOM     24  C   LIG    1       -4.160  10.001   0.803  0.00  0.00    -0.100 A 
ATOM     25  C   LIG    1       -2.876  10.560   0.790  0.00  0.00    +0.070 A 
ATOM     26  C   LIG    1       -2.721  11.914   0.885  0.00  0.00    -0.010 A 
BRANCH  21  28
ATOM     27  C   LIG    1       -1.832  14.688   1.066  0.00  0.00    +0.140 C 
ATOM     28  S   LIG    1       -3.633  14.483   1.138  0.00  0.00    -0.100 S 
ENDBRANCH  21  28
ENDBRANCH  19  24
ENDBRANCH  17  20
ENDBRANCH  16  17
ENDBRANCH   1  16
TORSDOF 7
