REMARK  Name = ZINCvU0000000C3W.0
REMARK                            x       y       z     vdW  Elec       q    Type
REMARK                         _______ _______ _______ _____ _____    ______ ____
ROOT
ATOM      1  O   LIG    1        0.678   0.761  -0.561  0.00  0.00    -0.520 OA
ATOM      2  C   LIG    1        1.477  -0.154  -0.526  0.00  0.00    +0.560 C 
ATOM      3  N   LIG    1        1.042  -1.430  -0.543  0.00  0.00    -0.720 N 
ATOM      4  H   LIG    1        1.680  -2.160  -0.520  0.00  0.00    +0.400 HD
ENDROOT
BRANCH   2   5
ATOM      5  C   LIG    1        2.927   0.132  -0.472  0.00  0.00    -0.120 A 
ATOM      6  C   LIG    1        3.847  -0.917  -0.439  0.00  0.00    +0.050 A 
ATOM      7  C   LIG    1        5.199  -0.646  -0.388  0.00  0.00    +0.030 A 
ATOM      8  C   LIG    1        5.647   0.661  -0.371  0.00  0.00    +0.050 A 
ATOM      9  C   LIG    1        4.739   1.712  -0.405  0.00  0.00    +0.080 A 
ATOM     10  C   LIG    1        3.380   1.451  -0.461  0.00  0.00    +0.080 A 
BRANCH   9  11
ATOM     11  O   LIG    1        5.184   2.995  -0.387  0.00  0.00    -0.260 OA
BRANCH  11  12
ATOM     12  C   LIG    1        5.137   3.671   0.790  0.00  0.00    +0.120 A 
ATOM     13  C   LIG    1        4.594   3.069   1.916  0.00  0.00    -0.060 A 
ATOM     14  C   LIG    1        4.552   3.757   3.114  0.00  0.00    +0.050 A 
ATOM     15  C   LIG    1        5.041   5.048   3.188  0.00  0.00    -0.020 A 
ATOM     16  C   LIG    1        5.578   5.652   2.067  0.00  0.00    +0.050 A 
ATOM     17  C   LIG    1        5.627   4.967   0.868  0.00  0.00    -0.010 A 
ENDBRANCH  11  12
ENDBRANCH   9  11
ENDBRANCH   2   5
BRANCH   3  18
ATOM     18  C   LIG    1       -0.394  -1.713  -0.596  0.00  0.00    +0.270 C 
BRANCH  18  19
ATOM     19  C   LIG    1       -0.615  -3.227  -0.605  0.00  0.00    +0.310 C 
BRANCH  19  20
ATOM     20  N   LIG    1       -2.051  -3.511  -0.659  0.00  0.00    -0.570 N 
ATOM     21  C   LIG    1       -2.760  -3.648   0.471  0.00  0.00    +0.530 C 
ATOM     22  S   LIG    1       -4.428  -3.975  -0.034  0.00  0.00    -0.010 S 
ATOM     23  C   LIG    1       -4.057  -3.914  -1.768  0.00  0.00    -0.270 C 
ATOM     24  C   LIG    1       -4.914  -4.091  -2.813  0.00  0.00    +0.300 C 
ATOM     25  O   LIG    1       -2.344  -3.564   1.611  0.00  0.00    -0.420 OA
ATOM     26  C   LIG    1       -2.667  -3.640  -1.821  0.00  0.00    +0.550 C 
ATOM     27  O   LIG    1       -2.073  -3.531  -2.879  0.00  0.00    -0.460 OA
BRANCH  24  28
ATOM     28  C   LIG    1       -4.482  -3.831  -4.135  0.00  0.00    -0.260 A 
ATOM     29  C   LIG    1       -4.796  -4.584  -5.237  0.00  0.00    +0.080 A 
ATOM     30  C   LIG    1       -4.242  -4.099  -6.399  0.00  0.00    -0.020 A 
ATOM     31  C   LIG    1       -3.495  -2.998  -6.256  0.00  0.00    -0.080 A 
ATOM     32  S   LIG    1       -3.450  -2.496  -4.627  0.00  0.00    +0.300 S 
ENDBRANCH  24  28
ENDBRANCH  19  20
ENDBRANCH  18  19
ENDBRANCH   3  18
TORSDOF 7
