REMARK  Name = ZINCrD0000071Gak.0
REMARK                            x       y       z     vdW  Elec       q    Type
REMARK                         _______ _______ _______ _____ _____    ______ ____
ROOT
ATOM      1  C   LIG    1        3.092  -5.055   4.941  0.00  0.00    -0.170 A 
ATOM      2  C   LIG    1        4.076  -4.238   5.506  0.00  0.00    +0.140 A 
ATOM      3  C   LIG    1        5.111  -4.801   6.218  0.00  0.00    -0.090 A 
ATOM      4  C   LIG    1        5.184  -6.182   6.367  0.00  0.00    +0.170 A 
ATOM      5  C   LIG    1        4.210  -6.998   5.803  0.00  0.00    -0.020 A 
ATOM      6  C   LIG    1        3.170  -6.442   5.093  0.00  0.00    +0.140 A 
ENDROOT
BRANCH   1   7
ATOM      7  C   LIG    1        1.980  -4.455   4.181  0.00  0.00    +0.520 C 
ATOM      8  O   LIG    1        1.129  -5.167   3.686  0.00  0.00    -0.510 OA
BRANCH   7   9
ATOM      9  O   LIG    1        1.907  -3.118   4.035  0.00  0.00    -0.330 OA
BRANCH   9  10
ATOM     10  C   LIG    1        0.785  -2.597   3.275  0.00  0.00    +0.250 C 
BRANCH  10  13
ATOM     11  N   LIG    1       -0.072  -0.389   2.561  0.00  0.00    -0.720 N 
ATOM     12  H   LIG    1       -0.805  -0.850   2.124  0.00  0.00    +0.400 HD
ATOM     13  C   LIG    1        0.870  -1.093   3.219  0.00  0.00    +0.520 C 
ATOM     14  O   LIG    1        1.787  -0.517   3.766  0.00  0.00    -0.510 OA
BRANCH  11  15
ATOM     15  C   LIG    1        0.011   1.072   2.506  0.00  0.00    +0.230 C 
ATOM     16  C   LIG    1       -0.630   1.667   3.762  0.00  0.00    +0.020 C 
BRANCH  15  17
ATOM     17  C   LIG    1       -0.729   1.579   1.267  0.00  0.00    +0.020 C 
BRANCH  17  19
ATOM     18  C   LIG    1       -0.753   1.593  -1.232  0.00  0.00    +0.020 C 
ATOM     19  C   LIG    1       -0.013   1.086   0.008  0.00  0.00    -0.010 C 
ENDBRANCH  17  19
ENDBRANCH  15  17
ENDBRANCH  11  15
ENDBRANCH  10  13
ENDBRANCH   9  10
ENDBRANCH   7   9
ENDBRANCH   1   7
BRANCH   4  20
ATOM     20  O   LIG    1        6.208  -6.734   7.065  0.00  0.00    -0.300 OA
BRANCH  20  21
ATOM     21  C   LIG    1        7.173  -5.837   7.618  0.00  0.00    +0.300 C 
BRANCH  21  22
ATOM     22  C   LIG    1        8.228  -6.625   8.353  0.00  0.00    -0.220 A 
ATOM     23  C   LIG    1        9.386  -7.126   7.863  0.00  0.00    +0.010 A 
ATOM     24  O   LIG    1        9.993  -7.747   8.884  0.00  0.00    +0.100 OA
ATOM     25  N   LIG    1        9.342  -7.672   9.900  0.00  0.00    -0.360 NA
ATOM     26  C   LIG    1        9.893  -7.010   6.448  0.00  0.00    +0.190 C 
ATOM     27  C   LIG    1        8.239  -7.005   9.714  0.00  0.00    +0.040 A 
ATOM     28  C   LIG    1        7.182  -6.703  10.745  0.00  0.00    +0.160 C 
ENDBRANCH  21  22
ENDBRANCH  20  21
ENDBRANCH   4  20
TORSDOF 10
