REMARK  Name = ZINCpk00000ebi3N.0
REMARK                            x       y       z     vdW  Elec       q    Type
REMARK                         _______ _______ _______ _____ _____    ______ ____
ROOT
ATOM      1  C   LIG    1       -2.065  -3.034   0.005  0.00  0.00    +0.550 C 
ATOM      2  O   LIG    1       -3.194  -2.585   0.019  0.00  0.00    -0.490 OA
ENDROOT
BRANCH   1   6
ATOM      3  C   LIG    1        1.040  -6.643  -0.043  0.00  0.00    +0.370 C 
ATOM      4  N   LIG    1       -0.368  -6.238  -0.028  0.00  0.00    -0.360 N 
ATOM      5  N   LIG    1       -0.637  -4.987  -0.019  0.00  0.00    -0.150 NA
ATOM      6  C   LIG    1       -1.852  -4.494  -0.004  0.00  0.00    +0.050 A 
ATOM      7  C   LIG    1       -3.001  -5.415   0.008  0.00  0.00    -0.030 A 
ATOM      8  C   LIG    1       -4.319  -4.974   0.017  0.00  0.00    +0.070 A 
ATOM      9  C   LIG    1       -5.343  -5.899   0.022  0.00  0.00    +0.060 A 
ATOM     10  C   LIG    1       -5.070  -7.260   0.012  0.00  0.00    +0.030 A 
ATOM     11  C   LIG    1       -3.770  -7.718  -0.003  0.00  0.00    +0.090 A 
ATOM     12  C   LIG    1       -2.724  -6.801  -0.008  0.00  0.00    -0.140 A 
ATOM     13  C   LIG    1       -1.310  -7.203  -0.024  0.00  0.00    +0.510 A 
ATOM     14  O   LIG    1       -0.997  -8.379  -0.033  0.00  0.00    -0.490 OA
ENDBRANCH   1   6
BRANCH   1  15
ATOM     15  O   LIG    1       -1.008  -2.199  -0.000  0.00  0.00    -0.310 OA
BRANCH  15  16
ATOM     16  C   LIG    1       -1.293  -0.775   0.010  0.00  0.00    +0.270 C 
BRANCH  16  17
ATOM     17  C   LIG    1        0.002  -0.004   0.002  0.00  0.00    +0.520 C 
ATOM     18  N   LIG    1       -0.016   1.344   0.009  0.00  0.00    -0.720 N 
ATOM     19  H   LIG    1       -0.863   1.817   0.016  0.00  0.00    +0.410 HD
ATOM     20  O   LIG    1        1.060  -0.596  -0.011  0.00  0.00    -0.510 OA
BRANCH  18  21
ATOM     21  C   LIG    1        1.242   2.093   0.001  0.00  0.00    +0.370 C 
BRANCH  21  22
ATOM     22  C   LIG    1        0.947   3.571   0.012  0.00  0.00    -0.210 A 
ATOM     23  C   LIG    1        0.807   4.319   1.108  0.00  0.00    +0.030 A 
ATOM     24  C   LIG    1        0.538   5.656   0.870  0.00  0.00    +0.000 A 
ATOM     25  C   LIG    1        0.460   5.994  -0.418  0.00  0.00    -0.030 A 
ATOM     26  S   LIG    1        0.742   4.574  -1.418  0.00  0.00    +0.120 S 
ENDBRANCH  21  22
ENDBRANCH  18  21
ENDBRANCH  16  17
ENDBRANCH  15  16
ENDBRANCH   1  15
TORSDOF 6
