REMARK  Name = ZINCkj000005hsMa.0
REMARK                            x       y       z     vdW  Elec       q    Type
REMARK                         _______ _______ _______ _____ _____    ______ ____
ROOT
ATOM      1  C   LIG    1        4.855   1.221   0.200  0.00  0.00    +0.130 C 
ATOM      2  C   LIG    1        4.834   0.509   1.556  0.00  0.00    +0.040 C 
ATOM      3  C   LIG    1        6.208  -0.118   1.813  0.00  0.00    +0.070 C 
ATOM      4  C   LIG    1        7.280   0.972   1.746  0.00  0.00    +0.250 C 
ATOM      5  N   LIG    1        7.266   1.596   0.418  0.00  0.00    -0.380 N 
ATOM      6  H   LIG    1        7.406   0.888  -0.287  0.00  0.00    +0.420 HD
ATOM      7  C   LIG    1        5.977   2.261   0.194  0.00  0.00    +0.260 C 
ENDROOT
BRANCH   1   8
ATOM      8  N   LIG    1        3.565   1.890  -0.022  0.00  0.00    -0.510 NA
ATOM      9  C   LIG    1        3.581   2.662  -1.271  0.00  0.00    +0.200 C 
BRANCH   8  10
ATOM     10  C   LIG    1        2.462   0.920  -0.017  0.00  0.00    +0.210 C 
BRANCH  10  14
ATOM     11  C   LIG    1       -1.290   1.681   0.017  0.00  0.00    +0.280 C 
ATOM     12  N   LIG    1       -0.011   0.966   0.007  0.00  0.00    -0.730 N 
ATOM     13  H   LIG    1        0.002  -0.004   0.002  0.00  0.00    +0.400 HD
ATOM     14  C   LIG    1        1.147   1.655   0.000  0.00  0.00    +0.510 C 
ATOM     15  O   LIG    1        1.130   2.868   0.007  0.00  0.00    -0.520 OA
ENDBRANCH  10  14
ENDBRANCH   8  10
ENDBRANCH   1   8
BRANCH   5  16
ATOM     16  C   LIG    1        8.347   2.588   0.334  0.00  0.00    +0.330 C 
BRANCH  16  17
ATOM     17  C   LIG    1        9.678   1.890   0.433  0.00  0.00    -0.160 A 
ATOM     18  C   LIG    1       10.269   1.700   1.669  0.00  0.00    +0.030 A 
ATOM     19  C   LIG    1       11.489   1.057   1.760  0.00  0.00    +0.030 A 
ATOM     20  C   LIG    1       12.122   0.610   0.615  0.00  0.00    +0.060 A 
ATOM     21  C   LIG    1       11.534   0.804  -0.621  0.00  0.00    +0.030 A 
ATOM     22  C   LIG    1       10.312   1.444  -0.712  0.00  0.00    +0.040 A 
ENDBRANCH  16  17
ENDBRANCH   5  16
TORSDOF 5
