REMARK  Name = ZINCkj000005hsMa.1
REMARK                            x       y       z     vdW  Elec       q    Type
REMARK                         _______ _______ _______ _____ _____    ______ ____
ROOT
ATOM      1  C   LIG    1       -0.822   3.023   1.213  0.00  0.00    +0.130 C 
ATOM      2  C   LIG    1       -1.633   3.472   2.433  0.00  0.00    +0.050 C 
ATOM      3  C   LIG    1       -1.821   4.991   2.378  0.00  0.00    +0.060 C 
ATOM      4  C   LIG    1       -2.500   5.368   1.060  0.00  0.00    +0.250 C 
ATOM      5  N   LIG    1       -1.664   4.936  -0.067  0.00  0.00    -0.380 N 
ATOM      6  H   LIG    1       -2.088   5.233  -0.933  0.00  0.00    +0.430 HD
ATOM      7  C   LIG    1       -1.538   3.474  -0.062  0.00  0.00    +0.260 C 
ENDROOT
BRANCH   1   8
ATOM      8  N   LIG    1       -0.700   1.560   1.217  0.00  0.00    -0.510 NA
ATOM      9  C   LIG    1       -0.013   1.086   0.008  0.00  0.00    +0.200 C 
BRANCH   8  10
ATOM     10  C   LIG    1       -0.016   1.091   2.429  0.00  0.00    +0.210 C 
BRANCH  10  14
ATOM     11  C   LIG    1        0.327  -2.523   3.645  0.00  0.00    +0.280 C 
ATOM     12  N   LIG    1        0.432  -1.064   3.557  0.00  0.00    -0.730 N 
ATOM     13  H   LIG    1        0.904  -0.570   4.246  0.00  0.00    +0.400 HD
ATOM     14  C   LIG    1       -0.125  -0.409   2.520  0.00  0.00    +0.510 C 
ATOM     15  O   LIG    1       -0.715  -1.027   1.659  0.00  0.00    -0.520 OA
ENDBRANCH  10  14
ENDBRANCH   8  10
ENDBRANCH   1   8
BRANCH   5  16
ATOM     16  C   LIG    1       -0.331   5.541   0.057  0.00  0.00    +0.300 C 
BRANCH  16  17
ATOM     17  C   LIG    1       -0.444   7.038  -0.071  0.00  0.00    -0.160 A 
ATOM     18  C   LIG    1       -0.340   7.636  -1.313  0.00  0.00    +0.040 A 
ATOM     19  C   LIG    1       -0.450   9.008  -1.431  0.00  0.00    +0.030 A 
ATOM     20  C   LIG    1       -0.653   9.785  -0.306  0.00  0.00    +0.060 A 
ATOM     21  C   LIG    1       -0.751   9.188   0.937  0.00  0.00    +0.030 A 
ATOM     22  C   LIG    1       -0.647   7.814   1.054  0.00  0.00    +0.030 A 
ENDBRANCH  16  17
ENDBRANCH   5  16
TORSDOF 5
