REMARK  Name = ZINCqH0000005Ygj.0
REMARK                            x       y       z     vdW  Elec       q    Type
REMARK                         _______ _______ _______ _____ _____    ______ ____
ROOT
ATOM      1  O   LIG    1        1.161   3.448   0.009  0.00  0.00    -0.290 OA
ENDROOT
BRANCH   1   5
ATOM      2  C   LIG    1        1.224  -0.683  -0.013  0.00  0.00    -0.130 A 
ATOM      3  C   LIG    1        2.421   0.038  -0.021  0.00  0.00    +0.100 A 
ATOM      4  C   LIG    1        2.395   1.416  -0.013  0.00  0.00    -0.040 A 
ATOM      5  C   LIG    1        1.181   2.090   0.002  0.00  0.00    +0.140 A 
ATOM      6  C   LIG    1       -0.017   1.377   0.010  0.00  0.00    +0.090 A 
ATOM      7  C   LIG    1        0.002  -0.004   0.002  0.00  0.00    +0.040 A 
BRANCH   2   8
ATOM      8  C   LIG    1        1.250  -2.158  -0.021  0.00  0.00    +0.510 C 
ATOM      9  O   LIG    1        0.209  -2.784  -0.014  0.00  0.00    -0.510 OA
BRANCH   8  11
ATOM     10  C   LIG    1        2.378  -4.262  -0.043  0.00  0.00    +0.290 C 
ATOM     11  O   LIG    1        2.429  -2.811  -0.036  0.00  0.00    -0.350 OA
ENDBRANCH   8  11
ENDBRANCH   2   8
BRANCH   6  12
ATOM     12  O   LIG    1       -1.204   2.041   0.019  0.00  0.00    -0.300 OA
ATOM     13  C   LIG    1       -2.391   1.246   0.020  0.00  0.00    +0.250 C 
ENDBRANCH   6  12
ENDBRANCH   1   5
BRANCH   1  14
ATOM     14  C   LIG    1        2.425   4.116   0.001  0.00  0.00    +0.350 C 
BRANCH  14  15
ATOM     15  C   LIG    1        2.205   5.606   0.010  0.00  0.00    +0.170 A 
ATOM     16  N   LIG    1        2.089   6.372  -1.034  0.00  0.00    -0.350 NA
ATOM     17  O   LIG    1        1.917   7.525  -0.699  0.00  0.00    +0.100 OA
ATOM     18  C   LIG    1        1.916   7.611   0.640  0.00  0.00    +0.230 A 
ATOM     19  N   LIG    1        2.100   6.385   1.098  0.00  0.00    -0.460 NA
BRANCH  18  20
ATOM     20  C   LIG    1        1.743   8.837   1.446  0.00  0.00    -0.030 A 
ATOM     21  C   LIG    1        1.760   8.768   2.840  0.00  0.00    +0.100 A 
ATOM     22  C   LIG    1        1.603   9.917   3.587  0.00  0.00    +0.040 A 
ATOM     23  C   LIG    1        1.418  11.136   2.956  0.00  0.00    -0.010 A 
ATOM     24  C   LIG    1        1.396  11.210   1.573  0.00  0.00    +0.040 A 
ATOM     25 CL   LIG    1        1.214  12.577   3.903  0.00  0.00    -0.050 Cl
ATOM     26  C   LIG    1        1.557  10.069   0.816  0.00  0.00    +0.090 A 
ENDBRANCH  18  20
ENDBRANCH  14  15
ENDBRANCH   1  14
TORSDOF 7
