REMARK  Name = ZINCqH0000008876.0
REMARK                            x       y       z     vdW  Elec       q    Type
REMARK                         _______ _______ _______ _____ _____    ______ ____
ROOT
ATOM      1  C   LIG    1       -4.781  -0.116   0.117  0.00  0.00    +0.510 C 
ATOM      2  N   LIG    1       -3.605  -0.764   0.006  0.00  0.00    -0.670 N 
ATOM      3  H   LIG    1       -3.589  -1.731  -0.070  0.00  0.00    +0.410 HD
ATOM      4  O   LIG    1       -4.806   1.097   0.127  0.00  0.00    -0.520 OA
ENDROOT
BRANCH   2   5
ATOM      5  C   LIG    1       -2.404  -0.042   0.001  0.00  0.00    +0.110 A 
ATOM      6  C   LIG    1       -2.346   1.210  -0.597  0.00  0.00    +0.050 A 
ATOM      7  C   LIG    1       -1.162   1.914  -0.603  0.00  0.00    -0.010 A 
ATOM      8  C   LIG    1       -0.018   1.381  -0.007  0.00  0.00    +0.120 A 
ATOM      9  C   LIG    1       -0.079   0.135   0.592  0.00  0.00    -0.110 A 
ATOM     10  C   LIG    1        1.121  -0.491   1.258  0.00  0.00    +0.070 C 
ATOM     11  C   LIG    1        2.392   0.241   0.823  0.00  0.00    +0.040 C 
ATOM     12  C   LIG    1        2.137   1.748   0.953  0.00  0.00    +0.190 C 
ATOM     13  N   LIG    1        1.151   2.145  -0.054  0.00  0.00    -0.500 N 
ATOM     14  C   LIG    1        0.847   3.579   0.044  0.00  0.00    +0.220 C 
ATOM     15  C   LIG    1       -1.269  -0.574   0.593  0.00  0.00    +0.000 A 
ENDBRANCH   2   5
BRANCH   1  16
ATOM     16  C   LIG    1       -6.065  -0.897   0.227  0.00  0.00    +0.060 C 
BRANCH  16  17
ATOM     17  C   LIG    1       -7.244   0.072   0.340  0.00  0.00    +0.120 C 
BRANCH  17  21
ATOM     18  C   LIG    1      -10.809  -2.097   0.648  0.00  0.00    +0.300 A 
ATOM     19  N   LIG    1      -10.153  -1.770   1.752  0.00  0.00    -0.510 NA
ATOM     20  C   LIG    1       -9.023  -1.085   1.690  0.00  0.00    +0.200 A 
ATOM     21  C   LIG    1       -8.527  -0.710   0.451  0.00  0.00    -0.200 A 
ATOM     22  C   LIG    1       -9.241  -1.064  -0.684  0.00  0.00    +0.200 A 
ATOM     23  C   LIG    1       -8.742  -0.673  -2.051  0.00  0.00    +0.150 C 
ATOM     24  C   LIG    1       -8.284  -0.717   2.950  0.00  0.00    +0.150 C 
ATOM     25  N   LIG    1      -10.361  -1.754  -0.552  0.00  0.00    -0.530 NA
BRANCH  18  27
ATOM     26  C   LIG    1      -12.738  -3.161  -0.975  0.00  0.00    +0.150 C 
ATOM     27  S   LIG    1      -12.310  -3.011   0.777  0.00  0.00    +0.000 S 
ENDBRANCH  18  27
ENDBRANCH  17  21
ENDBRANCH  16  17
ENDBRANCH   1  16
TORSDOF 5
