REMARK  Name = ZINCvU00000005LC.0
REMARK                            x       y       z     vdW  Elec       q    Type
REMARK                         _______ _______ _______ _____ _____    ______ ____
ROOT
ATOM      1  C   LIG    1       -3.080   9.617  -0.369  0.00  0.00    +0.140 A 
ATOM      2  N   LIG    1       -1.951  10.287  -0.370  0.00  0.00    -0.290 NA
ATOM      3  N   LIG    1       -2.190  11.547  -0.464  0.00  0.00    -0.270 NA
ATOM      4  C   LIG    1       -3.475  11.754  -0.527  0.00  0.00    +0.190 A 
ATOM      5  N   LIG    1       -4.088  10.532  -0.475  0.00  0.00    -0.450 N 
ENDROOT
BRANCH   5   6
ATOM      6  C   LIG    1       -5.527  10.262  -0.520  0.00  0.00    +0.240 C 
ATOM      7  C   LIG    1       -5.952   9.545   0.763  0.00  0.00    +0.010 C 
ATOM      8  C   LIG    1       -7.455   9.262   0.716  0.00  0.00    +0.030 C 
ATOM      9  C   LIG    1       -7.769   8.377  -0.492  0.00  0.00    +0.010 C 
ATOM     10  C   LIG    1       -7.344   9.094  -1.775  0.00  0.00    +0.030 C 
ATOM     11  C   LIG    1       -5.841   9.376  -1.728  0.00  0.00    +0.020 C 
ENDBRANCH   5   6
BRANCH   1  12
ATOM     12  S   LIG    1       -3.260   7.868  -0.259  0.00  0.00    +0.090 S 
BRANCH  12  13
ATOM     13  C   LIG    1       -1.520   7.379  -0.158  0.00  0.00    +0.100 C 
BRANCH  13  15
ATOM     14  O   LIG    1       -2.436   5.206  -0.049  0.00  0.00    -0.500 OA
ATOM     15  C   LIG    1       -1.426   5.878  -0.054  0.00  0.00    +0.540 C 
ATOM     16  N   LIG    1       -0.220   5.283   0.033  0.00  0.00    -0.650 N 
ATOM     17  H   LIG    1        0.583   5.823   0.110  0.00  0.00    +0.420 HD
BRANCH  16  18
ATOM     18  C   LIG    1       -0.125   3.890   0.013  0.00  0.00    +0.190 A 
ATOM     19  C   LIG    1       -1.101   3.147  -0.581  0.00  0.00    +0.040 A 
ATOM     20  C   LIG    1       -1.033   1.756  -0.622  0.00  0.00    +0.070 A 
ATOM     21  C   LIG    1       -0.001   1.077  -0.064  0.00  0.00    +0.050 A 
ATOM     22  C   LIG    1        1.053   1.783   0.572  0.00  0.00    +0.100 A 
ATOM     23  N   LIG    1        2.149   1.350   1.173  0.00  0.00    -0.590 NA
ATOM     24  S   LIG    1        2.964   2.565   1.700  0.00  0.00    +0.810 S 
ATOM     25  N   LIG    1        2.046   3.733   1.240  0.00  0.00    -0.600 NA
ATOM     26  C   LIG    1        0.990   3.241   0.613  0.00  0.00    +0.060 A 
ENDBRANCH  16  18
ENDBRANCH  13  15
ENDBRANCH  12  13
ENDBRANCH   1  12
BRANCH   4  27
ATOM     27  C   LIG    1       -4.159  13.092  -0.643  0.00  0.00    +0.250 C 
BRANCH  27  28
ATOM     28  C   LIG    1       -4.332  13.443  -2.098  0.00  0.00    -0.190 A 
ATOM     29  C   LIG    1       -5.388  13.122  -2.847  0.00  0.00    +0.010 A 
ATOM     30  C   LIG    1       -5.325  13.556  -4.160  0.00  0.00    +0.000 A 
ATOM     31  C   LIG    1       -4.215  14.222  -4.480  0.00  0.00    -0.040 A 
ATOM     32  S   LIG    1       -3.168  14.334  -3.071  0.00  0.00    +0.130 S 
ENDBRANCH  27  28
ENDBRANCH   4  27
TORSDOF 7
