REMARK  Name = ZINCrD0000074yP8.0
REMARK                            x       y       z     vdW  Elec       q    Type
REMARK                         _______ _______ _______ _____ _____    ______ ____
ROOT
ATOM      1  C   LIG    1        3.900   3.927  -0.124  0.00  0.00    +0.240 C 
ENDROOT
BRANCH   1   7
ATOM      2  C   LIG    1       -2.425   1.853  -0.265  0.00  0.00    +0.120 C 
ATOM      3  C   LIG    1       -1.110   2.588  -0.237  0.00  0.00    -0.020 A 
ATOM      4  C   LIG    1       -1.098   3.967  -0.254  0.00  0.00    +0.020 A 
ATOM      5  C   LIG    1        0.110   4.652  -0.235  0.00  0.00    +0.160 A 
ATOM      6  C   LIG    1        1.314   3.928  -0.191  0.00  0.00    -0.140 A 
ATOM      7  C   LIG    1        2.584   4.660  -0.171  0.00  0.00    +0.040 A 
ATOM      8  C   LIG    1        2.542   6.016  -0.196  0.00  0.00    -0.080 A 
ATOM      9  C   LIG    1        1.296   6.679  -0.239  0.00  0.00    +0.510 A 
ATOM     10  O   LIG    1        1.272   7.896  -0.261  0.00  0.00    -0.460 OA
ATOM     11  C   LIG    1        1.288   2.530  -0.168  0.00  0.00    +0.120 A 
ATOM     12  O   LIG    1        0.138   6.002  -0.258  0.00  0.00    -0.270 OA
ATOM     13  C   LIG    1        0.079   1.871  -0.188  0.00  0.00    -0.060 A 
ATOM     14 CL   LIG    1        0.039   0.136  -0.160  0.00  0.00    -0.050 Cl
ENDBRANCH   1   7
BRANCH   1  15
ATOM     15  N   LIG    1        4.233   3.608   1.271  0.00  0.00    -0.530 NA
ATOM     16  C   LIG    1        4.478   4.831   2.047  0.00  0.00    +0.170 C 
ATOM     17  C   LIG    1        4.642   4.469   3.527  0.00  0.00    +0.300 C 
ATOM     18  N   LIG    1        5.686   3.439   3.643  0.00  0.00    -0.610 N 
ATOM     19  C   LIG    1        5.581   2.243   2.793  0.00  0.00    +0.300 C 
ATOM     20  C   LIG    1        6.711   3.587   4.505  0.00  0.00    +0.610 C 
ATOM     21  O   LIG    1        7.529   2.696   4.636  0.00  0.00    -0.520 OA
ATOM     22  C   LIG    1        5.380   2.693   1.342  0.00  0.00    +0.190 C 
BRANCH  20  23
ATOM     23  C   LIG    1        6.840   4.822   5.286  0.00  0.00    -0.090 A 
ATOM     24  C   LIG    1        7.892   5.158   6.088  0.00  0.00    +0.050 A 
ATOM     25  C   LIG    1        7.598   6.417   6.634  0.00  0.00    -0.060 A 
ATOM     26  C   LIG    1        6.390   6.787   6.153  0.00  0.00    +0.200 A 
ATOM     27  O   LIG    1        5.937   5.823   5.341  0.00  0.00    -0.160 OA
ENDBRANCH  20  23
ENDBRANCH   1  15
TORSDOF 3
