REMARK  Name = ZINCvU0000000HBR.0
REMARK                            x       y       z     vdW  Elec       q    Type
REMARK                         _______ _______ _______ _____ _____    ______ ____
ROOT
ATOM      1  C   LIG    1        4.729   1.617   0.505  0.00  0.00    +0.200 A 
ATOM      2  N   LIG    1        3.539   2.124   0.752  0.00  0.00    -0.440 NA
ATOM      3  C   LIG    1        2.472   1.358   0.985  0.00  0.00    +0.130 A 
ATOM      4  C   LIG    1        1.213   1.929   1.248  0.00  0.00    +0.050 A 
ATOM      5  C   LIG    1        0.142   1.121   1.482  0.00  0.00    +0.050 A 
ATOM      6  C   LIG    1        0.269  -0.265   1.465  0.00  0.00    +0.030 A 
ATOM      7  C   LIG    1        1.474  -0.853   1.214  0.00  0.00    +0.060 A 
ATOM      8  C   LIG    1        2.595  -0.054   0.969  0.00  0.00    -0.060 A 
ATOM      9  C   LIG    1        3.908  -0.641   0.696  0.00  0.00    -0.070 A 
ATOM     10  C   LIG    1        4.961   0.233   0.466  0.00  0.00    +0.020 A 
ENDROOT
BRANCH   1  15
ATOM     11  C   LIG    1        9.132   5.201  -0.456  0.00  0.00    +0.090 C 
ATOM     12  C   LIG    1        7.979   4.263  -0.204  0.00  0.00    -0.060 A 
ATOM     13  C   LIG    1        8.209   2.903  -0.098  0.00  0.00    +0.000 A 
ATOM     14  C   LIG    1        7.158   2.040   0.138  0.00  0.00    +0.030 A 
ATOM     15  C   LIG    1        5.862   2.540   0.257  0.00  0.00    -0.070 A 
ATOM     16  C   LIG    1        5.637   3.911   0.148  0.00  0.00    -0.030 A 
ATOM     17  C   LIG    1        4.240   4.460   0.281  0.00  0.00    +0.100 C 
ATOM     18  C   LIG    1        6.696   4.765  -0.082  0.00  0.00    +0.000 A 
ENDBRANCH   1  15
BRANCH   9  19
ATOM     19  C   LIG    1        4.104  -2.106   0.665  0.00  0.00    +0.570 C 
ATOM     20  N   LIG    1        5.295  -2.619   0.300  0.00  0.00    -0.610 N 
ATOM     21  H   LIG    1        6.024  -2.027   0.058  0.00  0.00    +0.430 HD
ATOM     22  O   LIG    1        3.190  -2.848   0.969  0.00  0.00    -0.440 OA
BRANCH  20  23
ATOM     23  C   LIG    1        5.479  -3.991   0.271  0.00  0.00    +0.390 A 
ATOM     24  N   LIG    1        4.585  -4.899   0.578  0.00  0.00    -0.250 NA
ATOM     25  N   LIG    1        5.096  -6.071   0.436  0.00  0.00    -0.230 NA
ATOM     26  C   LIG    1        6.344  -5.956   0.040  0.00  0.00    +0.240 A 
ATOM     27  O   LIG    1        6.611  -4.636  -0.072  0.00  0.00    -0.230 OA
BRANCH  26  28
ATOM     28  C   LIG    1        7.277  -7.059  -0.230  0.00  0.00    +0.030 A 
ATOM     29  C   LIG    1        7.000  -8.389  -0.115  0.00  0.00    +0.060 A 
ATOM     30  C   LIG    1        8.174  -9.079  -0.470  0.00  0.00    -0.060 A 
ATOM     31  C   LIG    1        9.101  -8.151  -0.782  0.00  0.00    +0.220 A 
ATOM     32  O   LIG    1        8.555  -6.932  -0.641  0.00  0.00    -0.170 OA
ENDBRANCH  26  28
ENDBRANCH  20  23
ENDBRANCH   9  19
TORSDOF 4
