REMARK  Name = ZINCrg00000SjSDW.0
REMARK                            x       y       z     vdW  Elec       q    Type
REMARK                         _______ _______ _______ _____ _____    ______ ____
ROOT
ATOM      1  N   LIG    1        1.685   3.111   0.878  0.00  0.00    -0.600 N 
ATOM      2  C   LIG    1        1.375   3.028   2.187  0.00  0.00    +0.510 C 
ATOM      3  O   LIG    1        0.916   2.000   2.637  0.00  0.00    -0.530 OA
ENDROOT
BRANCH   1   4
ATOM      4  C   LIG    1        1.468   1.960  -0.001  0.00  0.00    +0.260 C 
ATOM      5  C   LIG    1       -0.019   1.536   0.011  0.00  0.00    +0.010 C 
ATOM      6  C   LIG    1        0.002  -0.004   0.002  0.00  0.00    +0.170 C 
ATOM      7  N   LIG    1        1.421  -0.418  -0.044  0.00  0.00    -0.500 NA
ATOM      8  C   LIG    1        2.191   0.705   0.550  0.00  0.00    +0.180 C 
BRANCH   7   9
ATOM      9  C   LIG    1        1.632  -1.659   0.714  0.00  0.00    +0.120 C 
ATOM     10  C   LIG    1        0.773  -2.804   0.127  0.00  0.00    +0.060 C 
ATOM     11  C   LIG    1        1.766  -3.474  -0.848  0.00  0.00    +0.270 C 
ATOM     12  N   LIG    1        3.101  -3.163  -0.324  0.00  0.00    -0.620 N 
ATOM     13  C   LIG    1        4.325  -3.871  -0.705  0.00  0.00    +0.300 C 
ATOM     14  C   LIG    1        3.056  -2.143   0.551  0.00  0.00    +0.530 C 
ATOM     15  O   LIG    1        4.018  -1.678   1.126  0.00  0.00    -0.530 OA
ENDBRANCH   7   9
ENDBRANCH   1   4
BRANCH   1  16
ATOM     16  C   LIG    1        2.240   4.353   0.334  0.00  0.00    +0.270 C 
BRANCH  16  18
ATOM     17  C   LIG    1        1.680   6.553  -0.709  0.00  0.00    +0.030 C 
ATOM     18  C   LIG    1        1.100   5.256  -0.141  0.00  0.00    -0.010 C 
ENDBRANCH  16  18
ENDBRANCH   1  16
BRANCH   2  19
ATOM     19  C   LIG    1        1.599   4.212   3.091  0.00  0.00    +0.300 C 
BRANCH  19  20
ATOM     20  N   LIG    1        1.186   3.871   4.454  0.00  0.00    -0.720 N 
ATOM     21  H   LIG    1        0.834   2.988   4.647  0.00  0.00    +0.410 HD
ATOM     22  C   LIG    1        1.297   4.783   5.440  0.00  0.00    +0.520 C 
ATOM     23  O   LIG    1        1.738   5.887   5.199  0.00  0.00    -0.530 OA
BRANCH  22  24
ATOM     24  C   LIG    1        0.872   4.432   6.843  0.00  0.00    +0.050 C 
BRANCH  24  25
ATOM     25  C   LIG    1        1.099   5.634   7.761  0.00  0.00    -0.050 C 
ATOM     26  C   LIG    1        2.583   6.007   7.756  0.00  0.00    +0.030 C 
ATOM     27  C   LIG    1        0.668   5.277   9.185  0.00  0.00    +0.020 C 
ATOM     28  C   LIG    1        0.274   6.821   7.261  0.00  0.00    +0.030 C 
ENDBRANCH  24  25
ENDBRANCH  22  24
ENDBRANCH  19  20
ENDBRANCH   2  19
TORSDOF 8
