REMARK  Name = ZINCvU00000004tu.0
REMARK                            x       y       z     vdW  Elec       q    Type
REMARK                         _______ _______ _______ _____ _____    ______ ____
ROOT
ATOM      1  N   LIG    1        4.193  -2.002  -4.459  0.00  0.00    -0.730 N 
ATOM      2  H   LIG    1        4.837  -1.941  -3.736  0.00  0.00    +0.400 HD
ATOM      3  C   LIG    1        4.322  -2.959  -5.398  0.00  0.00    +0.510 C 
ATOM      4  O   LIG    1        3.517  -3.035  -6.302  0.00  0.00    -0.540 OA
ENDROOT
BRANCH   1   5
ATOM      5  C   LIG    1        3.079  -1.052  -4.529  0.00  0.00    +0.350 C 
BRANCH   5  12
ATOM      6  C   LIG    1        4.622   1.716  -4.511  0.00  0.00    +0.150 C 
ATOM      7  C   LIG    1        3.844   1.129  -3.361  0.00  0.00    +0.090 A 
ATOM      8  N   LIG    1        3.689   1.675  -2.182  0.00  0.00    -0.290 NA
ATOM      9  N   LIG    1        2.903   0.817  -1.403  0.00  0.00    -0.360 N 
ATOM     10  C   LIG    1        2.599  -0.263  -2.152  0.00  0.00    +0.110 A 
ATOM     11  C   LIG    1        1.774  -1.446  -1.713  0.00  0.00    +0.140 C 
ATOM     12  C   LIG    1        3.163  -0.093  -3.370  0.00  0.00    -0.270 A 
BRANCH   9  13
ATOM     13  C   LIG    1        2.490   1.048  -0.016  0.00  0.00    +0.380 C 
BRANCH  13  14
ATOM     14  C   LIG    1        1.175   1.783   0.000  0.00  0.00    -0.120 A 
ATOM     15  C   LIG    1       -0.013   1.076   0.008  0.00  0.00    +0.020 A 
ATOM     16  C   LIG    1       -1.219   1.751   0.017  0.00  0.00    +0.010 A 
ATOM     17  C   LIG    1       -1.238   3.133   0.030  0.00  0.00    +0.010 A 
ATOM     18  C   LIG    1       -0.050   3.840   0.022  0.00  0.00    +0.010 A 
ATOM     19  C   LIG    1        1.156   3.165   0.008  0.00  0.00    +0.030 A 
ENDBRANCH  13  14
ENDBRANCH   9  13
ENDBRANCH   5  12
ENDBRANCH   1   5
BRANCH   3  20
ATOM     20  C   LIG    1        5.468  -3.936  -5.326  0.00  0.00    +0.060 C 
BRANCH  20  21
ATOM     21  C   LIG    1        5.382  -4.910  -6.503  0.00  0.00    +0.170 C 
BRANCH  21  22
ATOM     22  C   LIG    1        6.528  -5.887  -6.430  0.00  0.00    -0.000 A 
ATOM     23  C   LIG    1        6.511  -7.071  -5.788  0.00  0.00    -0.050 A 
ATOM     24  C   LIG    1        7.779  -7.659  -5.973  0.00  0.00    -0.040 A 
ATOM     25  C   LIG    1        8.507  -6.791  -6.725  0.00  0.00    +0.020 A 
ATOM     26  O   LIG    1        7.733  -5.723  -7.000  0.00  0.00    -0.170 OA
BRANCH  25  27
ATOM     27  C   LIG    1        9.902  -6.988  -7.169  0.00  0.00    -0.020 A 
ATOM     28  C   LIG    1       10.594  -8.147  -6.813  0.00  0.00    +0.030 A 
ATOM     29  C   LIG    1       11.895  -8.328  -7.236  0.00  0.00    +0.010 A 
ATOM     30  C   LIG    1       12.517  -7.358  -8.002  0.00  0.00    +0.020 A 
ATOM     31  C   LIG    1       11.839  -6.204  -8.353  0.00  0.00    +0.010 A 
ATOM     32  C   LIG    1       10.536  -6.014  -7.941  0.00  0.00    +0.030 A 
ENDBRANCH  25  27
ENDBRANCH  21  22
ENDBRANCH  20  21
ENDBRANCH   3  20
TORSDOF 8
