REMARK  Name = ZINCrD000000AlaI.0
REMARK                            x       y       z     vdW  Elec       q    Type
REMARK                         _______ _______ _______ _____ _____    ______ ____
ROOT
ATOM      1  N   LIG    1       -0.681   1.562   1.220  0.00  0.00    -0.520 NA
ATOM      2  C   LIG    1       -0.598   3.024   1.335  0.00  0.00    +0.180 C 
ATOM      3  C   LIG    1       -1.451   3.494   2.516  0.00  0.00    +0.050 C 
ATOM      4  C   LIG    1       -0.944   2.832   3.800  0.00  0.00    -0.010 C 
ATOM      5  C   LIG    1       -0.996   1.311   3.637  0.00  0.00    +0.060 C 
ATOM      6  C   LIG    1       -0.156   0.904   2.424  0.00  0.00    +0.180 C 
ENDROOT
BRANCH   4   7
ATOM      7  C   LIG    1       -1.816   3.244   4.958  0.00  0.00    +0.520 C 
ATOM      8  N   LIG    1       -1.925   4.546   5.291  0.00  0.00    -0.670 N 
ATOM      9  H   LIG    1       -1.391   5.210   4.829  0.00  0.00    +0.410 HD
ATOM     10  O   LIG    1       -2.421   2.404   5.591  0.00  0.00    -0.520 OA
BRANCH   8  11
ATOM     11  C   LIG    1       -2.809   4.938   6.302  0.00  0.00    +0.140 A 
ATOM     12  C   LIG    1       -3.478   6.151   6.209  0.00  0.00    -0.030 A 
ATOM     13  C   LIG    1       -4.354   6.533   7.207  0.00  0.00    +0.030 A 
ATOM     14  C   LIG    1       -4.555   5.714   8.303  0.00  0.00    -0.010 A 
ATOM     15  C   LIG    1       -3.886   4.508   8.401  0.00  0.00    +0.030 A 
ATOM     16  C   LIG    1       -3.013   4.118   7.404  0.00  0.00    +0.020 A 
ENDBRANCH   8  11
ENDBRANCH   4   7
BRANCH   1  17
ATOM     17  C   LIG    1        0.013   1.088   0.016  0.00  0.00    +0.220 C 
BRANCH  17  19
ATOM     18  O   LIG    1       -1.700   2.277  -1.090  0.00  0.00    -0.520 OA
ATOM     19  C   LIG    1       -0.706   1.591  -1.209  0.00  0.00    +0.510 C 
ATOM     20  N   LIG    1       -0.246   1.279  -2.437  0.00  0.00    -0.730 N 
ATOM     21  H   LIG    1        0.548   0.731  -2.532  0.00  0.00    +0.400 HD
BRANCH  20  22
ATOM     22  C   LIG    1       -0.945   1.768  -3.628  0.00  0.00    +0.320 C 
BRANCH  22  23
ATOM     23  C   LIG    1       -0.233   1.282  -4.864  0.00  0.00    -0.110 A 
ATOM     24  C   LIG    1        0.770   2.047  -5.429  0.00  0.00    +0.040 A 
ATOM     25  C   LIG    1        1.427   1.599  -6.559  0.00  0.00    +0.030 A 
ATOM     26  C   LIG    1        1.073   0.391  -7.132  0.00  0.00    -0.030 A 
ATOM     27  C   LIG    1        0.065  -0.372  -6.569  0.00  0.00    +0.030 A 
ATOM     28 CL   LIG    1        1.892  -0.168  -8.557  0.00  0.00    -0.060 Cl
ATOM     29  C   LIG    1       -0.587   0.074  -5.435  0.00  0.00    +0.050 A 
ENDBRANCH  22  23
ENDBRANCH  20  22
ENDBRANCH  17  19
ENDBRANCH   1  17
TORSDOF 6
