REMARK  Name = ZINCrD00000laLAi.0
REMARK                            x       y       z     vdW  Elec       q    Type
REMARK                         _______ _______ _______ _____ _____    ______ ____
ROOT
ATOM      1  C   LIG    1       -2.637  -3.103   0.760  0.00  0.00    +0.200 A 
ATOM      2  N   LIG    1       -3.727  -2.593   0.241  0.00  0.00    -0.310 NA
ATOM      3  N   LIG    1       -4.794  -3.448   0.547  0.00  0.00    -0.320 NA
ATOM      4  C   LIG    1       -4.324  -4.449   1.250  0.00  0.00    +0.410 A 
ATOM      5  N   LIG    1       -2.977  -4.263   1.401  0.00  0.00    -0.430 N 
ENDROOT
BRANCH   4   6
ATOM      6  N   LIG    1       -5.064  -5.512   1.752  0.00  0.00    -0.460 N 
ATOM      7  C   LIG    1       -5.713  -6.260   0.668  0.00  0.00    +0.210 C 
ATOM      8  C   LIG    1       -6.396  -7.503   1.243  0.00  0.00    +0.030 C 
ATOM      9  C   LIG    1       -7.433  -7.075   2.285  0.00  0.00    +0.010 C 
ATOM     10  C   LIG    1       -6.739  -6.257   3.377  0.00  0.00    +0.030 C 
ATOM     11  C   LIG    1       -6.046  -5.050   2.741  0.00  0.00    +0.200 C 
ENDBRANCH   4   6
BRANCH   5  12
ATOM     12  C   LIG    1       -2.099  -5.113   2.091  0.00  0.00    +0.110 A 
ATOM     13  C   LIG    1       -1.849  -6.391   1.613  0.00  0.00    +0.040 A 
ATOM     14  C   LIG    1       -0.980  -7.224   2.292  0.00  0.00    +0.020 A 
ATOM     15  C   LIG    1       -0.369  -6.788   3.453  0.00  0.00    +0.030 A 
ATOM     16  C   LIG    1       -0.621  -5.517   3.935  0.00  0.00    +0.020 A 
ATOM     17  C   LIG    1       -1.484  -4.678   3.257  0.00  0.00    +0.030 A 
ENDBRANCH   5  12
BRANCH   1  18
ATOM     18  S   LIG    1       -1.019  -2.412   0.657  0.00  0.00    +0.080 S 
BRANCH  18  20
ATOM     19  C   LIG    1       -1.734  -1.278  -1.728  0.00  0.00    +0.090 C 
ATOM     20  C   LIG    1       -1.281  -0.903  -0.316  0.00  0.00    +0.010 C 
BRANCH  20  21
ATOM     21  C   LIG    1        0.006  -0.123  -0.391  0.00  0.00    +0.550 C 
ATOM     22  N   LIG    1       -0.023   1.208  -0.596  0.00  0.00    -0.610 N 
ATOM     23  C   LIG    1       -1.235   2.022  -0.769  0.00  0.00    +0.230 C 
ATOM     24  C   LIG    1       -0.780   3.479  -0.999  0.00  0.00    +0.040 C 
ATOM     25  C   LIG    1        0.673   3.309  -1.515  0.00  0.00    +0.040 C 
ATOM     26  C   LIG    1        1.155   2.089  -0.690  0.00  0.00    +0.250 C 
ATOM     27  O   LIG    1        1.069  -0.695  -0.267  0.00  0.00    -0.520 OA
ENDBRANCH  20  21
ENDBRANCH  18  20
ENDBRANCH   1  18
TORSDOF 5
