REMARK  Name = ZINCrg00000yzsg4.0
REMARK                            x       y       z     vdW  Elec       q    Type
REMARK                         _______ _______ _______ _____ _____    ______ ____
ROOT
ATOM      1  N   LIG    1        3.253   2.599  -2.255  0.00  0.00    -0.460 N 
ATOM      2  C   LIG    1        2.774   1.558  -1.510  0.00  0.00    +0.150 A 
ATOM      3  N   LIG    1        3.059   0.459  -2.149  0.00  0.00    -0.260 NA
ATOM      4  N   LIG    1        3.674   0.734  -3.244  0.00  0.00    -0.310 NA
ATOM      5  C   LIG    1        3.823   2.033  -3.358  0.00  0.00    +0.350 A 
ENDROOT
BRANCH   5   6
ATOM      6  N   LIG    1        4.443   2.702  -4.401  0.00  0.00    -0.450 N 
ATOM      7  C   LIG    1        5.731   3.264  -3.974  0.00  0.00    +0.250 C 
ATOM      8  C   LIG    1        6.453   3.849  -5.155  0.00  0.00    +0.530 C 
ATOM      9  N   LIG    1        6.132   3.553  -6.418  0.00  0.00    -0.600 N 
ATOM     10  C   LIG    1        5.029   2.662  -6.769  0.00  0.00    +0.230 C 
ATOM     11  C   LIG    1        5.463   1.742  -7.911  0.00  0.00    +0.060 C 
ATOM     12  C   LIG    1        6.921   4.148  -7.500  0.00  0.00    +0.290 C 
ATOM     13  O   LIG    1        7.365   4.623  -4.954  0.00  0.00    -0.540 OA
ATOM     14  C   LIG    1        4.635   1.813  -5.558  0.00  0.00    +0.240 C 
ENDBRANCH   5   6
BRANCH   1  16
ATOM     15  C   LIG    1        1.844   4.589  -2.447  0.00  0.00    +0.050 C 
ATOM     16  C   LIG    1        3.172   4.027  -1.936  0.00  0.00    +0.300 C 
ENDBRANCH   1  16
BRANCH   2  17
ATOM     17  C   LIG    1        2.054   1.661  -0.190  0.00  0.00    +0.430 C 
BRANCH  17  18
ATOM     18  N   LIG    1        3.012   1.485   0.904  0.00  0.00    -0.540 N 
ATOM     19  C   LIG    1        3.613   2.502   1.545  0.00  0.00    +0.530 C 
ATOM     20  C   LIG    1        4.522   1.895   2.592  0.00  0.00    +0.140 C 
ATOM     21  C   LIG    1        4.321   0.406   2.433  0.00  0.00    -0.140 A 
ATOM     22  C   LIG    1        4.853  -0.685   3.083  0.00  0.00    +0.060 A 
ATOM     23  C   LIG    1        4.476  -1.964   2.708  0.00  0.00    +0.000 A 
ATOM     24  C   LIG    1        3.566  -2.139   1.682  0.00  0.00    +0.040 A 
ATOM     25  C   LIG    1        3.031  -1.047   1.029  0.00  0.00    +0.010 A 
ATOM     26  O   LIG    1        3.460   3.685   1.322  0.00  0.00    -0.500 OA
ATOM     27  C   LIG    1        3.405   0.242   1.401  0.00  0.00    +0.140 A 
ENDBRANCH  17  18
ENDBRANCH   2  17
TORSDOF 4
