REMARK  Name = ZINCpk000000o3BV.0
REMARK                            x       y       z     vdW  Elec       q    Type
REMARK                         _______ _______ _______ _____ _____    ______ ____
ROOT
ATOM      1  C   LIG    1       -2.960   3.317   2.489  0.00  0.00    +0.050 C 
ATOM      2  C   LIG    1       -1.451   3.568   2.449  0.00  0.00    +0.070 C 
ATOM      3  C   LIG    1       -1.055   5.017   2.784  0.00  0.00    +0.300 C 
ATOM      4  N   LIG    1       -0.962   4.559   4.186  0.00  0.00    -0.640 N 
ATOM      5  C   LIG    1       -1.059   5.165   5.386  0.00  0.00    +0.550 C 
ATOM      6  O   LIG    1       -0.938   4.518   6.404  0.00  0.00    -0.510 OA
ATOM      7  C   LIG    1       -0.722   3.171   3.745  0.00  0.00    +0.310 C 
ENDROOT
BRANCH   5   8
ATOM      8  C   LIG    1       -1.317   6.648   5.462  0.00  0.00    +0.170 C 
ATOM      9  C   LIG    1       -0.124   7.408   4.874  0.00  0.00    +0.000 C 
ATOM     10  C   LIG    1       -0.340   8.910   5.087  0.00  0.00    +0.230 C 
ATOM     11  O   LIG    1       -0.571   9.154   6.478  0.00  0.00    -0.380 OA
ATOM     12  C   LIG    1       -1.689   8.439   7.010  0.00  0.00    +0.370 C 
ATOM     13  O   LIG    1       -1.489   7.035   6.829  0.00  0.00    -0.360 OA
BRANCH  12  14
ATOM     14  C   LIG    1       -1.825   8.742   8.480  0.00  0.00    -0.090 A 
ATOM     15  C   LIG    1       -1.752   7.718   9.406  0.00  0.00    +0.060 A 
ATOM     16  C   LIG    1       -1.873   7.997  10.755  0.00  0.00    +0.000 A 
ATOM     17  C   LIG    1       -2.076   9.297  11.176  0.00  0.00    +0.010 A 
ATOM     18  C   LIG    1       -2.154  10.320  10.250  0.00  0.00    +0.000 A 
ATOM     19  C   LIG    1       -2.029  10.042   8.901  0.00  0.00    +0.040 A 
ENDBRANCH  12  14
ENDBRANCH   5   8
BRANCH   2  20
ATOM     20  N   LIG    1       -0.817   3.048   1.230  0.00  0.00    -0.520 NA
ATOM     21  C   LIG    1       -0.731   1.580   1.266  0.00  0.00    +0.150 C 
ATOM     22  C   LIG    1       -0.013   1.086   0.008  0.00  0.00    +0.220 C 
ATOM     23  O   LIG    1       -0.706   1.560  -1.149  0.00  0.00    -0.380 OA
ATOM     24  C   LIG    1       -0.807   2.985  -1.216  0.00  0.00    +0.220 C 
ATOM     25  C   LIG    1       -1.534   3.499   0.029  0.00  0.00    +0.150 C 
ENDBRANCH   2  20
TORSDOF 3
