REMARK  Name = ZINCrD00000F5LC8.1
REMARK                            x       y       z     vdW  Elec       q    Type
REMARK                         _______ _______ _______ _____ _____    ______ ____
ROOT
ATOM      1  C   LIG    1       -0.014   1.212   0.009  0.00  0.00    +0.570 C 
ATOM      2  N   LIG    1       -1.210   1.751  -0.301  0.00  0.00    -0.610 N 
ATOM      3  C   LIG    1       -1.321   3.161  -0.703  0.00  0.00    +0.280 C 
ATOM      4  C   LIG    1       -2.112   3.227  -2.019  0.00  0.00    +0.170 C 
ATOM      5  N   LIG    1       -3.393   2.528  -1.849  0.00  0.00    -0.530 NA
ATOM      6  C   LIG    1       -3.188   1.100  -1.570  0.00  0.00    +0.170 C 
ATOM      7  C   LIG    1       -2.440   0.946  -0.241  0.00  0.00    +0.300 C 
ATOM      8  O   LIG    1        0.074   0.021   0.241  0.00  0.00    -0.530 OA
ENDROOT
BRANCH   1  14
ATOM      9  C   LIG    1        5.652   3.718  -0.377  0.00  0.00    +0.390 A 
ATOM     10  N   LIG    1        4.638   4.332   0.134  0.00  0.00    -0.550 NA
ATOM     11  C   LIG    1        3.459   3.687   0.163  0.00  0.00    +0.160 A 
ATOM     12  C   LIG    1        2.218   4.141   0.665  0.00  0.00    +0.050 A 
ATOM     13  C   LIG    1        1.117   3.350   0.614  0.00  0.00    +0.070 A 
ATOM     14  C   LIG    1        1.188   2.064   0.060  0.00  0.00    -0.140 A 
ATOM     15  C   LIG    1        2.402   1.594  -0.436  0.00  0.00    +0.140 A 
ATOM     16  C   LIG    1        3.529   2.402  -0.391  0.00  0.00    -0.210 A 
ATOM     17  S   LIG    1        5.183   2.115  -0.927  0.00  0.00    +0.060 S 
BRANCH   9  18
ATOM     18  N   LIG    1        6.922   4.244  -0.479  0.00  0.00    -0.810 N 
ATOM     19  H   LIG    1        7.103   5.139  -0.152  0.00  0.00    +0.420 HD
ATOM     20  H   LIG    1        7.633   3.720  -0.877  0.00  0.00    +0.420 HD
ENDBRANCH   9  18
ENDBRANCH   1  14
BRANCH   5  21
ATOM     21  C   LIG    1       -4.255   2.716  -3.024  0.00  0.00    +0.210 C 
BRANCH  21  22
ATOM     22  C   LIG    1       -4.245   4.168  -3.427  0.00  0.00    -0.020 C 
ATOM     23  C   LIG    1       -3.918   4.509  -4.666  0.00  0.00    +0.010 C 
BRANCH  23  24
ATOM     24  C   LIG    1       -3.909   5.933  -5.061  0.00  0.00    -0.060 A 
ATOM     25  C   LIG    1       -4.249   6.920  -4.135  0.00  0.00    +0.020 A 
ATOM     26  C   LIG    1       -4.233   8.248  -4.510  0.00  0.00    +0.000 A 
ATOM     27  C   LIG    1       -3.891   8.601  -5.803  0.00  0.00    +0.000 A 
ATOM     28  C   LIG    1       -3.557   7.627  -6.727  0.00  0.00    +0.000 A 
ATOM     29  C   LIG    1       -3.564   6.296  -6.364  0.00  0.00    +0.010 A 
ENDBRANCH  23  24
ENDBRANCH  21  22
ENDBRANCH   5  21
TORSDOF 5
