REMARK  Name = ZINCqH0000038ljq.0
REMARK                            x       y       z     vdW  Elec       q    Type
REMARK                         _______ _______ _______ _____ _____    ______ ____
ROOT
ATOM      1  C   LIG    1       -1.160   7.408  -0.455  0.00  0.00    +0.180 C 
ATOM      2  C   LIG    1       -0.100   7.840  -1.470  0.00  0.00    +0.020 C 
ENDROOT
BRANCH   1   3
ATOM      3  N   LIG    1       -2.479   7.884  -0.892  0.00  0.00    -0.520 NA
ATOM      4  C   LIG    1       -2.847   7.299  -2.195  0.00  0.00    +0.280 C 
ATOM      5  C   LIG    1       -4.365   7.275  -2.259  0.00  0.00    -0.220 A 
ATOM      6  C   LIG    1       -5.144   8.376  -2.269  0.00  0.00    +0.100 A 
ATOM      7  N   LIG    1       -6.425   7.980  -2.333  0.00  0.00    -0.370 N 
ATOM      8  N   LIG    1       -6.434   6.576  -2.363  0.00  0.00    -0.310 NA
ATOM      9  C   LIG    1       -7.600   8.854  -2.365  0.00  0.00    +0.340 C 
ATOM     10  C   LIG    1       -4.612   9.798  -2.214  0.00  0.00    +0.120 C 
ATOM     11  C   LIG    1       -3.909   9.957  -0.856  0.00  0.00    -0.050 C 
ATOM     12  C   LIG    1       -3.774  11.447  -0.531  0.00  0.00    +0.040 C 
ATOM     13  C   LIG    1       -4.748   9.280   0.229  0.00  0.00    +0.040 C 
ATOM     14  C   LIG    1       -5.192   6.156  -2.318  0.00  0.00    +0.250 A 
ATOM     15  C   LIG    1       -2.537   9.329  -0.887  0.00  0.00    +0.180 C 
ENDBRANCH   1   3
BRANCH   1  18
ATOM     16  N   LIG    1       -0.067   5.243   0.030  0.00  0.00    -0.690 N 
ATOM     17  H   LIG    1        0.719   5.737   0.313  0.00  0.00    +0.410 HD
ATOM     18  C   LIG    1       -1.176   5.904  -0.356  0.00  0.00    +0.530 C 
ATOM     19  O   LIG    1       -2.187   5.290  -0.622  0.00  0.00    -0.490 OA
BRANCH  16  27
ATOM     20  C   LIG    1        0.772   3.923  -2.348  0.00  0.00    +0.100 C 
ATOM     21  C   LIG    1        0.354   3.159  -1.117  0.00  0.00    -0.060 A 
ATOM     22  C   LIG    1        0.371   1.778  -1.122  0.00  0.00    +0.020 A 
ATOM     23  C   LIG    1       -0.012   1.076   0.006  0.00  0.00    +0.040 A 
ATOM     24  C   LIG    1       -0.418   1.753   1.141  0.00  0.00    +0.030 A 
ATOM     25  C   LIG    1       -0.433   3.135   1.154  0.00  0.00    -0.020 A 
ATOM     26 CL   LIG    1       -0.937   3.986   2.582  0.00  0.00    -0.060 Cl
ATOM     27  C   LIG    1       -0.049   3.843   0.022  0.00  0.00    +0.140 A 
ENDBRANCH  16  27
ENDBRANCH   1  18
TORSDOF 3
