REMARK  Name = ZINCvU0000000ICk.0
REMARK                            x       y       z     vdW  Elec       q    Type
REMARK                         _______ _______ _______ _____ _____    ______ ____
ROOT
ATOM      1  O   LIG    1        0.904  -0.247  -1.826  0.00  0.00    -0.480 OA
ATOM      2  C   LIG    1        0.808   0.666  -1.033  0.00  0.00    +0.530 C 
ATOM      3  C   LIG    1        1.726   1.873  -1.088  0.00  0.00    +0.180 C 
ATOM      4  S   LIG    1        1.475   2.628   0.571  0.00  0.00    -0.160 S 
ATOM      5  C   LIG    1       -0.136   1.805   0.840  0.00  0.00    +0.200 C 
ATOM      6  C   LIG    1       -0.296   1.403   2.278  0.00  0.00    +0.550 C 
ATOM      7  N   LIG    1       -1.390   2.045   2.736  0.00  0.00    -0.540 N 
ATOM      8  C   LIG    1       -1.984   2.841   1.754  0.00  0.00    +0.160 A 
ATOM      9  C   LIG    1       -3.110   3.657   1.802  0.00  0.00    +0.000 A 
ATOM     10  C   LIG    1       -3.508   4.359   0.683  0.00  0.00    +0.070 A 
ATOM     11  C   LIG    1       -2.792   4.259  -0.495  0.00  0.00    +0.000 A 
ATOM     12  C   LIG    1       -1.671   3.449  -0.553  0.00  0.00    +0.090 A 
ATOM     13  O   LIG    1        0.417   0.648   2.904  0.00  0.00    -0.430 OA
ATOM     14  C   LIG    1       -1.270   2.747   0.561  0.00  0.00    -0.150 A 
ATOM     15  N   LIG    1       -0.109   0.665  -0.067  0.00  0.00    -0.540 N 
ENDROOT
BRANCH  15  16
ATOM     16  C   LIG    1       -1.013  -0.393   0.073  0.00  0.00    +0.150 A 
ATOM     17  C   LIG    1       -0.671  -1.506   0.830  0.00  0.00    +0.040 A 
ATOM     18  C   LIG    1       -1.568  -2.547   0.971  0.00  0.00    +0.060 A 
ATOM     19  C   LIG    1       -2.801  -2.489   0.350  0.00  0.00    +0.000 A 
ATOM     20  C   LIG    1       -3.145  -1.383  -0.410  0.00  0.00    +0.110 A 
ATOM     21  F   LIG    1       -4.351  -1.329  -1.016  0.00  0.00    -0.130 F 
ATOM     22  C   LIG    1       -2.253  -0.335  -0.550  0.00  0.00    +0.010 A 
ENDBRANCH  15  16
BRANCH   7  23
ATOM     23  C   LIG    1       -1.896   1.923   4.106  0.00  0.00    +0.370 C 
BRANCH  23  24
ATOM     24  C   LIG    1       -1.147   2.872   5.005  0.00  0.00    -0.150 A 
ATOM     25  C   LIG    1       -1.540   4.197   5.094  0.00  0.00    +0.130 A 
ATOM     26  C   LIG    1       -0.851   5.068   5.920  0.00  0.00    +0.000 A 
ATOM     27  C   LIG    1        0.228   4.616   6.655  0.00  0.00    +0.080 A 
ATOM     28  C   LIG    1        0.621   3.294   6.566  0.00  0.00    +0.020 A 
ATOM     29  F   LIG    1       -2.595   4.638   4.375  0.00  0.00    -0.130 F 
ATOM     30  C   LIG    1       -0.070   2.420   5.745  0.00  0.00    +0.010 A 
ATOM     31 CL   LIG    1        0.420   0.758   5.640  0.00  0.00    -0.030 Cl
ENDBRANCH  23  24
ENDBRANCH   7  23
TORSDOF 3
