REMARK  Name = ZINCpk00000FhC0H.0
REMARK                            x       y       z     vdW  Elec       q    Type
REMARK                         _______ _______ _______ _____ _____    ______ ____
ROOT
ATOM      1  C   LIG    1       -5.131   2.035   3.572  0.00  0.00    +0.520 C 
ATOM      2  N   LIG    1       -6.104   1.397   4.252  0.00  0.00    -0.520 N 
ATOM      3  H   LIG    1       -6.126   0.427   4.271  0.00  0.00    +0.440 HD
ATOM      4  O   LIG    1       -5.104   3.248   3.548  0.00  0.00    -0.510 OA
ENDROOT
BRANCH   2   5
ATOM      5  N   LIG    1       -7.083   2.133   4.931  0.00  0.00    -0.510 N 
ATOM      6  H   LIG    1       -7.061   3.103   4.912  0.00  0.00    +0.430 HD
ATOM      7  C   LIG    1       -8.056   1.494   5.612  0.00  0.00    +0.560 C 
ATOM      8  O   LIG    1       -8.083   0.279   5.636  0.00  0.00    -0.520 OA
BRANCH   7   9
ATOM      9  C   LIG    1       -9.089   2.271   6.329  0.00  0.00    -0.080 A 
ATOM     10  C   LIG    1       -9.057   3.667   6.308  0.00  0.00    +0.070 A 
ATOM     11  C   LIG    1      -10.027   4.386   6.976  0.00  0.00    +0.110 A 
ATOM     12  C   LIG    1      -11.024   3.727   7.673  0.00  0.00    -0.020 A 
ATOM     13  C   LIG    1      -11.058   2.344   7.702  0.00  0.00    +0.110 A 
ATOM     14  C   LIG    1      -10.097   1.613   7.034  0.00  0.00    +0.120 A 
BRANCH  12  15
ATOM     15  N   LIG    1      -12.058   4.505   8.391  0.00  0.00    +0.020 N 
ATOM     16  O   LIG    1      -12.030   5.722   8.368  0.00  0.00    -0.150 OA
ATOM     17  O   LIG    1      -12.937   3.928   9.006  0.00  0.00    -0.150 OA
ENDBRANCH  12  15
ENDBRANCH   7   9
ENDBRANCH   2   5
BRANCH   1  18
ATOM     18  C   LIG    1       -4.078   1.243   2.841  0.00  0.00    +0.280 C 
BRANCH  18  19
ATOM     19  O   LIG    1       -3.152   2.154   2.192  0.00  0.00    -0.320 OA
BRANCH  19  20
ATOM     20  C   LIG    1       -2.146   1.604   1.493  0.00  0.00    +0.500 C 
ATOM     21  O   LIG    1       -2.043   0.402   1.426  0.00  0.00    -0.470 OA
BRANCH  20  23
ATOM     22  C   LIG    1       -0.811   3.799   1.502  0.00  0.00    +0.130 C 
ATOM     23  C   LIG    1       -1.145   2.486   0.792  0.00  0.00    -0.110 C 
ATOM     24  C   LIG    1       -1.160   2.494  -0.739  0.00  0.00    +0.160 C 
ATOM     25  C   LIG    1       -0.022   1.799   0.012  0.00  0.00    +0.020 C 
ATOM     26 CL   LIG    1        1.593   2.598   0.001  0.00  0.00    -0.070 Cl
ATOM     27 CL   LIG    1        0.002  -0.004   0.002  0.00  0.00    -0.050 Cl
ENDBRANCH  20  23
ENDBRANCH  19  20
ENDBRANCH  18  19
ENDBRANCH   1  18
TORSDOF 7
