REMARK  Name = ZINCrg00001JduQ6.0
REMARK                            x       y       z     vdW  Elec       q    Type
REMARK                         _______ _______ _______ _____ _____    ______ ____
ROOT
ATOM      1  C   LIG    1        5.713   2.767  -3.205  0.00  0.00    +0.320 C 
ATOM      2  C   LIG    1        6.978   3.649  -3.248  0.00  0.00    +0.050 C 
ATOM      3  C   LIG    1        7.642   3.371  -1.873  0.00  0.00    +0.070 C 
ATOM      4  C   LIG    1        6.401   3.212  -0.957  0.00  0.00    +0.260 C 
ATOM      5  N   LIG    1        5.408   2.510  -1.790  0.00  0.00    -0.610 N 
ATOM      6  C   LIG    1        4.386   1.760  -1.330  0.00  0.00    +0.520 C 
ATOM      7  O   LIG    1        3.624   1.230  -2.110  0.00  0.00    -0.510 OA
ENDROOT
BRANCH   1  14
ATOM      8  N   LIG    1        5.196   0.942  -4.928  0.00  0.00    -0.540 N 
ATOM      9  C   LIG    1        5.740  -0.229  -5.316  0.00  0.00    +0.650 A 
ATOM     10  N   LIG    1        6.832  -0.439  -4.550  0.00  0.00    -0.550 N 
ATOM     11  H   LIG    1        7.427  -1.203  -4.596  0.00  0.00    +0.450 HD
ATOM     12  N   LIG    1        6.945   0.652  -3.678  0.00  0.00    -0.260 NA
ATOM     13  O   LIG    1        5.321  -0.964  -6.191  0.00  0.00    -0.560 OA
ATOM     14  C   LIG    1        5.968   1.464  -3.919  0.00  0.00    +0.290 A 
BRANCH   8  16
ATOM     15  C   LIG    1        4.358   2.333  -6.758  0.00  0.00    +0.040 C 
ATOM     16  C   LIG    1        3.991   1.556  -5.492  0.00  0.00    +0.310 C 
ENDBRANCH   8  16
ENDBRANCH   1  14
BRANCH   2  17
ATOM     17  C   LIG    1        7.898   3.221  -4.393  0.00  0.00    -0.030 C 
ATOM     18  C   LIG    1        8.503   4.325  -5.263  0.00  0.00    +0.030 C 
ATOM     19  C   LIG    1        7.391   3.433  -5.822  0.00  0.00    +0.010 C 
ENDBRANCH   2  17
BRANCH   6  20
ATOM     20  C   LIG    1        4.192   1.581   0.154  0.00  0.00    +0.330 C 
BRANCH  20  21
ATOM     21  N   LIG    1        3.023   0.731   0.394  0.00  0.00    -0.480 N 
ATOM     22  C   LIG    1        1.797   1.298   0.529  0.00  0.00    +0.290 A 
ATOM     23  C   LIG    1        0.702   0.533   0.751  0.00  0.00    -0.070 A 
ATOM     24  C   LIG    1        0.829  -0.860   0.843  0.00  0.00    +0.120 A 
ATOM     25  C   LIG    1        2.061  -1.428   0.707  0.00  0.00    -0.200 A 
ATOM     26  C   LIG    1        2.225  -2.923   0.802  0.00  0.00    +0.120 C 
ATOM     27  C   LIG    1        3.177  -0.604   0.478  0.00  0.00    +0.520 A 
ATOM     28  O   LIG    1        4.286  -1.100   0.354  0.00  0.00    -0.540 OA
ENDBRANCH  20  21
ENDBRANCH   6  20
TORSDOF 5
