REMARK  Name = ZINCwl0000000wt0.0
REMARK                            x       y       z     vdW  Elec       q    Type
REMARK                         _______ _______ _______ _____ _____    ______ ____
ROOT
ATOM      1  C   LIG    1        1.345   2.074   2.631  0.00  0.00    +0.250 C 
ATOM      2  C   LIG    1       -0.129   2.227   2.355  0.00  0.00    +0.410 C 
ATOM      3  N   LIG    1       -0.704   1.975   1.216  0.00  0.00    -0.380 N 
ATOM      4  C   LIG    1       -2.036   2.223   1.312  0.00  0.00    +0.060 A 
ATOM      5  C   LIG    1       -3.100   2.130   0.412  0.00  0.00    +0.070 A 
ATOM      6  C   LIG    1       -4.364   2.458   0.816  0.00  0.00    +0.080 A 
ATOM      7  C   LIG    1       -4.603   2.886   2.114  0.00  0.00    +0.090 A 
ATOM      8  C   LIG    1       -3.568   2.979   3.021  0.00  0.00    +0.060 A 
ATOM      9  C   LIG    1       -2.278   2.653   2.628  0.00  0.00    +0.090 A 
ATOM     10  N   LIG    1       -1.052   2.648   3.262  0.00  0.00    -0.420 N 
ENDROOT
BRANCH   3  11
ATOM     11  C   LIG    1       -0.018   1.503   0.010  0.00  0.00    +0.360 C 
BRANCH  11  12
ATOM     12  C   LIG    1        0.002  -0.004   0.002  0.00  0.00    +0.500 C 
ATOM     13  N   LIG    1        0.585  -0.664  -1.018  0.00  0.00    -0.600 N 
ATOM     14  C   LIG    1        0.617  -2.135  -1.048  0.00  0.00    +0.280 C 
ATOM     15  C   LIG    1        0.104  -2.602  -2.415  0.00  0.00    +0.150 C 
ATOM     16  O   LIG    1        0.832  -1.930  -3.446  0.00  0.00    -0.370 OA
ATOM     17  C   LIG    1        0.665  -0.510  -3.449  0.00  0.00    +0.150 C 
ATOM     18  C   LIG    1        1.435   0.092  -4.626  0.00  0.00    +0.080 C 
ATOM     19  C   LIG    1        0.307  -4.113  -2.548  0.00  0.00    +0.070 C 
ATOM     20  C   LIG    1        1.203   0.064  -2.138  0.00  0.00    +0.260 C 
ATOM     21  O   LIG    1       -0.506  -0.622   0.913  0.00  0.00    -0.520 OA
ENDBRANCH  11  12
ENDBRANCH   3  11
BRANCH  10  22
ATOM     22  C   LIG    1       -0.792   3.026   4.653  0.00  0.00    +0.370 C 
BRANCH  22  23
ATOM     23  C   LIG    1       -0.488   4.500   4.725  0.00  0.00    +0.500 C 
ATOM     24  N   LIG    1       -0.216   5.075   5.913  0.00  0.00    -0.600 N 
ATOM     25  C   LIG    1       -0.216   4.285   7.155  0.00  0.00    +0.260 C 
ATOM     26  C   LIG    1        1.099   4.564   7.901  0.00  0.00    +0.190 C 
ATOM     27  O   LIG    1        1.264   5.976   8.048  0.00  0.00    -0.360 OA
ATOM     28  C   LIG    1        1.379   6.684   6.811  0.00  0.00    +0.140 C 
ATOM     29  C   LIG    1        1.613   8.169   7.092  0.00  0.00    +0.070 C 
ATOM     30  C   LIG    1        2.273   3.992   7.104  0.00  0.00    +0.020 C 
ATOM     31  C   LIG    1        0.085   6.512   6.008  0.00  0.00    +0.280 C 
ATOM     32  O   LIG    1       -0.487   5.169   3.713  0.00  0.00    -0.520 OA
ENDBRANCH  22  23
ENDBRANCH  10  22
TORSDOF 4
