REMARK  Name = ZINCrD000000Cs3t.0
REMARK                            x       y       z     vdW  Elec       q    Type
REMARK                         _______ _______ _______ _____ _____    ______ ____
ROOT
ATOM      1  C   LIG    1       -2.463   1.213  -2.850  0.00  0.00    -0.100 A 
ATOM      2  C   LIG    1       -2.807   2.553  -3.037  0.00  0.00    +0.080 A 
ATOM      3  C   LIG    1       -3.485   2.939  -4.173  0.00  0.00    +0.040 A 
ATOM      4  C   LIG    1       -3.838   1.987  -5.131  0.00  0.00    -0.100 A 
ATOM      5  C   LIG    1       -3.500   0.647  -4.941  0.00  0.00    +0.080 A 
ATOM      6  C   LIG    1       -2.816   0.262  -3.808  0.00  0.00    +0.090 A 
ENDROOT
BRANCH   4   7
ATOM      7  C   LIG    1       -4.573   2.400  -6.348  0.00  0.00    +0.560 C 
ATOM      8  N   LIG    1       -4.355   3.617  -6.886  0.00  0.00    -0.610 N 
ATOM      9  C   LIG    1       -3.307   4.503  -6.356  0.00  0.00    +0.250 C 
ATOM     10  C   LIG    1       -2.443   4.982  -7.534  0.00  0.00    +0.220 C 
ATOM     11  O   LIG    1       -3.291   5.535  -8.543  0.00  0.00    -0.380 OA
ATOM     12  C   LIG    1       -4.212   4.601  -9.111  0.00  0.00    +0.220 C 
ATOM     13  C   LIG    1       -5.162   4.100  -8.018  0.00  0.00    +0.270 C 
ATOM     14  O   LIG    1       -5.372   1.643  -6.862  0.00  0.00    -0.520 OA
ENDBRANCH   4   7
BRANCH   1  16
ATOM     15  O   LIG    1       -1.434  -0.366  -1.469  0.00  0.00    -0.490 OA
ATOM     16  C   LIG    1       -1.729   0.801  -1.633  0.00  0.00    +0.510 C 
BRANCH  16  17
ATOM     17  O   LIG    1       -1.388   1.718  -0.709  0.00  0.00    -0.340 OA
BRANCH  17  18
ATOM     18  C   LIG    1       -0.669   1.242   0.460  0.00  0.00    +0.240 C 
ATOM     19  C   LIG    1        0.256   2.346   0.967  0.00  0.00    +0.040 C 
ATOM     20  C   LIG    1        0.838   1.907   2.316  0.00  0.00    +0.030 C 
ATOM     21  C   LIG    1       -0.283   1.927   3.353  0.00  0.00    +0.070 C 
ATOM     22  C   LIG    1       -1.480   1.160   2.854  0.00  0.00    -0.060 A 
ATOM     23  C   LIG    1       -2.428   0.762   3.787  0.00  0.00    +0.010 A 
ATOM     24  C   LIG    1       -3.549   0.061   3.393  0.00  0.00    +0.020 A 
ATOM     25  C   LIG    1       -3.731  -0.248   2.058  0.00  0.00    +0.000 A 
ATOM     26  C   LIG    1       -2.789   0.145   1.129  0.00  0.00    +0.010 A 
ATOM     27  C   LIG    1       -1.659   0.849   1.525  0.00  0.00    -0.100 A 
ENDBRANCH  17  18
ENDBRANCH  16  17
ENDBRANCH   1  16
TORSDOF 4
