REMARK  Name = ZINCqH0000005QG4.0
REMARK                            x       y       z     vdW  Elec       q    Type
REMARK                         _______ _______ _______ _____ _____    ______ ____
ROOT
ATOM      1  N   LIG    1       -1.194   2.128   0.019  0.00  0.00    -0.720 N 
ATOM      2  H   LIG    1       -2.027   1.631   0.021  0.00  0.00    +0.400 HD
ATOM      3  C   LIG    1       -0.018   1.470   0.010  0.00  0.00    +0.560 C 
ATOM      4  O   LIG    1        1.027   2.092   0.004  0.00  0.00    -0.510 OA
ENDROOT
BRANCH   3   5
ATOM      5  C   LIG    1        0.002  -0.004   0.002  0.00  0.00    -0.120 A 
ATOM      6  C   LIG    1       -1.196  -0.724   0.010  0.00  0.00    +0.060 A 
ATOM      7  C   LIG    1       -1.170  -2.101   0.002  0.00  0.00    +0.020 A 
ATOM      8  C   LIG    1        0.038  -2.779  -0.013  0.00  0.00    +0.070 A 
ATOM      9  C   LIG    1        1.230  -2.084  -0.020  0.00  0.00    +0.010 A 
ATOM     10  C   LIG    1        1.225  -0.694  -0.019  0.00  0.00    -0.050 A 
BRANCH  10  11
ATOM     11  S   LIG    1        2.745   0.197  -0.036  0.00  0.00    +0.030 S 
BRANCH  11  12
ATOM     12  C   LIG    1        3.991  -1.121  -0.061  0.00  0.00    +0.360 C 
ATOM     13  F   LIG    1        3.816  -1.907  -1.205  0.00  0.00    -0.190 F 
ATOM     14  F   LIG    1        3.848  -1.919   1.079  0.00  0.00    -0.190 F 
ENDBRANCH  11  12
ENDBRANCH  10  11
ENDBRANCH   3   5
BRANCH   1  15
ATOM     15  C   LIG    1       -1.214   3.592   0.027  0.00  0.00    +0.330 C 
BRANCH  15  18
ATOM     16  C   LIG    1       -4.609   4.737   1.246  0.00  0.00    -0.170 A 
ATOM     17  C   LIG    1       -3.285   4.289   1.236  0.00  0.00    +0.150 A 
ATOM     18  C   LIG    1       -2.642   4.075   0.037  0.00  0.00    -0.170 A 
ATOM     19  C   LIG    1       -3.298   4.308  -1.160  0.00  0.00    +0.120 A 
ATOM     20  C   LIG    1       -4.608   4.745  -1.165  0.00  0.00    -0.080 A 
ATOM     21  C   LIG    1       -5.272   4.966   0.032  0.00  0.00    +0.200 A 
BRANCH  16  22
ATOM     22  C   LIG    1       -5.304   4.966   2.526  0.00  0.00    +0.510 C 
ATOM     23  O   LIG    1       -6.455   5.356   2.530  0.00  0.00    -0.490 OA
BRANCH  22  25
ATOM     24  C   LIG    1       -5.410   4.992   4.911  0.00  0.00    +0.260 C 
ATOM     25  O   LIG    1       -4.663   4.745   3.690  0.00  0.00    -0.360 OA
ENDBRANCH  22  25
ENDBRANCH  16  22
BRANCH  21  26
ATOM     26  O   LIG    1       -6.557   5.401   0.029  0.00  0.00    -0.280 OA
ATOM     27  C   LIG    1       -7.167   5.612  -1.246  0.00  0.00    +0.250 C 
ENDBRANCH  21  26
ENDBRANCH  15  18
ENDBRANCH   1  15
TORSDOF 8
