REMARK  Name = ZINCtV000002MgJW.0
REMARK                            x       y       z     vdW  Elec       q    Type
REMARK                         _______ _______ _______ _____ _____    ______ ____
ROOT
ATOM      1  O   LIG    1        1.388  -0.863   0.091  0.00  0.00    -0.490 OA
ATOM      2  C   LIG    1        2.427  -0.238   0.082  0.00  0.00    +0.520 C 
ATOM      3  N   LIG    1        2.404   1.107  -0.012  0.00  0.00    -0.680 N 
ATOM      4  H   LIG    1        3.235   1.602  -0.085  0.00  0.00    +0.410 HD
ENDROOT
BRANCH   3   5
ATOM      5  C   LIG    1        1.182   1.788  -0.003  0.00  0.00    +0.210 A 
ATOM      6  C   LIG    1        0.064   1.219  -0.599  0.00  0.00    +0.050 A 
ATOM      7  C   LIG    1       -1.140   1.896  -0.595  0.00  0.00    +0.090 A 
ATOM      8  C   LIG    1       -1.236   3.135   0.013  0.00  0.00    -0.060 A 
ATOM      9  C   LIG    1       -0.123   3.706   0.607  0.00  0.00    +0.110 A 
ATOM     10 CL   LIG    1       -2.752   3.980   0.024  0.00  0.00    -0.050 Cl
ATOM     11  C   LIG    1        1.084   3.035   0.600  0.00  0.00    -0.210 A 
BRANCH  11  12
ATOM     12  C   LIG    1        2.295   3.656   1.248  0.00  0.00    +0.510 C 
ATOM     13  F   LIG    1        3.303   3.822   0.291  0.00  0.00    -0.180 F 
ATOM     14  F   LIG    1        2.757   2.821   2.271  0.00  0.00    -0.170 F 
ATOM     15  F   LIG    1        1.951   4.902   1.782  0.00  0.00    -0.170 F 
ENDBRANCH  11  12
ENDBRANCH   3   5
BRANCH   2  16
ATOM     16  C   LIG    1        3.744  -0.964   0.174  0.00  0.00    +0.220 C 
BRANCH  16  17
ATOM     17  N   LIG    1        3.500  -2.410   0.266  0.00  0.00    -0.500 NA
ATOM     18  C   LIG    1        3.020  -2.945  -1.016  0.00  0.00    +0.250 C 
ATOM     19  C   LIG    1        3.983  -2.520  -2.130  0.00  0.00    +0.080 C 
ATOM     20  C   LIG    1        5.394  -2.834  -1.677  0.00  0.00    -0.180 A 
ATOM     21  C   LIG    1        5.731  -3.106  -0.401  0.00  0.00    -0.150 A 
ATOM     22  C   LIG    1        7.086  -3.365  -0.225  0.00  0.00    +0.020 A 
ATOM     23  C   LIG    1        7.831  -3.305  -1.326  0.00  0.00    -0.040 A 
ATOM     24  S   LIG    1        6.817  -2.901  -2.703  0.00  0.00    +0.120 S 
ATOM     25  C   LIG    1        4.703  -3.119   0.723  0.00  0.00    +0.350 C 
BRANCH  25  26
ATOM     26  C   LIG    1        5.270  -2.425   1.935  0.00  0.00    -0.190 A 
ATOM     27  C   LIG    1        4.877  -2.631   3.192  0.00  0.00    +0.030 A 
ATOM     28  C   LIG    1        5.544  -1.878   4.143  0.00  0.00    +0.000 A 
ATOM     29  C   LIG    1        6.478  -1.059   3.657  0.00  0.00    -0.050 A 
ATOM     30  S   LIG    1        6.555  -1.224   1.907  0.00  0.00    +0.110 S 
ENDBRANCH  25  26
ENDBRANCH  16  17
ENDBRANCH   2  16
TORSDOF 5
