REMARK  Name = ZINCrH000004sPnk.0
REMARK                            x       y       z     vdW  Elec       q    Type
REMARK                         _______ _______ _______ _____ _____    ______ ____
ROOT
ATOM      1  C   LIG    1       -2.509   6.496   3.284  0.00  0.00    +0.150 A 
ATOM      2  N   LIG    1       -3.324   5.469   3.218  0.00  0.00    -0.280 NA
ATOM      3  N   LIG    1       -3.156   4.847   2.107  0.00  0.00    -0.250 NA
ATOM      4  C   LIG    1       -2.225   5.428   1.403  0.00  0.00    +0.200 A 
ATOM      5  N   LIG    1       -1.780   6.503   2.126  0.00  0.00    -0.410 N 
ENDROOT
BRANCH   5   6
ATOM      6  C   LIG    1       -0.786   7.420   1.756  0.00  0.00    +0.100 A 
ATOM      7  C   LIG    1        0.529   6.999   1.611  0.00  0.00    +0.030 A 
ATOM      8  C   LIG    1        1.506   7.903   1.242  0.00  0.00    +0.040 A 
ATOM      9  C   LIG    1        1.177   9.229   1.027  0.00  0.00    +0.040 A 
ATOM     10  C   LIG    1       -0.131   9.652   1.175  0.00  0.00    +0.040 A 
ATOM     11  C   LIG    1       -1.113   8.752   1.539  0.00  0.00    +0.030 A 
ENDBRANCH   5   6
BRANCH   4  12
ATOM     12  C   LIG    1       -1.734   5.000   0.044  0.00  0.00    +0.230 C 
ATOM     13  C   LIG    1       -2.773   5.373  -1.014  0.00  0.00    +0.070 C 
BRANCH  12  14
ATOM     14  N   LIG    1       -1.525   3.546   0.035  0.00  0.00    -0.520 NA
ATOM     15  C   LIG    1       -0.826   3.122  -1.185  0.00  0.00    +0.160 C 
ATOM     16  C   LIG    1       -0.756   1.594  -1.230  0.00  0.00    +0.020 C 
ATOM     17  C   LIG    1       -0.013   1.086   0.008  0.00  0.00    +0.010 C 
ATOM     18  C   LIG    1       -0.732   1.581   1.266  0.00  0.00    +0.040 C 
ATOM     19  C   LIG    1       -0.804   3.109   1.238  0.00  0.00    +0.160 C 
ENDBRANCH  12  14
ENDBRANCH   4  12
BRANCH   1  20
ATOM     20  S   LIG    1       -2.379   7.648   4.611  0.00  0.00    +0.060 S 
BRANCH  20  21
ATOM     21  C   LIG    1       -3.635   6.981   5.731  0.00  0.00    +0.270 C 
BRANCH  21  26
ATOM     22  C   LIG    1       -4.812  10.497   9.096  0.00  0.00    +0.200 C 
ATOM     23  C   LIG    1       -4.191   9.311   8.404  0.00  0.00    +0.170 A 
ATOM     24  N   LIG    1       -3.289   8.517   8.900  0.00  0.00    -0.370 NA
ATOM     25  O   LIG    1       -2.995   7.660   8.094  0.00  0.00    +0.090 OA
ATOM     26  C   LIG    1       -3.703   7.831   6.973  0.00  0.00    +0.180 A 
ATOM     27  N   LIG    1       -4.464   8.882   7.159  0.00  0.00    -0.460 NA
ENDBRANCH  21  26
ENDBRANCH  20  21
ENDBRANCH   1  20
TORSDOF 6
