REMARK  Name = ZINCpe00000z45eU.0
REMARK                            x       y       z     vdW  Elec       q    Type
REMARK                         _______ _______ _______ _____ _____    ______ ____
ROOT
ATOM      1  C   LIG    1       -3.171   4.114   1.122  0.00  0.00    +0.610 C 
ATOM      2  N   LIG    1       -2.703   3.382   0.091  0.00  0.00    -0.590 N 
ATOM      3  C   LIG    1       -1.315   2.894   0.080  0.00  0.00    +0.310 C 
ATOM      4  C   LIG    1       -1.319   1.361   0.128  0.00  0.00    +0.110 C 
ATOM      5  C   LIG    1       -2.342   0.846  -0.853  0.00  0.00    +0.120 A 
ATOM      6  C   LIG    1       -3.348   1.592  -1.377  0.00  0.00    -0.270 A 
ATOM      7  C   LIG    1       -4.091   0.780  -2.229  0.00  0.00    +0.260 A 
ATOM      8  N   LIG    1       -3.552  -0.415  -2.223  0.00  0.00    -0.290 NA
ATOM      9  N   LIG    1       -2.445  -0.394  -1.362  0.00  0.00    -0.360 N 
ATOM     10  C   LIG    1       -1.558  -1.522  -1.070  0.00  0.00    +0.360 C 
ATOM     11  C   LIG    1       -3.570   3.050  -1.054  0.00  0.00    +0.340 C 
ATOM     12  O   LIG    1       -2.476   4.296   2.103  0.00  0.00    -0.530 OA
ENDROOT
BRANCH   1  15
ATOM     13  C   LIG    1       -5.188   4.351   3.527  0.00  0.00    +0.160 C 
ATOM     14  C   LIG    1       -5.418   4.802   2.107  0.00  0.00    +0.160 A 
ATOM     15  C   LIG    1       -4.525   4.693   1.060  0.00  0.00    -0.300 A 
ATOM     16  C   LIG    1       -5.150   5.246  -0.080  0.00  0.00    +0.260 A 
ATOM     17  N   LIG    1       -6.341   5.649   0.268  0.00  0.00    -0.290 NA
ATOM     18  N   LIG    1       -6.529   5.385   1.629  0.00  0.00    -0.350 N 
BRANCH  18  19
ATOM     19  C   LIG    1       -7.735   5.693   2.402  0.00  0.00    +0.330 C 
BRANCH  19  20
ATOM     20  C   LIG    1       -7.614   7.098   2.997  0.00  0.00    -0.030 C 
ATOM     21  C   LIG    1       -6.467   7.126   4.009  0.00  0.00    +0.020 C 
ATOM     22  C   LIG    1       -8.922   7.468   3.699  0.00  0.00    +0.030 C 
ENDBRANCH  19  20
ENDBRANCH  18  19
ENDBRANCH   1  15
BRANCH  11  23
ATOM     23  C   LIG    1       -3.200   3.901  -2.241  0.00  0.00    +0.510 C 
ATOM     24  O   LIG    1       -2.314   4.724  -2.145  0.00  0.00    -0.520 OA
ATOM     25  N   LIG    1       -3.854   3.749  -3.410  0.00  0.00    -0.850 N 
ATOM     26  H   LIG    1       -4.560   3.088  -3.487  0.00  0.00    +0.400 HD
ATOM     27  H   LIG    1       -3.616   4.297  -4.174  0.00  0.00    +0.410 HD
ENDBRANCH  11  23
TORSDOF 4
