REMARK  Name = ZINCtV00000L6jtj.0
REMARK                            x       y       z     vdW  Elec       q    Type
REMARK                         _______ _______ _______ _____ _____    ______ ____
ROOT
ATOM      1  O   LIG    1       -2.346   0.696   0.091  0.00  0.00    -0.460 OA
ATOM      2  C   LIG    1       -2.275   1.899   0.226  0.00  0.00    +0.520 C 
ATOM      3  N   LIG    1       -1.078   2.515   0.162  0.00  0.00    -0.470 N 
ENDROOT
BRANCH   3   4
ATOM      4  C   LIG    1        0.059   1.790  -0.164  0.00  0.00    +0.310 A 
ATOM      5  N   LIG    1        1.258   2.258  -0.151  0.00  0.00    -0.490 NA
ATOM      6  C   LIG    1        2.263   1.430  -0.498  0.00  0.00    +0.100 A 
ATOM      7  C   LIG    1        3.646   1.698  -0.563  0.00  0.00    +0.060 A 
ATOM      8  C   LIG    1        4.527   0.717  -0.942  0.00  0.00    +0.040 A 
ATOM      9  C   LIG    1        4.073  -0.553  -1.267  0.00  0.00    +0.040 A 
ATOM     10  C   LIG    1        2.727  -0.838  -1.211  0.00  0.00    +0.060 A 
ATOM     11  C   LIG    1        1.818   0.145  -0.828  0.00  0.00    -0.210 A 
ATOM     12  S   LIG    1        0.065   0.103  -0.659  0.00  0.00    +0.180 S 
ENDBRANCH   3   4
BRANCH   3  13
ATOM     13  C   LIG    1       -0.981   3.889   0.423  0.00  0.00    +0.100 A 
ATOM     14  C   LIG    1       -1.504   4.806  -0.479  0.00  0.00    +0.060 A 
ATOM     15  C   LIG    1       -1.412   6.160  -0.217  0.00  0.00    +0.010 A 
ATOM     16  C   LIG    1       -0.790   6.602   0.939  0.00  0.00    +0.120 A 
ATOM     17  C   LIG    1       -0.264   5.688   1.837  0.00  0.00    +0.010 A 
ATOM     18  F   LIG    1       -0.697   7.926   1.190  0.00  0.00    -0.130 F 
ATOM     19  C   LIG    1       -0.358   4.334   1.581  0.00  0.00    +0.090 A 
ENDBRANCH   3  13
BRANCH   2  20
ATOM     20  C   LIG    1       -3.525   2.706   0.466  0.00  0.00    +0.270 C 
BRANCH  20  21
ATOM     21  O   LIG    1       -4.651   1.828   0.543  0.00  0.00    -0.270 OA
BRANCH  21  22
ATOM     22  C   LIG    1       -5.865   2.400   0.757  0.00  0.00    +0.140 A 
ATOM     23  C   LIG    1       -5.971   3.775   0.896  0.00  0.00    -0.040 A 
ATOM     24  C   LIG    1       -7.207   4.355   1.109  0.00  0.00    +0.090 A 
ATOM     25  C   LIG    1       -8.338   3.563   1.195  0.00  0.00    -0.060 A 
ATOM     26  C   LIG    1       -8.235   2.189   1.062  0.00  0.00    +0.090 A 
ATOM     27 CL   LIG    1       -9.889   4.294   1.469  0.00  0.00    -0.050 Cl
ATOM     28  C   LIG    1       -7.001   1.606   0.843  0.00  0.00    -0.050 A 
ATOM     29 CL   LIG    1       -6.872  -0.117   0.676  0.00  0.00    -0.030 Cl
ENDBRANCH  21  22
ENDBRANCH  20  21
ENDBRANCH   2  20
TORSDOF 5
