REMARK  Name = ZINCvU0000000775.0
REMARK                            x       y       z     vdW  Elec       q    Type
REMARK                         _______ _______ _______ _____ _____    ______ ____
ROOT
ATOM      1  C   LIG    1       -1.557  -1.291  -1.294  0.00  0.00    +0.150 C 
ATOM      2  N   LIG    1       -1.956  -1.260  -0.070  0.00  0.00    -0.230 NA
ATOM      3  N   LIG    1       -1.134  -0.522   0.778  0.00  0.00    -0.460 N 
ATOM      4  C   LIG    1       -0.012   0.024  -0.003  0.00  0.00    +0.260 C 
ATOM      5  C   LIG    1       -1.333  -0.338   2.099  0.00  0.00    +0.590 C 
ATOM      6  O   LIG    1       -0.498   0.246   2.764  0.00  0.00    -0.480 OA
ATOM      7  C   LIG    1       -0.281  -0.491  -1.430  0.00  0.00    +0.100 C 
ENDROOT
BRANCH   4   8
ATOM      8  C   LIG    1       -0.028   1.531   0.029  0.00  0.00    -0.100 A 
ATOM      9  C   LIG    1       -1.232   2.209   0.058  0.00  0.00    +0.010 A 
ATOM     10  C   LIG    1       -1.246   3.591   0.092  0.00  0.00    +0.000 A 
ATOM     11  C   LIG    1       -0.056   4.295   0.087  0.00  0.00    -0.080 A 
ATOM     12  C   LIG    1        1.148   3.616   0.053  0.00  0.00    +0.000 A 
ATOM     13  C   LIG    1       -0.071   5.801   0.120  0.00  0.00    +0.090 C 
ATOM     14  C   LIG    1        1.162   2.234   0.024  0.00  0.00    +0.030 A 
ENDBRANCH   4   8
BRANCH   5  15
ATOM     15  C   LIG    1       -2.564  -0.845   2.738  0.00  0.00    -0.140 A 
ATOM     16  C   LIG    1       -3.463  -1.625   2.008  0.00  0.00    +0.110 A 
ATOM     17  C   LIG    1       -4.611  -2.096   2.611  0.00  0.00    +0.010 A 
ATOM     18  C   LIG    1       -4.873  -1.798   3.937  0.00  0.00    +0.060 A 
ATOM     19  C   LIG    1       -3.987  -1.025   4.667  0.00  0.00    +0.010 A 
ATOM     20  C   LIG    1       -2.832  -0.551   4.078  0.00  0.00    +0.020 A 
ATOM     21 CL   LIG    1       -1.718   0.412   4.997  0.00  0.00    -0.030 Cl
ENDBRANCH   5  15
BRANCH   1  26
ATOM     22  C   LIG    1       -2.357  -2.624  -4.716  0.00  0.00    +0.170 A 
ATOM     23  C   LIG    1       -3.526  -3.327  -4.465  0.00  0.00    -0.140 A 
ATOM     24  C   LIG    1       -4.055  -3.369  -3.183  0.00  0.00    +0.170 A 
ATOM     25  C   LIG    1       -3.417  -2.707  -2.147  0.00  0.00    -0.010 A 
ATOM     26  C   LIG    1       -2.240  -1.998  -2.394  0.00  0.00    +0.040 A 
ATOM     27  C   LIG    1       -1.714  -1.955  -3.687  0.00  0.00    -0.020 A 
BRANCH  22  29
ATOM     28  C   LIG    1       -2.559  -3.295  -6.988  0.00  0.00    +0.250 C 
ATOM     29  O   LIG    1       -1.843  -2.587  -5.973  0.00  0.00    -0.310 OA
ENDBRANCH  22  29
BRANCH  24  30
ATOM     30  O   LIG    1       -5.201  -4.059  -2.944  0.00  0.00    -0.310 OA
ATOM     31  C   LIG    1       -5.806  -4.718  -4.058  0.00  0.00    +0.240 C 
ENDBRANCH  24  30
ENDBRANCH   1  26
TORSDOF 5
