REMARK  Name = ZINCpk00001AZj39.0
REMARK                            x       y       z     vdW  Elec       q    Type
REMARK                         _______ _______ _______ _____ _____    ______ ____
ROOT
ATOM      1  C   LIG    1       -0.014   1.209   0.009  0.00  0.00    +0.530 C 
ATOM      2  N   LIG    1       -1.191   1.867   0.018  0.00  0.00    -0.620 N 
ATOM      3  C   LIG    1       -1.236   3.337   0.026  0.00  0.00    +0.260 C 
ATOM      4  C   LIG    1       -2.170   3.786   1.156  0.00  0.00    +0.220 C 
ATOM      5  O   LIG    1       -3.424   3.113   1.024  0.00  0.00    -0.370 OA
ATOM      6  C   LIG    1       -3.342   1.691   1.149  0.00  0.00    +0.140 C 
ATOM      7  C   LIG    1       -2.468   1.135   0.014  0.00  0.00    +0.280 C 
ATOM      8  O   LIG    1        0.002  -0.004   0.002  0.00  0.00    -0.530 OA
ENDROOT
BRANCH   1   9
ATOM      9  C   LIG    1        1.280   1.980   0.001  0.00  0.00    +0.050 C 
BRANCH   9  10
ATOM     10  C   LIG    1        2.457   1.002  -0.016  0.00  0.00    +0.130 C 
BRANCH  10  11
ATOM     11  C   LIG    1        3.771   1.784  -0.024  0.00  0.00    +0.040 C 
ATOM     12  N   LIG    1        3.803   3.108   0.603  0.00  0.00    -0.120 NA
ATOM     13  N   LIG    1        3.791   3.115  -0.638  0.00  0.00    -0.120 NA
BRANCH  11  14
ATOM     14  C   LIG    1        5.054   0.951  -0.041  0.00  0.00    +0.120 C 
BRANCH  14  15
ATOM     15  C   LIG    1        6.268   1.883  -0.048  0.00  0.00    +0.160 C 
BRANCH  15  17
ATOM     16  C   LIG    1        8.486   0.442  -0.077  0.00  0.00    +0.030 C 
ATOM     17  C   LIG    1        7.502   1.081  -0.064  0.00  0.00    -0.200 C 
ENDBRANCH  15  17
ENDBRANCH  14  15
ENDBRANCH  11  14
ENDBRANCH  10  11
ENDBRANCH   9  10
ENDBRANCH   1   9
BRANCH   6  18
ATOM     18  C   LIG    1       -4.745   1.088   1.056  0.00  0.00    +0.370 C 
BRANCH  18  19
ATOM     19  N   LIG    1       -5.544   1.531   2.200  0.00  0.00    -0.380 N 
ATOM     20  N   LIG    1       -5.663   0.889   3.444  0.00  0.00    -0.320 NA
ATOM     21  C   LIG    1       -6.467   1.619   4.171  0.00  0.00    +0.230 A 
ATOM     22  N   LIG    1       -6.862   2.671   3.455  0.00  0.00    -0.550 NA
ATOM     23  C   LIG    1       -6.884   1.317   5.587  0.00  0.00    +0.190 C 
ATOM     24  C   LIG    1       -6.315   2.631   2.268  0.00  0.00    +0.300 A 
ATOM     25  C   LIG    1       -6.514   3.640   1.167  0.00  0.00    +0.200 C 
ENDBRANCH  18  19
ENDBRANCH   6  18
TORSDOF 8
