REMARK  Name = ZINCrD000000Az1F.0
REMARK                            x       y       z     vdW  Elec       q    Type
REMARK                         _______ _______ _______ _____ _____    ______ ____
ROOT
ATOM      1  O   LIG    1       -1.696   2.283   1.150  0.00  0.00    -0.530 OA
ATOM      2  C   LIG    1       -0.707   1.588   1.248  0.00  0.00    +0.520 C 
ATOM      3  N   LIG    1       -0.229   1.265   2.466  0.00  0.00    -0.730 N 
ATOM      4  H   LIG    1        0.563   0.709   2.544  0.00  0.00    +0.400 HD
ENDROOT
BRANCH   3   5
ATOM      5  C   LIG    1       -0.903   1.753   3.671  0.00  0.00    +0.380 C 
BRANCH   5   6
ATOM      6  C   LIG    1       -0.174   1.254   4.892  0.00  0.00    -0.030 A 
ATOM      7  C   LIG    1        0.773   1.920   5.576  0.00  0.00    +0.180 A 
ATOM      8  O   LIG    1        1.163   1.128   6.596  0.00  0.00    -0.190 OA
ATOM      9  C   LIG    1        0.458  -0.015   6.519  0.00  0.00    +0.270 A 
ATOM     10  N   LIG    1       -0.352   0.063   5.486  0.00  0.00    -0.460 NA
BRANCH   9  11
ATOM     11  C   LIG    1        0.574  -1.159   7.436  0.00  0.00    -0.150 A 
ATOM     12  C   LIG    1        1.416  -1.231   8.503  0.00  0.00    +0.060 A 
ATOM     13  C   LIG    1        1.338  -2.409   9.212  0.00  0.00    +0.010 A 
ATOM     14  C   LIG    1        0.453  -3.296   8.746  0.00  0.00    -0.040 A 
ATOM     15  S   LIG    1       -0.360  -2.646   7.330  0.00  0.00    +0.210 S 
ENDBRANCH   9  11
ENDBRANCH   5   6
ENDBRANCH   3   5
BRANCH   2  16
ATOM     16  C   LIG    1       -0.013   1.086   0.008  0.00  0.00    +0.100 C 
BRANCH  16  17
ATOM     17  C   LIG    1       -0.742   1.585  -1.213  0.00  0.00    -0.090 A 
ATOM     18  C   LIG    1       -1.761   0.831  -1.764  0.00  0.00    +0.050 A 
ATOM     19  C   LIG    1       -2.434   1.288  -2.880  0.00  0.00    +0.000 A 
ATOM     20  C   LIG    1       -2.079   2.501  -3.455  0.00  0.00    +0.170 A 
ATOM     21  C   LIG    1       -1.052   3.254  -2.902  0.00  0.00    -0.030 A 
ATOM     22  C   LIG    1       -0.386   2.794  -1.783  0.00  0.00    +0.040 A 
BRANCH  20  23
ATOM     23  N   LIG    1       -2.755   2.964  -4.589  0.00  0.00    -0.560 N 
ATOM     24  C   LIG    1       -2.542   4.282  -5.200  0.00  0.00    +0.260 C 
ATOM     25  C   LIG    1       -3.768   4.517  -6.110  0.00  0.00    +0.060 C 
ATOM     26  C   LIG    1       -4.211   3.069  -6.423  0.00  0.00    +0.070 C 
ATOM     27  C   LIG    1       -3.679   2.257  -5.263  0.00  0.00    +0.510 C 
ATOM     28  O   LIG    1       -4.036   1.133  -4.980  0.00  0.00    -0.510 OA
ENDBRANCH  20  23
ENDBRANCH  16  17
ENDBRANCH   2  16
TORSDOF 6
