REMARK  Name = ZINCpe00000WONsO.0
REMARK                            x       y       z     vdW  Elec       q    Type
REMARK                         _______ _______ _______ _____ _____    ______ ____
ROOT
ATOM      1  C   LIG    1       -5.166   1.556  -0.829  0.00  0.00    +0.250 C 
ENDROOT
BRANCH   1   2
ATOM      2  C   LIG    1       -6.632   1.126  -0.747  0.00  0.00    -0.030 C 
ATOM      3  C   LIG    1       -6.891  -0.286  -1.298  0.00  0.00    +0.020 C 
ATOM      4  C   LIG    1       -8.184   0.279  -1.914  0.00  0.00    +0.010 C 
ATOM      5  C   LIG    1       -7.495   1.654  -1.904  0.00  0.00    +0.030 C 
ENDBRANCH   1   2
BRANCH   1   6
ATOM      6  N   LIG    1       -5.082   3.018  -0.766  0.00  0.00    -0.710 N 
ATOM      7  H   LIG    1       -4.923   3.458   0.083  0.00  0.00    +0.410 HD
ATOM      8  C   LIG    1       -5.226   3.750  -1.889  0.00  0.00    +0.610 C 
ATOM      9  O   LIG    1       -5.425   3.197  -2.954  0.00  0.00    -0.530 OA
BRANCH   8  10
ATOM     10  C   LIG    1       -5.141   5.222  -1.826  0.00  0.00    +0.000 A 
ATOM     11  C   LIG    1       -5.268   6.077  -2.882  0.00  0.00    +0.190 A 
ATOM     12  N   LIG    1       -5.125   7.341  -2.394  0.00  0.00    -0.370 N 
ATOM     13  C   LIG    1       -5.159   8.569  -2.995  0.00  0.00    +0.270 A 
ATOM     14  C   LIG    1       -4.986   9.693  -2.273  0.00  0.00    +0.010 A 
ATOM     15  C   LIG    1       -4.766   9.619  -0.884  0.00  0.00    +0.130 A 
ATOM     16  C   LIG    1       -4.729   8.403  -0.271  0.00  0.00    +0.050 A 
ATOM     17  F   LIG    1       -4.592  10.748  -0.163  0.00  0.00    -0.120 F 
ATOM     18  C   LIG    1       -4.913   7.236  -1.041  0.00  0.00    +0.250 A 
ATOM     19  N   LIG    1       -4.931   5.954  -0.715  0.00  0.00    -0.460 NA
ENDBRANCH   8  10
ENDBRANCH   1   6
BRANCH   1  20
ATOM     20  C   LIG    1       -4.390   0.951   0.342  0.00  0.00    +0.280 C 
BRANCH  20  22
ATOM     21  C   LIG    1       -2.143   1.058   1.278  0.00  0.00    +0.520 C 
ATOM     22  N   LIG    1       -3.016   1.458   0.332  0.00  0.00    -0.730 N 
ATOM     23  H   LIG    1       -2.734   2.081  -0.356  0.00  0.00    +0.400 HD
ATOM     24  O   LIG    1       -2.495   0.278   2.137  0.00  0.00    -0.510 OA
BRANCH  21  26
ATOM     25  C   LIG    1       -0.013   1.086   0.008  0.00  0.00    +0.030 C 
ATOM     26  C   LIG    1       -0.729   1.579   1.267  0.00  0.00    +0.170 C 
BRANCH  26  27
ATOM     27  O   LIG    1       -0.038   1.106   2.425  0.00  0.00    -0.540 OA
ATOM     28  H   LIG    1        0.880   1.403   2.483  0.00  0.00    +0.390 HD
ENDBRANCH  26  27
ENDBRANCH  21  26
ENDBRANCH  20  22
ENDBRANCH   1  20
TORSDOF 7
