REMARK  Name = ZINCkj000005hfra.0
REMARK                            x       y       z     vdW  Elec       q    Type
REMARK                         _______ _______ _______ _____ _____    ______ ____
ROOT
ATOM      1  C   LIG    1        6.731   2.506   2.365  0.00  0.00    +0.280 C 
ATOM      2  N   LIG    1        5.997   3.036   1.213  0.00  0.00    -0.600 N 
ATOM      3  C   LIG    1        5.355   4.217   1.308  0.00  0.00    +0.510 C 
ATOM      4  O   LIG    1        4.748   4.655   0.354  0.00  0.00    -0.470 OA
ENDROOT
BRANCH   3   5
ATOM      5  C   LIG    1        5.391   4.992   2.600  0.00  0.00    +0.090 C 
ATOM      6  C   LIG    1        4.439   6.208   2.535  0.00  0.00    +0.110 C 
ATOM      7  C   LIG    1        5.193   7.348   3.243  0.00  0.00    +0.290 C 
ATOM      8  N   LIG    1        6.483   6.793   3.707  0.00  0.00    -0.510 N 
ATOM      9  H   LIG    1        6.401   6.472   4.660  0.00  0.00    +0.440 HD
ATOM     10  H   LIG    1        7.208   7.490   3.634  0.00  0.00    +0.440 HD
ATOM     11  F   LIG    1        5.065   4.166   3.681  0.00  0.00    -0.160 F 
ATOM     12  C   LIG    1        6.780   5.646   2.808  0.00  0.00    +0.300 C 
ENDBRANCH   3   5
BRANCH   2  13
ATOM     13  C   LIG    1        5.962   2.282  -0.042  0.00  0.00    +0.320 C 
BRANCH  13  14
ATOM     14  C   LIG    1        4.760   1.336  -0.036  0.00  0.00    +0.190 C 
BRANCH  14  15
ATOM     15  O   LIG    1        3.552   2.100  -0.020  0.00  0.00    -0.300 OA
BRANCH  15  16
ATOM     16  C   LIG    1        2.383   1.407  -0.013  0.00  0.00    +0.090 A 
ATOM     17  C   LIG    1        2.397   0.021  -0.020  0.00  0.00    -0.040 A 
ATOM     18  C   LIG    1        1.207  -0.681  -0.013  0.00  0.00    +0.050 A 
ATOM     19  C   LIG    1        0.002  -0.004   0.002  0.00  0.00    +0.020 A 
ATOM     20  C   LIG    1       -0.017   1.379   0.010  0.00  0.00    +0.020 A 
ATOM     21  C   LIG    1        1.171   2.087   0.002  0.00  0.00    +0.070 A 
ATOM     22  F   LIG    1        1.153   3.438   0.009  0.00  0.00    -0.130 F 
ENDBRANCH  15  16
ENDBRANCH  14  15
ENDBRANCH  13  14
ENDBRANCH   2  13
TORSDOF 5
