REMARK  Name = ZINCpe000000THfa.0
REMARK                            x       y       z     vdW  Elec       q    Type
REMARK                         _______ _______ _______ _____ _____    ______ ____
ROOT
ATOM      1  C   LIG    1        0.409   4.084  -3.447  0.00  0.00    +0.520 C 
ATOM      2  N   LIG    1        0.490   3.054  -4.313  0.00  0.00    -0.610 N 
ATOM      3  C   LIG    1        1.725   2.265  -4.423  0.00  0.00    +0.270 C 
ATOM      4  C   LIG    1        1.377   0.785  -4.195  0.00  0.00    +0.270 C 
ATOM      5  N   LIG    1        0.235   0.435  -5.051  0.00  0.00    -0.610 N 
ATOM      6  C   LIG    1       -0.998   1.227  -4.944  0.00  0.00    +0.290 C 
ATOM      7  C   LIG    1        0.316  -0.594  -5.917  0.00  0.00    +0.560 C 
ATOM      8  O   LIG    1       -0.656  -0.916  -6.572  0.00  0.00    -0.520 OA
ATOM      9  C   LIG    1       -0.652   2.705  -5.168  0.00  0.00    +0.290 C 
ATOM     10  O   LIG    1       -0.614   4.731  -3.368  0.00  0.00    -0.530 OA
ENDROOT
BRANCH   7  11
ATOM     11  C   LIG    1        1.588  -1.332  -6.071  0.00  0.00    -0.110 A 
ATOM     12  C   LIG    1        2.272  -1.792  -4.944  0.00  0.00    +0.020 A 
ATOM     13  C   LIG    1        3.456  -2.485  -5.091  0.00  0.00    +0.040 A 
ATOM     14  C   LIG    1        3.974  -2.717  -6.352  0.00  0.00    +0.020 A 
ATOM     15  C   LIG    1        3.304  -2.258  -7.479  0.00  0.00    +0.110 A 
ATOM     16  C   LIG    1        2.113  -1.566  -7.342  0.00  0.00    +0.040 A 
BRANCH  15  17
ATOM     17  O   LIG    1        3.819  -2.488  -8.715  0.00  0.00    -0.490 OA
ATOM     18  H   LIG    1        4.414  -1.793  -9.029  0.00  0.00    +0.390 HD
ENDBRANCH  15  17
ENDBRANCH   7  11
BRANCH   1  19
ATOM     19  C   LIG    1        1.589   4.431  -2.576  0.00  0.00    +0.070 C 
BRANCH  19  20
ATOM     20  C   LIG    1        1.235   5.628  -1.692  0.00  0.00    +0.310 C 
BRANCH  20  22
ATOM     21  C   LIG    1        2.301   6.995   0.021  0.00  0.00    +0.650 C 
ATOM     22  N   LIG    1        2.382   5.966  -0.845  0.00  0.00    -0.710 N 
ATOM     23  H   LIG    1        3.200   5.448  -0.908  0.00  0.00    +0.410 HD
ATOM     24  O   LIG    1        1.276   7.643   0.100  0.00  0.00    -0.570 OA
BRANCH  21  25
ATOM     25  O   LIG    1        3.355   7.305   0.799  0.00  0.00    -0.370 OA
BRANCH  25  27
ATOM     26  C   LIG    1        4.488   8.625   2.504  0.00  0.00    +0.070 C 
ATOM     27  C   LIG    1        3.196   8.426   1.709  0.00  0.00    +0.220 C 
ENDBRANCH  25  27
ENDBRANCH  21  25
ENDBRANCH  20  22
ENDBRANCH  19  20
ENDBRANCH   1  19
TORSDOF 7
