REMARK  Name = ZINC660000003ZWl.0
REMARK                            x       y       z     vdW  Elec       q    Type
REMARK                         _______ _______ _______ _____ _____    ______ ____
ROOT
ATOM      1  C   LIG    1       -2.191   2.547  -0.441  0.00  0.00    +0.470 C 
ATOM      2  N   LIG    1       -1.946   2.383   0.809  0.00  0.00    -0.630 NA
ATOM      3  C   LIG    1       -0.791   1.611   1.224  0.00  0.00    +0.360 C 
ATOM      4  C   LIG    1       -0.013   1.086   0.008  0.00  0.00    +0.160 C 
ATOM      5  H   LIG    1       -2.532   2.776   1.475  0.00  0.00    +0.440 HD
ATOM      6  S   LIG    1       -0.963   1.724  -1.410  0.00  0.00    +0.080 S 
ENDROOT
BRANCH   1   7
ATOM      7  N   LIG    1       -3.251   3.260  -0.950  0.00  0.00    -0.760 NA
ATOM      8  H   LIG    1       -3.884   3.685  -0.350  0.00  0.00    +0.430 HD
ATOM      9  H   LIG    1       -3.367   3.338  -1.910  0.00  0.00    +0.450 HD
ENDBRANCH   1   7
TORSDOF 1
