REMARK  Name = ZINCAx0000000gkY.0
REMARK                            x       y       z     vdW  Elec       q    Type
REMARK                         _______ _______ _______ _____ _____    ______ ____
ROOT
ATOM      1  N   LIG    1       -0.020   1.094   2.454  0.00  0.00    -0.510 N 
ATOM      2  C   LIG    1        0.965   1.833   2.997  0.00  0.00    +0.710 A 
ATOM      3  N   LIG    1        1.638   1.421   4.085  0.00  0.00    -0.650 N 
ATOM      4  H   LIG    1        2.343   1.978   4.451  0.00  0.00    +0.440 HD
ATOM      5  C   LIG    1        1.348   0.244   4.677  0.00  0.00    +0.600 A 
ATOM      6  C   LIG    1        0.321  -0.563   4.141  0.00  0.00    -0.140 A 
ATOM      7  N   LIG    1       -0.226  -1.786   4.475  0.00  0.00    -0.390 N 
ATOM      8  C   LIG    1       -1.194  -2.043   3.575  0.00  0.00    +0.280 A 
ATOM      9  N   LIG    1       -1.272  -1.059   2.716  0.00  0.00    -0.470 NA
ATOM     10  O   LIG    1        1.965  -0.119   5.663  0.00  0.00    -0.510 OA
ATOM     11  O   LIG    1        1.255   2.900   2.490  0.00  0.00    -0.530 OA
ATOM     12  C   LIG    1       -0.369  -0.122   3.019  0.00  0.00    +0.320 A 
ENDROOT
BRANCH   1  13
ATOM     13  C   LIG    1       -0.729   1.579   1.267  0.00  0.00    +0.320 C 
BRANCH  13  14
ATOM     14  C   LIG    1       -0.013   1.086   0.008  0.00  0.00    +0.010 C 
BRANCH  14  16
ATOM     15  C   LIG    1       -0.037   1.099  -2.490  0.00  0.00    +0.010 C 
ATOM     16  C   LIG    1       -0.753   1.593  -1.232  0.00  0.00    +0.020 C 
ENDBRANCH  14  16
ENDBRANCH  13  14
ENDBRANCH   1  13
BRANCH   7  17
ATOM     17  C   LIG    1        0.171  -2.641   5.596  0.00  0.00    +0.300 C 
BRANCH  17  18
ATOM     18  C   LIG    1       -0.653  -2.276   6.833  0.00  0.00    +0.010 C 
ATOM     19  C   LIG    1       -0.238  -3.169   8.004  0.00  0.00    +0.040 C 
ENDBRANCH  17  18
ENDBRANCH   7  17
BRANCH   8  20
ATOM     20  C   LIG    1       -2.058  -3.278   3.559  0.00  0.00    +0.370 C 
BRANCH  20  21
ATOM     21  O   LIG    1       -3.249  -3.046   4.357  0.00  0.00    -0.330 OA
BRANCH  21  22
ATOM     22  C   LIG    1       -4.133  -4.059   4.446  0.00  0.00    +0.560 C 
ATOM     23  O   LIG    1       -3.914  -5.108   3.873  0.00  0.00    -0.480 OA
BRANCH  22  24
ATOM     24  C   LIG    1       -5.365  -3.895   5.239  0.00  0.00    +0.050 A 
ATOM     25  N   LIG    1       -5.609  -2.766   5.861  0.00  0.00    -0.140 NA
ATOM     26  N   LIG    1       -6.652  -2.544   6.567  0.00  0.00    -0.350 N 
ATOM     27  C   LIG    1       -7.631  -3.453   6.757  0.00  0.00    +0.520 A 
ATOM     28  C   LIG    1       -7.497  -4.770   6.120  0.00  0.00    -0.140 A 
ATOM     29  C   LIG    1       -8.449  -5.775   6.254  0.00  0.00    +0.090 A 
ATOM     30  C   LIG    1       -8.257  -6.979   5.609  0.00  0.00    +0.030 A 
ATOM     31  C   LIG    1       -7.118  -7.201   4.846  0.00  0.00    +0.060 A 
ATOM     32  C   LIG    1       -6.159  -6.219   4.706  0.00  0.00    +0.070 A 
ATOM     33  O   LIG    1       -8.603  -3.188   7.441  0.00  0.00    -0.490 OA
ATOM     34  C   LIG    1       -6.339  -4.995   5.338  0.00  0.00    -0.030 A 
BRANCH  26  35
ATOM     35  C   LIG    1       -6.791  -1.232   7.205  0.00  0.00    +0.250 C 
ATOM     36  C   LIG    1       -6.803  -0.142   6.131  0.00  0.00    +0.050 C 
ATOM     37  C   LIG    1       -5.615  -1.000   8.155  0.00  0.00    +0.050 C 
ENDBRANCH  26  35
ENDBRANCH  22  24
ENDBRANCH  21  22
ENDBRANCH  20  21
ENDBRANCH   8  20
TORSDOF 10
