REMARK  Name = ZINCqH00000391NS.0
REMARK                            x       y       z     vdW  Elec       q    Type
REMARK                         _______ _______ _______ _____ _____    ______ ____
ROOT
ATOM      1  C   LIG    1        0.305   0.274  -1.408  0.00  0.00    -0.250 A 
ATOM      2  C   LIG    1        0.041   1.057  -2.541  0.00  0.00    +0.150 A 
ATOM      3  C   LIG    1        0.436   0.580  -3.775  0.00  0.00    -0.040 A 
ATOM      4  C   LIG    1        1.078  -0.652  -3.854  0.00  0.00    +0.340 A 
ATOM      5  N   LIG    1        1.312  -1.369  -2.765  0.00  0.00    -0.540 NA
ATOM      6  C   LIG    1        0.959  -0.949  -1.569  0.00  0.00    +0.340 A 
ENDROOT
BRANCH   1   8
ATOM      7  N   LIG    1       -0.840  -0.058   0.728  0.00  0.00    -0.660 N 
ATOM      8  C   LIG    1       -0.096   0.738  -0.066  0.00  0.00    +0.630 C 
ATOM      9  O   LIG    1        0.248   1.836   0.325  0.00  0.00    -0.450 OA
BRANCH   7  10
ATOM     10  C   LIG    1       -2.276   0.193   0.877  0.00  0.00    +0.270 C 
ATOM     11  C   LIG    1       -3.157  -0.786   0.084  0.00  0.00    +0.060 C 
ATOM     12  C   LIG    1       -4.051   0.418  -0.257  0.00  0.00    +0.040 C 
ATOM     13  C   LIG    1       -2.808   1.299  -0.048  0.00  0.00    +0.060 C 
BRANCH  10  15
ATOM     14  N   LIG    1       -3.001   0.474   3.367  0.00  0.00    -0.400 NA
ATOM     15  C   LIG    1       -2.685   0.351   2.282  0.00  0.00    +0.220 C 
ENDBRANCH  10  15
ENDBRANCH   7  10
BRANCH   7  16
ATOM     16  C   LIG    1       -0.213  -1.173   1.441  0.00  0.00    +0.230 C 
ATOM     17  C   LIG    1        1.239  -1.508   1.092  0.00  0.00    +0.020 C 
ATOM     18  C   LIG    1        0.108  -2.435   0.638  0.00  0.00    +0.020 C 
ENDBRANCH   7  16
ENDBRANCH   1   8
BRANCH   4  19
ATOM     19  O   LIG    1        1.467  -1.125  -5.062  0.00  0.00    -0.290 OA
BRANCH  19  20
ATOM     20  C   LIG    1        2.121  -2.396  -5.081  0.00  0.00    +0.270 C 
BRANCH  20  21
ATOM     21  C   LIG    1        2.479  -2.756  -6.500  0.00  0.00    -0.100 A 
ATOM     22  C   LIG    1        1.586  -3.469  -7.278  0.00  0.00    +0.030 A 
ATOM     23  C   LIG    1        1.912  -3.795  -8.581  0.00  0.00    +0.010 A 
ATOM     24  C   LIG    1        3.135  -3.417  -9.103  0.00  0.00    +0.020 A 
ATOM     25  C   LIG    1        4.029  -2.709  -8.323  0.00  0.00    +0.010 A 
ATOM     26  C   LIG    1        3.702  -2.378  -7.022  0.00  0.00    +0.030 A 
ENDBRANCH  20  21
ENDBRANCH  19  20
ENDBRANCH   4  19
TORSDOF 7
