REMARK  Name = ZINCqH0000007jpp.0
REMARK                            x       y       z     vdW  Elec       q    Type
REMARK                         _______ _______ _______ _____ _____    ______ ____
ROOT
ATOM      1  C   LIG    1        0.326   5.167   1.796  0.00  0.00    -0.010 A 
ATOM      2  C   LIG    1       -0.818   5.818   1.284  0.00  0.00    -0.180 A 
ATOM      3  C   LIG    1       -1.186   7.171   1.127  0.00  0.00    +0.300 A 
ATOM      4  N   LIG    1       -2.373   7.219   0.591  0.00  0.00    -0.230 NA
ATOM      5  N   LIG    1       -2.845   5.920   0.370  0.00  0.00    -0.380 N 
ATOM      6  C   LIG    1       -1.886   5.038   0.797  0.00  0.00    +0.320 A 
ATOM      7  N   LIG    1       -1.809   3.715   0.817  0.00  0.00    -0.480 NA
ATOM      8  C   LIG    1       -0.758   3.086   1.293  0.00  0.00    +0.210 A 
ATOM      9  C   LIG    1        0.338   3.774   1.792  0.00  0.00    -0.030 A 
ENDROOT
BRANCH   1  12
ATOM     10  N   LIG    1        2.554   5.295   2.804  0.00  0.00    -0.660 N 
ATOM     11  H   LIG    1        2.552   4.328   2.872  0.00  0.00    +0.410 HD
ATOM     12  C   LIG    1        1.473   5.939   2.320  0.00  0.00    +0.560 C 
ATOM     13  O   LIG    1        1.442   7.154   2.313  0.00  0.00    -0.500 OA
BRANCH  10  17
ATOM     14  C   LIG    1        5.917   7.378   3.969  0.00  0.00    +0.310 A 
ATOM     15  C   LIG    1        4.674   7.957   4.189  0.00  0.00    -0.020 A 
ATOM     16  C   LIG    1        3.534   7.274   3.805  0.00  0.00    +0.120 A 
ATOM     17  C   LIG    1        3.679   6.023   3.208  0.00  0.00    +0.050 A 
ATOM     18  C   LIG    1        4.954   5.506   3.026  0.00  0.00    +0.290 A 
ATOM     19  N   LIG    1        6.019   6.189   3.400  0.00  0.00    -0.520 NA
BRANCH  14  21
ATOM     20  C   LIG    1        8.290   7.395   4.088  0.00  0.00    +0.260 C 
ATOM     21  O   LIG    1        7.041   8.042   4.341  0.00  0.00    -0.310 OA
ENDBRANCH  14  21
ENDBRANCH  10  17
ENDBRANCH   1  12
BRANCH   5  22
ATOM     22  C   LIG    1       -4.139   5.565  -0.216  0.00  0.00    +0.270 C 
ATOM     23  C   LIG    1       -4.237   6.148  -1.628  0.00  0.00    +0.050 C 
ATOM     24  C   LIG    1       -5.265   6.134   0.650  0.00  0.00    +0.050 C 
ENDBRANCH   5  22
BRANCH   8  25
ATOM     25  C   LIG    1       -0.740   1.579   1.291  0.00  0.00    +0.050 C 
ATOM     26  C   LIG    1        0.003   1.076   2.530  0.00  0.00    +0.040 C 
ATOM     27  C   LIG    1       -0.028   1.080   0.032  0.00  0.00    +0.050 C 
ENDBRANCH   8  25
TORSDOF 5
