REMARK  Name = ZINCrD0000073EuY.0
REMARK                            x       y       z     vdW  Elec       q    Type
REMARK                         _______ _______ _______ _____ _____    ______ ____
ROOT
ATOM      1  N   LIG    1       -1.127   1.964   0.018  0.00  0.00    -0.560 N 
ATOM      2  C   LIG    1       -0.800   3.394   0.002  0.00  0.00    +0.310 C 
ATOM      3  C   LIG    1        0.683   3.485   0.424  0.00  0.00    +0.010 C 
ATOM      4  C   LIG    1        1.214   2.092   0.011  0.00  0.00    +0.100 C 
ATOM      5  C   LIG    1       -0.014   1.209   0.023  0.00  0.00    +0.520 C 
ATOM      6  O   LIG    1        0.002  -0.004   0.031  0.00  0.00    -0.500 OA
ENDROOT
BRANCH   1  11
ATOM      7  C   LIG    1       -3.929  -0.421  -0.062  0.00  0.00    +0.160 A 
ATOM      8  C   LIG    1       -5.009   0.443   0.051  0.00  0.00    -0.100 A 
ATOM      9  C   LIG    1       -4.799   1.805   0.153  0.00  0.00    +0.080 A 
ATOM     10  C   LIG    1       -3.514   2.311   0.142  0.00  0.00    -0.060 A 
ATOM     11  C   LIG    1       -2.429   1.451   0.029  0.00  0.00    +0.200 A 
ATOM     12  C   LIG    1       -2.638   0.084  -0.079  0.00  0.00    -0.030 A 
BRANCH   7  14
ATOM     13  C   LIG    1       -5.493  -2.209  -0.145  0.00  0.00    +0.250 C 
ATOM     14  O   LIG    1       -4.137  -1.760  -0.163  0.00  0.00    -0.310 OA
ENDBRANCH   7  14
ENDBRANCH   1  11
BRANCH   3  15
ATOM     15  C   LIG    1        1.394   4.578  -0.332  0.00  0.00    +0.530 C 
ATOM     16  N   LIG    1        2.726   4.735  -0.196  0.00  0.00    -0.720 N 
ATOM     17  H   LIG    1        3.227   4.144   0.387  0.00  0.00    +0.400 HD
ATOM     18  O   LIG    1        0.767   5.317  -1.061  0.00  0.00    -0.520 OA
BRANCH  16  19
ATOM     19  C   LIG    1        3.417   5.798  -0.931  0.00  0.00    +0.320 C 
BRANCH  19  20
ATOM     20  C   LIG    1        4.863   5.419  -1.120  0.00  0.00    -0.090 A 
ATOM     21  C   LIG    1        5.558   4.808  -0.092  0.00  0.00    +0.010 A 
ATOM     22  C   LIG    1        6.883   4.457  -0.268  0.00  0.00    +0.000 A 
ATOM     23  C   LIG    1        7.517   4.726  -1.466  0.00  0.00    +0.000 A 
ATOM     24  C   LIG    1        6.824   5.342  -2.491  0.00  0.00    +0.010 A 
ATOM     25  C   LIG    1        5.497   5.689  -2.318  0.00  0.00    +0.020 A 
ENDBRANCH  19  20
BRANCH  19  26
ATOM     26  C   LIG    1        3.330   7.104  -0.139  0.00  0.00    -0.060 C 
ATOM     27  C   LIG    1        2.766   7.033   1.282  0.00  0.00    +0.010 C 
ATOM     28  C   LIG    1        1.936   7.659   0.159  0.00  0.00    +0.030 C 
ENDBRANCH  19  26
ENDBRANCH  16  19
ENDBRANCH   3  15
TORSDOF 6
