REMARK  Name = ZINCrD00000F5LAg.0
REMARK                            x       y       z     vdW  Elec       q    Type
REMARK                         _______ _______ _______ _____ _____    ______ ____
ROOT
ATOM      1  N   LIG    1       -2.712   3.653  -7.886  0.00  0.00    -0.620 N 
ATOM      2  C   LIG    1       -1.793   3.123  -7.054  0.00  0.00    +0.550 C 
ATOM      3  O   LIG    1       -0.714   2.765  -7.487  0.00  0.00    -0.540 OA
ATOM      4  C   LIG    1       -4.011   4.084  -7.364  0.00  0.00    +0.280 C 
ENDROOT
BRANCH   2   5
ATOM      5  C   LIG    1       -2.094   2.979  -5.630  0.00  0.00    -0.100 C 
ATOM      6  C   LIG    1       -1.174   2.449  -4.796  0.00  0.00    +0.140 C 
BRANCH   6   7
ATOM      7  C   LIG    1       -1.476   2.304  -3.365  0.00  0.00    -0.110 A 
ATOM      8  C   LIG    1       -2.715   2.714  -2.860  0.00  0.00    +0.080 A 
ATOM      9  C   LIG    1       -2.996   2.574  -1.521  0.00  0.00    -0.010 A 
ATOM     10  C   LIG    1       -2.052   2.024  -0.654  0.00  0.00    +0.120 A 
ATOM     11  O   LIG    1       -2.135   1.784   0.683  0.00  0.00    -0.300 OA
ATOM     12  C   LIG    1       -0.811   1.621   1.220  0.00  0.00    +0.240 C 
ATOM     13  C   LIG    1       -0.013   1.086   0.008  0.00  0.00    +0.070 C 
ATOM     14  C   LIG    1       -0.818   1.623  -1.160  0.00  0.00    -0.180 A 
ATOM     15  C   LIG    1       -0.526   1.754  -2.494  0.00  0.00    +0.090 A 
ENDBRANCH   6   7
ENDBRANCH   2   5
BRANCH   1  16
ATOM     16  C   LIG    1       -2.411   3.797  -9.312  0.00  0.00    +0.290 C 
BRANCH  16  17
ATOM     17  C   LIG    1       -2.842   2.531 -10.055  0.00  0.00    +0.060 C 
BRANCH  17  21
ATOM     18  C   LIG    1       -1.969   2.954 -14.220  0.00  0.00    +0.100 A 
ATOM     19  C   LIG    1       -3.196   3.360 -13.722  0.00  0.00    -0.030 A 
ATOM     20  C   LIG    1       -3.477   3.217 -12.376  0.00  0.00    +0.020 A 
ATOM     21  C   LIG    1       -2.532   2.679 -11.523  0.00  0.00    -0.080 A 
ATOM     22  C   LIG    1       -1.305   2.272 -12.014  0.00  0.00    -0.020 A 
ATOM     23  C   LIG    1       -1.019   2.408 -13.362  0.00  0.00    +0.100 A 
BRANCH  18  25
ATOM     24  C   LIG    1       -2.715   3.658 -16.366  0.00  0.00    +0.230 C 
ATOM     25  O   LIG    1       -1.693   3.089 -15.545  0.00  0.00    -0.310 OA
ENDBRANCH  18  25
BRANCH  23  26
ATOM     26  O   LIG    1        0.187   2.008 -13.847  0.00  0.00    -0.310 OA
ATOM     27  C   LIG    1        1.113   1.456 -12.908  0.00  0.00    +0.250 C 
ENDBRANCH  23  26
ENDBRANCH  17  21
ENDBRANCH  16  17
ENDBRANCH   1  16
TORSDOF 7
