REMARK  Name = ZINCkj000005h4im.0
REMARK                            x       y       z     vdW  Elec       q    Type
REMARK                         _______ _______ _______ _____ _____    ______ ____
ROOT
ATOM      1  C   LIG    1       -1.612  -0.882  -1.335  0.00  0.00    +0.290 C 
ATOM      2  N   LIG    1       -1.035   0.321  -1.939  0.00  0.00    -0.610 N 
ATOM      3  C   LIG    1       -0.958   0.431  -3.280  0.00  0.00    +0.570 C 
ATOM      4  O   LIG    1       -0.367   1.368  -3.780  0.00  0.00    -0.510 OA
ENDROOT
BRANCH   2   5
ATOM      5  C   LIG    1       -0.543   1.405  -1.086  0.00  0.00    +0.260 C 
ATOM      6  C   LIG    1        0.583   0.893  -0.164  0.00  0.00    +0.060 C 
ATOM      7  C   LIG    1        0.057   1.105   1.272  0.00  0.00    +0.280 C 
ATOM      8  N   LIG    1       -0.954   2.189   1.142  0.00  0.00    -0.520 N 
ATOM      9  H   LIG    1       -1.599   2.164   1.917  0.00  0.00    +0.440 HD
ATOM     10  H   LIG    1       -0.499   3.088   1.088  0.00  0.00    +0.440 HD
ATOM     11  C   LIG    1       -1.657   1.884  -0.130  0.00  0.00    +0.270 C 
ENDBRANCH   2   5
BRANCH   3  12
ATOM     12  C   LIG    1       -1.591  -0.588  -4.142  0.00  0.00    -0.170 A 
ATOM     13  C   LIG    1       -2.603  -1.405  -3.632  0.00  0.00    +0.080 A 
ATOM     14  C   LIG    1       -3.195  -2.350  -4.441  0.00  0.00    -0.020 A 
ATOM     15  C   LIG    1       -2.778  -2.499  -5.759  0.00  0.00    +0.210 A 
ATOM     16  C   LIG    1       -1.767  -1.691  -6.268  0.00  0.00    +0.020 A 
ATOM     17  C   LIG    1       -1.175  -0.740  -5.467  0.00  0.00    +0.130 A 
BRANCH  15  18
ATOM     18  N   LIG    1       -3.378  -3.463  -6.575  0.00  0.00    -0.340 N 
ATOM     19  C   LIG    1       -4.367  -4.319  -6.209  0.00  0.00    +0.230 A 
ATOM     20  C   LIG    1       -4.668  -5.082  -7.285  0.00  0.00    -0.090 A 
ATOM     21  C   LIG    1       -3.833  -4.691  -8.338  0.00  0.00    +0.270 A 
ATOM     22  N   LIG    1       -3.061  -3.723  -7.915  0.00  0.00    -0.290 NA
ENDBRANCH  15  18
ENDBRANCH   3  12
TORSDOF 3
