REMARK  Name = ZINCzw0000000erm.0
REMARK                            x       y       z     vdW  Elec       q    Type
REMARK                         _______ _______ _______ _____ _____    ______ ____
ROOT
ATOM      1  C   LIG    1       -4.842   2.804   5.985  0.00  0.00    +0.120 A 
ATOM      2  C   LIG    1       -4.224   2.450   4.804  0.00  0.00    +0.030 A 
ATOM      3  C   LIG    1       -3.517   1.245   4.734  0.00  0.00    -0.160 A 
ATOM      4  C   LIG    1       -2.861   0.829   3.549  0.00  0.00    +0.500 A 
ATOM      5  N   LIG    1       -2.207  -0.323   3.564  0.00  0.00    -0.580 NA
ATOM      6  C   LIG    1       -2.164  -1.082   4.655  0.00  0.00    +0.490 A 
ATOM      7  N   LIG    1       -2.760  -0.745   5.783  0.00  0.00    -0.580 NA
ATOM      8  C   LIG    1       -3.449   0.404   5.871  0.00  0.00    +0.170 A 
ATOM      9  C   LIG    1       -4.093   0.789   7.054  0.00  0.00    +0.070 A 
ATOM     10  C   LIG    1       -4.768   1.972   7.104  0.00  0.00    +0.000 A 
ENDROOT
BRANCH   6  11
ATOM     11  N   LIG    1       -1.463  -2.274   4.606  0.00  0.00    -0.390 N 
ATOM     12  C   LIG    1       -0.027  -2.054   4.858  0.00  0.00    +0.240 C 
ATOM     13  C   LIG    1       -0.040  -3.323   5.721  0.00  0.00    +0.170 C 
ATOM     14  C   LIG    1       -1.525  -2.977   5.902  0.00  0.00    +0.250 C 
BRANCH  13  15
ATOM     15  N   LIG    1        0.755  -3.221   6.952  0.00  0.00    -0.390 N 
ATOM     16  C   LIG    1        0.237  -4.165   7.976  0.00  0.00    +0.280 C 
ATOM     17  C   LIG    1        1.448  -4.356   8.925  0.00  0.00    +0.070 C 
ATOM     18  C   LIG    1        2.652  -4.356   7.956  0.00  0.00    +0.060 C 
ATOM     19  C   LIG    1        2.152  -3.631   6.693  0.00  0.00    +0.250 C 
ATOM     20  H   LIG    1        0.730  -2.276   7.306  0.00  0.00    +0.420 HD
ENDBRANCH  13  15
ENDBRANCH   6  11
BRANCH   1  22
ATOM     21  C   LIG    1       -6.149   4.283   7.311  0.00  0.00    +0.250 C 
ATOM     22  O   LIG    1       -5.531   3.973   6.060  0.00  0.00    -0.310 OA
ENDBRANCH   1  22
BRANCH   4  23
ATOM     23  N   LIG    1       -2.898   1.606   2.410  0.00  0.00    -0.680 N 
ATOM     24  H   LIG    1       -3.381   2.448   2.413  0.00  0.00    +0.420 HD
BRANCH  23  25
ATOM     25  C   LIG    1       -2.208   1.161   1.197  0.00  0.00    +0.250 C 
ATOM     26  C   LIG    1       -0.736   1.583   1.264  0.00  0.00    +0.030 C 
ATOM     27  C   LIG    1       -0.013   1.086   0.008  0.00  0.00    +0.310 C 
ATOM     28  N   LIG    1       -0.729   1.575  -1.178  0.00  0.00    -0.970 NA
ATOM     29  C   LIG    1       -2.168   1.303  -1.297  0.00  0.00    +0.310 C 
ATOM     30  C   LIG    1       -2.869   1.797  -0.028  0.00  0.00    +0.030 C 
BRANCH  28  31
ATOM     31  S   LIG    1        0.071   2.418  -2.358  0.00  0.00    +2.600 S 
ATOM     32  O   LIG    1        1.172   3.009  -1.682  0.00  0.00    -0.870 OA
ATOM     33  O   LIG    1       -0.936   3.221  -2.959  0.00  0.00    -0.870 OA
BRANCH  31  34
ATOM     34  C   LIG    1        0.643   1.144  -3.515  0.00  0.00    -0.040 C 
ATOM     35  F   LIG    1        1.489   0.253  -2.846  0.00  0.00    -0.160 F 
ATOM     36  F   LIG    1        1.341   1.749  -4.567  0.00  0.00    -0.160 F 
ATOM     37  F   LIG    1       -0.458   0.448  -4.026  0.00  0.00    -0.160 F 
ENDBRANCH  31  34
ENDBRANCH  28  31
ENDBRANCH  23  25
ENDBRANCH   4  23
TORSDOF 7
