REMARK  Name = ZINCpe000000YUp4.0
REMARK                            x       y       z     vdW  Elec       q    Type
REMARK                         _______ _______ _______ _____ _____    ______ ____
ROOT
ATOM      1  N   LIG    1        0.002  -0.004   0.002  0.00  0.00    -0.600 N 
ATOM      2  C   LIG    1        1.401  -0.448  -0.014  0.00  0.00    +0.410 C 
ATOM      3  C   LIG    1        2.238   0.807  -0.015  0.00  0.00    +0.080 A 
ATOM      4  C   LIG    1        1.356   1.869  -0.001  0.00  0.00    -0.300 A 
ATOM      5  C   LIG    1        2.133   3.050  -0.002  0.00  0.00    +0.330 A 
ATOM      6  N   LIG    1        3.392   2.707  -0.015  0.00  0.00    -0.280 NA
ATOM      7  N   LIG    1        3.481   1.310  -0.024  0.00  0.00    -0.280 N 
ATOM      8  C   LIG    1       -0.016   1.340   0.009  0.00  0.00    +0.600 C 
ATOM      9  O   LIG    1       -1.024   2.022   0.018  0.00  0.00    -0.520 OA
ENDROOT
BRANCH   7  10
ATOM     10  C   LIG    1        4.668   0.564  -0.038  0.00  0.00    +0.130 A 
ATOM     11  C   LIG    1        4.741  -0.640   0.649  0.00  0.00    +0.010 A 
ATOM     12  C   LIG    1        5.910  -1.376   0.629  0.00  0.00    +0.040 A 
ATOM     13  C   LIG    1        7.010  -0.908  -0.066  0.00  0.00    +0.020 A 
ATOM     14  C   LIG    1        6.942   0.293  -0.747  0.00  0.00    +0.040 A 
ATOM     15  C   LIG    1        5.774   1.030  -0.735  0.00  0.00    +0.040 A 
ENDBRANCH   7  10
BRANCH   1  16
ATOM     16  C   LIG    1       -1.174  -0.877   0.009  0.00  0.00    +0.360 C 
BRANCH  16  18
ATOM     17  O   LIG    1       -0.966  -0.695  -2.335  0.00  0.00    -0.520 OA
ATOM     18  C   LIG    1       -1.591  -1.170  -1.410  0.00  0.00    +0.500 C 
ATOM     19  N   LIG    1       -2.657  -1.959  -1.650  0.00  0.00    -0.610 N 
ATOM     20  C   LIG    1       -3.419  -2.546  -0.540  0.00  0.00    +0.270 C 
ATOM     21  C   LIG    1       -3.508  -4.057  -0.742  0.00  0.00    +0.030 C 
ATOM     22  C   LIG    1       -4.088  -4.351  -2.127  0.00  0.00    +0.030 C 
ATOM     23  C   LIG    1       -3.165  -3.772  -3.202  0.00  0.00    +0.150 C 
ATOM     24  C   LIG    1       -3.075  -2.253  -3.028  0.00  0.00    +0.250 C 
BRANCH  23  25
ATOM     25  O   LIG    1       -3.690  -4.073  -4.496  0.00  0.00    -0.560 OA
ATOM     26  H   LIG    1       -3.155  -3.734  -5.227  0.00  0.00    +0.380 HD
ENDBRANCH  23  25
ENDBRANCH  16  18
ENDBRANCH   1  16
TORSDOF 4
