REMARK  Name = ZINCrH000004qZT1.0
REMARK                            x       y       z     vdW  Elec       q    Type
REMARK                         _______ _______ _______ _____ _____    ______ ____
ROOT
ATOM      1  C   LIG    1        7.734  -2.100  -1.960  0.00  0.00    +0.130 C 
ATOM      2  C   LIG    1        7.003  -3.394  -1.535  0.00  0.00    +0.090 C 
ATOM      3  C   LIG    1        5.541  -3.003  -1.509  0.00  0.00    +0.520 C 
ATOM      4  N   LIG    1        5.421  -1.664  -1.501  0.00  0.00    -0.620 N 
ATOM      5  O   LIG    1        4.613  -3.784  -1.498  0.00  0.00    -0.510 OA
ATOM      6  C   LIG    1        6.735  -1.011  -1.516  0.00  0.00    +0.290 C 
ENDROOT
BRANCH   1  10
ATOM      7  C   LIG    1       11.103  -1.757  -0.755  0.00  0.00    +0.220 A 
ATOM      8  N   LIG    1       10.402  -1.794   0.348  0.00  0.00    -0.360 NA
ATOM      9  O   LIG    1        9.222  -1.904   0.089  0.00  0.00    +0.090 OA
ATOM     10  C   LIG    1        9.048  -1.960  -1.235  0.00  0.00    +0.190 A 
ATOM     11  N   LIG    1       10.233  -1.864  -1.785  0.00  0.00    -0.460 NA
BRANCH   7  16
ATOM     12  C   LIG    1       16.827  -1.239  -1.149  0.00  0.00    +0.110 C 
ATOM     13  C   LIG    1       15.330  -1.375  -1.046  0.00  0.00    -0.100 A 
ATOM     14  C   LIG    1       14.724  -1.398   0.196  0.00  0.00    +0.050 A 
ATOM     15  C   LIG    1       13.352  -1.522   0.296  0.00  0.00    +0.050 A 
ATOM     16  C   LIG    1       12.578  -1.624  -0.858  0.00  0.00    -0.010 A 
ATOM     17  C   LIG    1       13.192  -1.605  -2.108  0.00  0.00    +0.040 A 
ATOM     18  C   LIG    1       14.566  -1.476  -2.198  0.00  0.00    +0.100 A 
ATOM     19  F   LIG    1       15.163  -1.452  -3.409  0.00  0.00    -0.130 F 
ENDBRANCH   7  16
ENDBRANCH   1  10
BRANCH   4  20
ATOM     20  C   LIG    1        4.143  -0.949  -1.485  0.00  0.00    +0.300 C 
BRANCH  20  21
ATOM     21  C   LIG    1        3.711  -0.707  -0.037  0.00  0.00    +0.060 C 
BRANCH  21  22
ATOM     22  C   LIG    1        2.396   0.029  -0.021  0.00  0.00    -0.090 A 
ATOM     23  C   LIG    1        1.208  -0.679  -0.014  0.00  0.00    +0.010 A 
ATOM     24  C   LIG    1        0.002  -0.004   0.002  0.00  0.00    +0.000 A 
ATOM     25  C   LIG    1       -0.017   1.378   0.010  0.00  0.00    +0.000 A 
ATOM     26  C   LIG    1        1.171   2.086   0.002  0.00  0.00    +0.000 A 
ATOM     27  C   LIG    1        2.377   1.411  -0.014  0.00  0.00    +0.000 A 
ENDBRANCH  21  22
ENDBRANCH  20  21
ENDBRANCH   4  20
TORSDOF 5
