REMARK  Name = ZINCpe000000WwEc.0
REMARK                            x       y       z     vdW  Elec       q    Type
REMARK                         _______ _______ _______ _____ _____    ______ ____
ROOT
ATOM      1  C   LIG    1        3.863   2.641   2.002  0.00  0.00    +0.570 C 
ATOM      2  N   LIG    1        3.237   2.266   0.869  0.00  0.00    -0.610 N 
ATOM      3  C   LIG    1        3.257   0.863   0.434  0.00  0.00    +0.290 C 
ATOM      4  C   LIG    1        3.808   0.801  -0.996  0.00  0.00    +0.290 C 
ATOM      5  N   LIG    1        3.093   1.788  -1.818  0.00  0.00    -0.610 N 
ATOM      6  C   LIG    1        3.078   3.192  -1.385  0.00  0.00    +0.280 C 
ATOM      7  C   LIG    1        2.467   1.412  -2.951  0.00  0.00    +0.510 C 
ATOM      8  O   LIG    1        2.568   0.271  -3.350  0.00  0.00    -0.520 OA
ATOM      9  C   LIG    1        2.522   3.252   0.048  0.00  0.00    +0.270 C 
ATOM     10  O   LIG    1        4.538   1.840   2.618  0.00  0.00    -0.520 OA
ENDROOT
BRANCH   1  15
ATOM     11  C   LIG    1        4.718   6.021   3.409  0.00  0.00    +0.130 A 
ATOM     12  C   LIG    1        3.471   6.630   3.420  0.00  0.00    -0.060 A 
ATOM     13  C   LIG    1        2.357   5.944   2.971  0.00  0.00    +0.050 A 
ATOM     14  C   LIG    1        2.479   4.651   2.506  0.00  0.00    +0.000 A 
ATOM     15  C   LIG    1        3.729   4.029   2.496  0.00  0.00    -0.090 A 
ATOM     16  C   LIG    1        4.852   4.722   2.949  0.00  0.00    +0.040 A 
BRANCH  11  18
ATOM     17  C   LIG    1        5.599   8.037   4.311  0.00  0.00    +0.250 C 
ATOM     18  O   LIG    1        5.810   6.701   3.850  0.00  0.00    -0.310 OA
ENDBRANCH  11  18
ENDBRANCH   1  15
BRANCH   7  19
ATOM     19  C   LIG    1        1.648   2.412  -3.726  0.00  0.00    +0.270 C 
ATOM     20  C   LIG    1        2.561   3.202  -4.665  0.00  0.00    +0.100 C 
BRANCH  19  21
ATOM     21  N   LIG    1        0.633   1.706  -4.512  0.00  0.00    -0.370 N 
ATOM     22  C   LIG    1        0.790   1.168  -5.734  0.00  0.00    +0.500 A 
ATOM     23  N   LIG    1       -0.347   0.628  -6.089  0.00  0.00    -0.540 NA
ATOM     24  C   LIG    1       -1.253   0.808  -5.129  0.00  0.00    +0.430 A 
ATOM     25  N   LIG    1       -0.700   1.463  -4.142  0.00  0.00    -0.320 NA
ENDBRANCH  19  21
ENDBRANCH   7  19
TORSDOF 4
