REMARK  Name = ZINCqH0000008lvL.1
REMARK                            x       y       z     vdW  Elec       q    Type
REMARK                         _______ _______ _______ _____ _____    ______ ____
ROOT
ATOM      1  C   LIG    1        1.417   2.032  -0.001  0.00  0.00    +0.210 C 
ENDROOT
BRANCH   1   2
ATOM      2  N   LIG    1        1.397   3.501   0.007  0.00  0.00    -0.540 NA
ATOM      3  C   LIG    1        0.824   4.027  -1.240  0.00  0.00    +0.190 C 
ATOM      4  C   LIG    1        0.748   5.553  -1.159  0.00  0.00    +0.210 C 
ATOM      5  N   LIG    1        2.094   6.097  -0.931  0.00  0.00    -0.490 N 
ATOM      6  C   LIG    1        2.667   5.571   0.316  0.00  0.00    +0.200 C 
ATOM      7  C   LIG    1        2.743   4.045   0.236  0.00  0.00    +0.200 C 
BRANCH   5   8
ATOM      8  C   LIG    1        2.075   7.494  -0.923  0.00  0.00    +0.130 A 
ATOM      9  C   LIG    1        1.570   8.189  -2.014  0.00  0.00    -0.010 A 
ATOM     10  C   LIG    1        1.553   9.570  -2.004  0.00  0.00    +0.050 A 
ATOM     11  C   LIG    1        2.037  10.261  -0.909  0.00  0.00    -0.010 A 
ATOM     12  C   LIG    1        2.541   9.572   0.180  0.00  0.00    -0.010 A 
ATOM     13 CL   LIG    1        3.148  10.444   1.553  0.00  0.00    -0.070 Cl
ATOM     14  C   LIG    1        2.556   8.190   0.178  0.00  0.00    -0.020 A 
ENDBRANCH   5   8
ENDBRANCH   1   2
BRANCH   1  15
ATOM     15  C   LIG    1       -0.018   1.503   0.010  0.00  0.00    +0.050 C 
BRANCH  15  18
ATOM     16  N   LIG    1       -1.156  -0.694   0.009  0.00  0.00    -0.730 N 
ATOM     17  H   LIG    1       -2.002  -0.220   0.020  0.00  0.00    +0.400 HD
ATOM     18  C   LIG    1        0.002  -0.004   0.002  0.00  0.00    +0.520 C 
ATOM     19  O   LIG    1        1.060  -0.596  -0.011  0.00  0.00    -0.540 OA
BRANCH  16  21
ATOM     20  C   LIG    1       -1.017  -2.659  -1.440  0.00  0.00    +0.040 C 
ATOM     21  C   LIG    1       -1.136  -2.159   0.001  0.00  0.00    +0.280 C 
BRANCH  21  22
ATOM     22  C   LIG    1       -2.411  -2.682   0.611  0.00  0.00    -0.090 A 
ATOM     23  C   LIG    1       -3.614  -2.059   0.338  0.00  0.00    +0.000 A 
ATOM     24  C   LIG    1       -4.784  -2.541   0.894  0.00  0.00    +0.000 A 
ATOM     25  C   LIG    1       -4.750  -3.641   1.730  0.00  0.00    +0.000 A 
ATOM     26  C   LIG    1       -3.546  -4.261   2.008  0.00  0.00    +0.020 A 
ATOM     27  C   LIG    1       -2.376  -3.781   1.449  0.00  0.00    +0.010 A 
ENDBRANCH  21  22
ENDBRANCH  16  21
ENDBRANCH  15  18
ENDBRANCH   1  15
TORSDOF 6
