REMARK  Name = ZINCrD00000F5Lm5.0
REMARK                            x       y       z     vdW  Elec       q    Type
REMARK                         _______ _______ _______ _____ _____    ______ ____
ROOT
ATOM      1  C   LIG    1        2.135   0.900   0.038  0.00  0.00    +0.160 A 
ATOM      2  C   LIG    1        1.286   1.399  -0.933  0.00  0.00    +0.150 A 
ATOM      3  N   LIG    1        0.040   0.988  -0.648  0.00  0.00    -0.430 NA
ATOM      4  C   LIG    1        0.063   0.257   0.452  0.00  0.00    +0.160 A 
ATOM      5  C   LIG    1       -0.942  -0.408   1.182  0.00  0.00    +0.390 A 
ATOM      6  N   LIG    1       -0.626  -1.076   2.265  0.00  0.00    -0.460 NA
ATOM      7  C   LIG    1        0.636  -1.144   2.701  0.00  0.00    +0.220 A 
ATOM      8  C   LIG    1        1.638  -0.527   2.043  0.00  0.00    +0.030 A 
ATOM      9  C   LIG    1        3.052  -0.622   2.557  0.00  0.00    +0.140 C 
ATOM     10  N   LIG    1        1.365   0.186   0.903  0.00  0.00    -0.370 N 
ENDROOT
BRANCH   2  11
ATOM     11  C   LIG    1        1.683   2.240  -2.088  0.00  0.00    +0.140 A 
ATOM     12  N   LIG    1        2.914   2.569  -2.420  0.00  0.00    -0.250 NA
ATOM     13  N   LIG    1        2.855   3.370  -3.568  0.00  0.00    -0.370 N 
ATOM     14  C   LIG    1        1.558   3.514  -3.915  0.00  0.00    +0.210 A 
ATOM     15  C   LIG    1        4.003   3.951  -4.269  0.00  0.00    +0.360 C 
ATOM     16  C   LIG    1        0.810   2.825  -3.027  0.00  0.00    -0.200 A 
ATOM     17  C   LIG    1       -0.693   2.705  -3.036  0.00  0.00    +0.120 C 
ENDBRANCH   2  11
BRANCH   1  18
ATOM     18  N   LIG    1        3.513   1.091   0.116  0.00  0.00    -0.570 N 
ATOM     19  H   LIG    1        3.959   0.319   0.589  0.00  0.00    +0.350 HD
BRANCH  18  20
ATOM     20  C   LIG    1        3.831   2.366   0.771  0.00  0.00    +0.240 C 
BRANCH  20  24
ATOM     21  C   LIG    1        8.047   3.043   0.598  0.00  0.00    +0.130 A 
ATOM     22  C   LIG    1        7.227   3.505  -0.421  0.00  0.00    -0.020 A 
ATOM     23  C   LIG    1        5.865   3.284  -0.363  0.00  0.00    +0.090 A 
ATOM     24  C   LIG    1        5.318   2.604   0.710  0.00  0.00    -0.120 A 
ATOM     25  C   LIG    1        6.133   2.148   1.729  0.00  0.00    +0.050 A 
ATOM     26  C   LIG    1        7.497   2.360   1.673  0.00  0.00    -0.080 A 
BRANCH  21  28
ATOM     27  C   LIG    1       10.171   2.755   1.627  0.00  0.00    +0.250 C 
ATOM     28  O   LIG    1        9.388   3.258   0.543  0.00  0.00    -0.320 OA
ENDBRANCH  21  28
ENDBRANCH  20  24
ENDBRANCH  18  20
ENDBRANCH   1  18
TORSDOF 5
