REMARK  Name = ZINCpk00000y6vhF.1
REMARK                            x       y       z     vdW  Elec       q    Type
REMARK                         _______ _______ _______ _____ _____    ______ ____
ROOT
ATOM      1  N   LIG    1       -0.729   1.575  -1.178  0.00  0.00    -0.570 N 
ATOM      2  C   LIG    1       -0.092   1.320   0.121  0.00  0.00    +0.280 C 
ATOM      3  C   LIG    1       -1.021   1.813   1.235  0.00  0.00    +0.010 C 
ATOM      4  C   LIG    1       -2.398   1.159   1.067  0.00  0.00    +0.020 C 
ATOM      5  C   LIG    1       -2.998   1.565  -0.281  0.00  0.00    +0.130 C 
ATOM      6  C   LIG    1       -2.088   1.069  -1.410  0.00  0.00    +0.290 C 
ENDROOT
BRANCH   1  12
ATOM      7  C   LIG    1        3.375   3.713  -2.863  0.00  0.00    +0.330 C 
ATOM      8  N   LIG    1        1.966   3.330  -2.987  0.00  0.00    -0.480 N 
ATOM      9  C   LIG    1        1.255   3.664  -4.101  0.00  0.00    +0.150 A 
ATOM     10  C   LIG    1       -0.043   3.317  -4.224  0.00  0.00    +0.190 A 
ATOM     11  N   LIG    1       -0.679   2.634  -3.273  0.00  0.00    -0.510 NA
ATOM     12  C   LIG    1       -0.058   2.282  -2.167  0.00  0.00    +0.350 A 
ATOM     13  C   LIG    1        1.354   2.642  -1.997  0.00  0.00    +0.480 A 
ATOM     14  O   LIG    1        1.961   2.327  -0.988  0.00  0.00    -0.530 OA
ENDBRANCH   1  12
BRANCH   5  15
ATOM     15  N   LIG    1       -4.331   0.963  -0.426  0.00  0.00    -0.680 NA
ATOM     16  H   LIG    1       -4.548   0.796  -1.397  0.00  0.00    +0.340 HD
BRANCH  15  17
ATOM     17  C   LIG    1       -5.358   1.801   0.207  0.00  0.00    +0.250 C 
BRANCH  17  18
ATOM     18  C   LIG    1       -6.708   1.153   0.039  0.00  0.00    -0.240 A 
ATOM     19  C   LIG    1       -7.280   0.272   0.892  0.00  0.00    +0.250 A 
ATOM     20  N   LIG    1       -8.483  -0.070   0.384  0.00  0.00    -0.360 N 
ATOM     21  N   LIG    1       -8.656   0.624  -0.821  0.00  0.00    -0.290 NA
ATOM     22  C   LIG    1       -7.594   1.361  -1.024  0.00  0.00    +0.230 A 
BRANCH  20  23
ATOM     23  C   LIG    1       -9.439  -1.002   0.986  0.00  0.00    +0.180 C 
ATOM     24  C   LIG    1       -8.699  -2.251   1.469  0.00  0.00    +0.060 C 
ATOM     25  C   LIG    1      -10.487  -1.401  -0.055  0.00  0.00    +0.060 C 
ATOM     26  C   LIG    1      -10.130  -0.329   2.173  0.00  0.00    +0.050 C 
ENDBRANCH  20  23
ENDBRANCH  17  18
ENDBRANCH  15  17
ENDBRANCH   5  15
TORSDOF 5
