REMARK  Name = ZINCpk00000y6vhf.0
REMARK                            x       y       z     vdW  Elec       q    Type
REMARK                         _______ _______ _______ _____ _____    ______ ____
ROOT
ATOM      1  C   LIG    1       -3.869   1.097  -9.103  0.00  0.00    +0.220 A 
ATOM      2  N   LIG    1       -4.118   1.937 -10.078  0.00  0.00    -0.260 NA
ATOM      3  N   LIG    1       -3.427   3.013  -9.924  0.00  0.00    -0.250 NA
ATOM      4  C   LIG    1       -2.695   2.908  -8.827  0.00  0.00    +0.110 A 
ATOM      5  C   LIG    1       -1.774   3.758  -8.185  0.00  0.00    +0.190 A 
ATOM      6  C   LIG    1       -1.176   3.340  -7.038  0.00  0.00    -0.030 A 
ATOM      7  C   LIG    1       -1.477   2.071  -6.506  0.00  0.00    +0.420 A 
ATOM      8  N   LIG    1       -2.331   1.276  -7.106  0.00  0.00    -0.340 NA
ATOM      9  N   LIG    1       -2.967   1.677  -8.283  0.00  0.00    -0.260 N 
ENDROOT
BRANCH   7  10
ATOM     10  N   LIG    1       -0.857   1.654  -5.333  0.00  0.00    -0.590 N 
ATOM     11  C   LIG    1       -1.055   0.289  -4.826  0.00  0.00    +0.300 C 
ATOM     12  C   LIG    1       -1.530   0.367  -3.372  0.00  0.00    +0.020 C 
ATOM     13  C   LIG    1       -0.538   1.201  -2.559  0.00  0.00    +0.280 C 
ATOM     14  C   LIG    1       -0.480   2.622  -3.125  0.00  0.00    +0.020 C 
ATOM     15  C   LIG    1        0.007   2.570  -4.576  0.00  0.00    +0.300 C 
BRANCH  13  16
ATOM     16  N   LIG    1       -0.971   1.250  -1.161  0.00  0.00    -0.630 N 
ATOM     17  C   LIG    1       -0.195   0.763  -0.010  0.00  0.00    +0.250 C 
ATOM     18  C   LIG    1       -1.102   1.054   1.201  0.00  0.00    +0.250 C 
ATOM     19  N   LIG    1       -2.297   1.674   0.601  0.00  0.00    -0.740 N 
ATOM     20  H   LIG    1       -3.076   1.982   1.091  0.00  0.00    +0.430 HD
ATOM     21  C   LIG    1       -2.138   1.745  -0.727  0.00  0.00    +0.700 C 
ATOM     22  O   LIG    1       -2.976   2.216  -1.471  0.00  0.00    -0.580 OA
ENDBRANCH  13  16
ENDBRANCH   7  10
BRANCH   1  24
ATOM     23  C   LIG    1       -5.232  -0.326  -7.598  0.00  0.00    +0.050 C 
ATOM     24  C   LIG    1       -4.480  -0.269  -8.929  0.00  0.00    +0.030 C 
ATOM     25  C   LIG    1       -3.374  -1.327  -8.935  0.00  0.00    +0.050 C 
ATOM     26  C   LIG    1       -5.453  -0.543 -10.077  0.00  0.00    +0.080 C 
ENDBRANCH   1  24
TORSDOF 3
