REMARK  Name = ZINCrD0000074fHA.0
REMARK                            x       y       z     vdW  Elec       q    Type
REMARK                         _______ _______ _______ _____ _____    ______ ____
ROOT
ATOM      1  C   LIG    1        2.395  -0.997  -1.010  0.00  0.00    +0.080 C 
ATOM      2  C   LIG    1        2.678   0.305  -1.763  0.00  0.00    +0.150 C 
ATOM      3  C   LIG    1        3.210   1.361  -0.780  0.00  0.00    +0.240 C 
ATOM      4  N   LIG    1        3.644   2.533  -1.557  0.00  0.00    -0.610 N 
ATOM      5  C   LIG    1        4.552   2.312  -2.693  0.00  0.00    +0.280 C 
ATOM      6  C   LIG    1        3.959   1.210  -3.579  0.00  0.00    +0.220 C 
ATOM      7  C   LIG    1        3.225   3.773  -1.234  0.00  0.00    +0.530 C 
ATOM      8  O   LIG    1        3.535   4.717  -1.928  0.00  0.00    -0.520 OA
ATOM      9  O   LIG    1        3.661   0.068  -2.774  0.00  0.00    -0.370 OA
ENDROOT
BRANCH   7  10
ATOM     10  C   LIG    1        2.373   3.985  -0.009  0.00  0.00    -0.030 C 
ATOM     11  C   LIG    1        2.195   5.486   0.239  0.00  0.00    +0.040 C 
ATOM     12  C   LIG    1        1.447   6.106  -0.944  0.00  0.00    +0.230 C 
ATOM     13  O   LIG    1        0.190   5.447  -1.109  0.00  0.00    -0.380 OA
ATOM     14  C   LIG    1        0.296   4.050  -1.390  0.00  0.00    +0.210 C 
ATOM     15  C   LIG    1        0.998   3.347  -0.225  0.00  0.00    +0.050 C 
BRANCH  10  16
ATOM     16  C   LIG    1        3.040   3.352   1.185  0.00  0.00    +0.110 A 
ATOM     17  N   LIG    1        2.372   2.488   1.923  0.00  0.00    -0.450 NA
ATOM     18  C   LIG    1        2.914   1.910   2.977  0.00  0.00    +0.270 A 
ATOM     19  C   LIG    1        4.217   2.188   3.345  0.00  0.00    +0.010 A 
ATOM     20  C   LIG    1        4.952   3.095   2.597  0.00  0.00    +0.050 A 
ATOM     21  C   LIG    1        4.348   3.684   1.495  0.00  0.00    +0.060 A 
ATOM     22  F   LIG    1        5.028   4.569   0.734  0.00  0.00    -0.120 F 
ENDBRANCH  10  16
ENDBRANCH   7  10
BRANCH   6  23
ATOM     23  C   LIG    1        4.956   0.830  -4.644  0.00  0.00    -0.110 A 
ATOM     24  C   LIG    1        5.927  -0.060  -4.432  0.00  0.00    -0.010 A 
ATOM     25  S   LIG    1        6.885  -0.247  -5.895  0.00  0.00    +0.110 S 
ATOM     26  C   LIG    1        5.889   0.936  -6.734  0.00  0.00    -0.040 A 
ATOM     27  C   LIG    1        4.937   1.382  -5.913  0.00  0.00    +0.010 A 
ENDBRANCH   6  23
TORSDOF 3
