REMARK  Name = ZINCqH0000005iy4.0
REMARK                            x       y       z     vdW  Elec       q    Type
REMARK                         _______ _______ _______ _____ _____    ______ ____
ROOT
ATOM      1  O   LIG    1        1.234  -2.039  -0.021  0.00  0.00    -0.280 OA
ENDROOT
BRANCH   1   2
ATOM      2  C   LIG    1        1.213  -0.680  -0.013  0.00  0.00    +0.130 A 
ATOM      3  C   LIG    1        0.002  -0.004   0.002  0.00  0.00    -0.080 A 
ATOM      4  C   LIG    1       -0.017   1.377   0.010  0.00  0.00    +0.050 A 
ATOM      5  C   LIG    1        1.170   2.086   0.002  0.00  0.00    -0.020 A 
ATOM      6  C   LIG    1        2.379   1.415  -0.013  0.00  0.00    +0.050 A 
ATOM      7  C   LIG    1        2.403   0.034  -0.021  0.00  0.00    -0.100 A 
BRANCH   7   8
ATOM      8  C   LIG    1        3.721  -0.698  -0.037  0.00  0.00    +0.130 C 
BRANCH   8   9
ATOM      9  C   LIG    1        4.087  -1.042  -1.457  0.00  0.00    -0.080 A 
ATOM     10  C   LIG    1        3.682  -2.247  -2.002  0.00  0.00    +0.030 A 
ATOM     11  C   LIG    1        4.013  -2.561  -3.307  0.00  0.00    +0.000 A 
ATOM     12  C   LIG    1        4.758  -1.675  -4.063  0.00  0.00    +0.000 A 
ATOM     13  C   LIG    1        5.168  -0.474  -3.516  0.00  0.00    +0.000 A 
ATOM     14  C   LIG    1        4.832  -0.157  -2.213  0.00  0.00    +0.000 A 
ENDBRANCH   8   9
ENDBRANCH   7   8
ENDBRANCH   1   2
BRANCH   1  15
ATOM     15  C   LIG    1       -0.029  -2.707  -0.013  0.00  0.00    +0.220 C 
BRANCH  15  18
ATOM     16  C   LIG    1       -2.226  -4.497  -0.003  0.00  0.00    +0.290 C 
ATOM     17  N   LIG    1       -0.864  -5.036  -0.019  0.00  0.00    -0.610 N 
ATOM     18  C   LIG    1        0.192  -4.198  -0.024  0.00  0.00    +0.520 C 
ATOM     19  O   LIG    1        1.320  -4.644  -0.037  0.00  0.00    -0.510 OA
BRANCH  17  20
ATOM     20  C   LIG    1       -0.650  -6.485  -0.029  0.00  0.00    +0.350 C 
BRANCH  20  21
ATOM     21  C   LIG    1       -0.563  -6.990   1.388  0.00  0.00    -0.170 A 
ATOM     22  C   LIG    1        0.661  -7.055   2.036  0.00  0.00    +0.090 A 
ATOM     23  C   LIG    1        0.692  -7.521   3.342  0.00  0.00    -0.030 A 
ATOM     24  C   LIG    1       -0.487  -7.913   3.946  0.00  0.00    +0.260 A 
ATOM     25  N   LIG    1       -1.633  -7.842   3.296  0.00  0.00    -0.490 NA
ATOM     26  C   LIG    1       -1.702  -7.399   2.057  0.00  0.00    +0.260 A 
ENDBRANCH  20  21
ENDBRANCH  17  20
ENDBRANCH  15  18
ENDBRANCH   1  15
TORSDOF 7
