REMARK  Name = ZINCvU0000000E0e.0
REMARK                            x       y       z     vdW  Elec       q    Type
REMARK                         _______ _______ _______ _____ _____    ______ ____
ROOT
ATOM      1  N   LIG    1       -4.894   2.432   4.076  0.00  0.00    -0.680 N 
ATOM      2  H   LIG    1       -4.803   3.382   3.900  0.00  0.00    +0.410 HD
ATOM      3  C   LIG    1       -5.814   1.995   4.959  0.00  0.00    +0.700 C 
ATOM      4  N   LIG    1       -6.670   2.868   5.527  0.00  0.00    -0.680 N 
ATOM      5  H   LIG    1       -6.669   3.797   5.252  0.00  0.00    +0.410 HD
ATOM      6  O   LIG    1       -5.871   0.814   5.242  0.00  0.00    -0.550 OA
ENDROOT
BRANCH   1  11
ATOM      7  C   LIG    1       -2.870   0.844   1.448  0.00  0.00    -0.100 A 
ATOM      8  C   LIG    1       -2.445  -0.298   2.101  0.00  0.00    +0.030 A 
ATOM      9  C   LIG    1       -2.823  -0.532   3.410  0.00  0.00    +0.030 A 
ATOM     10  C   LIG    1       -3.636   0.370   4.067  0.00  0.00    +0.030 A 
ATOM     11  C   LIG    1       -4.069   1.516   3.413  0.00  0.00    +0.150 A 
ATOM     12  C   LIG    1       -3.684   1.750   2.100  0.00  0.00    -0.010 A 
BRANCH   7  13
ATOM     13  C   LIG    1       -2.452   1.097   0.023  0.00  0.00    +0.360 C 
BRANCH  13  15
ATOM     14  C   LIG    1       -1.233   3.323   0.002  0.00  0.00    +0.290 C 
ATOM     15  N   LIG    1       -1.200   1.858   0.010  0.00  0.00    -0.600 N 
ATOM     16  C   LIG    1       -0.018   1.211   0.004  0.00  0.00    +0.650 C 
ATOM     17  O   LIG    1        0.010  -0.004   0.011  0.00  0.00    -0.560 OA
BRANCH  16  18
ATOM     18  O   LIG    1        1.133   1.910  -0.013  0.00  0.00    -0.360 OA
BRANCH  18  19
ATOM     19  C   LIG    1        2.368   1.147  -0.024  0.00  0.00    +0.140 C 
ATOM     20  C   LIG    1        2.438   0.272   1.229  0.00  0.00    +0.040 C 
ATOM     21  C   LIG    1        3.560   2.106  -0.044  0.00  0.00    +0.080 C 
ATOM     22  C   LIG    1        2.407   0.259  -1.269  0.00  0.00    +0.040 C 
ENDBRANCH  18  19
ENDBRANCH  16  18
ENDBRANCH  13  15
ENDBRANCH   7  13
ENDBRANCH   1  11
BRANCH   4  23
ATOM     23  C   LIG    1       -7.559   2.431   6.514  0.00  0.00    +0.170 A 
ATOM     24  C   LIG    1       -8.115   1.160   6.435  0.00  0.00    +0.040 A 
ATOM     25  C   LIG    1       -8.988   0.725   7.408  0.00  0.00    +0.050 A 
ATOM     26  C   LIG    1       -9.324   1.568   8.470  0.00  0.00    -0.030 A 
ATOM     27  C   LIG    1       -8.768   2.847   8.544  0.00  0.00    +0.050 A 
ATOM     28  C   LIG    1       -7.891   3.273   7.570  0.00  0.00    -0.010 A 
BRANCH  26  29
ATOM     29  C   LIG    1      -10.265   1.108   9.512  0.00  0.00    +0.030 A 
ATOM     30  C   LIG    1      -10.873  -0.108   9.557  0.00  0.00    -0.040 A 
ATOM     31  C   LIG    1      -11.679  -0.115  10.714  0.00  0.00    -0.060 A 
ATOM     32  C   LIG    1      -11.524   1.083  11.310  0.00  0.00    +0.170 A 
ATOM     33  O   LIG    1      -10.665   1.817  10.585  0.00  0.00    -0.170 OA
ENDBRANCH  26  29
ENDBRANCH   4  23
TORSDOF 7
