REMARK  Name = ZINCwl00000004CA.1
REMARK                            x       y       z     vdW  Elec       q    Type
REMARK                         _______ _______ _______ _____ _____    ______ ____
ROOT
ATOM      1  C   LIG    1       -1.544  -0.723  -0.278  0.00  0.00    -0.390 A 
ATOM      2  C   LIG    1       -2.708  -1.462   0.039  0.00  0.00    +0.510 A 
ATOM      3  N   LIG    1       -3.833  -0.820   0.320  0.00  0.00    -0.580 NA
ATOM      4  C   LIG    1       -3.902   0.511   0.302  0.00  0.00    +0.430 A 
ATOM      5  C   LIG    1       -5.125   1.138   0.604  0.00  0.00    +0.020 A 
ATOM      6  C   LIG    1       -5.205   2.498   0.588  0.00  0.00    +0.160 A 
ATOM      7  C   LIG    1       -4.068   3.255   0.272  0.00  0.00    -0.120 A 
ATOM      8  C   LIG    1       -2.901   2.636  -0.015  0.00  0.00    +0.290 A 
ATOM      9  C   LIG    1       -4.147   4.759   0.252  0.00  0.00    +0.130 C 
ATOM     10  N   LIG    1       -2.810   1.276  -0.002  0.00  0.00    -0.420 N 
ATOM     11  C   LIG    1       -1.629   0.690  -0.294  0.00  0.00    +0.530 A 
ATOM     12  O   LIG    1       -0.652   1.366  -0.566  0.00  0.00    -0.490 OA
ENDROOT
BRANCH   1  17
ATOM     13  N   LIG    1        2.887  -1.580   1.096  0.00  0.00    -0.510 N 
ATOM     14  C   LIG    1        2.006  -1.875   0.155  0.00  0.00    +0.550 C 
ATOM     15  C   LIG    1        0.743  -1.246   0.258  0.00  0.00    -0.270 C 
ATOM     16  S   LIG    1        0.867  -0.244   1.717  0.00  0.00    +0.110 S 
ATOM     17  C   LIG    1       -0.328  -1.380  -0.577  0.00  0.00    +0.300 C 
ATOM     18  O   LIG    1        2.268  -2.646  -0.752  0.00  0.00    -0.460 OA
ATOM     19  C   LIG    1        2.538  -0.724   2.067  0.00  0.00    +0.260 C 
ATOM     20  S   LIG    1        3.507  -0.200   3.377  0.00  0.00    -0.340 S 
BRANCH  13  21
ATOM     21  C   LIG    1        4.223  -2.179   1.077  0.00  0.00    +0.350 C 
BRANCH  21  23
ATOM     22  C   LIG    1        6.269  -0.870   0.829  0.00  0.00    +0.090 C 
ATOM     23  C   LIG    1        5.157  -1.300   0.286  0.00  0.00    -0.090 C 
ENDBRANCH  21  23
ENDBRANCH  13  21
ENDBRANCH   1  17
BRANCH   2  24
ATOM     24  N   LIG    1       -2.672  -2.839   0.061  0.00  0.00    -0.630 N 
ATOM     25  C   LIG    1       -1.530  -3.556   0.649  0.00  0.00    +0.320 C 
ATOM     26  C   LIG    1       -2.074  -4.600   1.636  0.00  0.00    +0.260 C 
ATOM     27  N   LIG    1       -3.042  -5.464   0.947  0.00  0.00    -0.380 N 
ATOM     28  C   LIG    1       -4.207  -4.674   0.527  0.00  0.00    +0.250 C 
ATOM     29  H   LIG    1       -2.605  -5.875   0.135  0.00  0.00    +0.430 HD
ATOM     30  C   LIG    1       -3.771  -3.634  -0.510  0.00  0.00    +0.340 C 
BRANCH  27  31
ATOM     31  C   LIG    1       -3.478  -6.531   1.857  0.00  0.00    +0.270 C 
BRANCH  31  32
ATOM     32  C   LIG    1       -4.358  -7.523   1.094  0.00  0.00    +0.220 C 
BRANCH  32  33
ATOM     33  O   LIG    1       -3.588  -8.152   0.068  0.00  0.00    -0.580 OA
ATOM     34  H   LIG    1       -4.084  -8.796  -0.457  0.00  0.00    +0.410 HD
ENDBRANCH  32  33
ENDBRANCH  31  32
ENDBRANCH  27  31
ENDBRANCH   2  24
TORSDOF 7
