REMARK  Name = ZINCrH000004pGF8.0
REMARK                            x       y       z     vdW  Elec       q    Type
REMARK                         _______ _______ _______ _____ _____    ______ ____
ROOT
ATOM      1  C   LIG    1       -0.341   6.211  -1.389  0.00  0.00    +0.350 A 
ATOM      2  N   LIG    1       -1.241   5.246  -1.385  0.00  0.00    -0.490 NA
ATOM      3  C   LIG    1       -0.825   3.992  -1.659  0.00  0.00    +0.070 A 
ATOM      4  C   LIG    1        0.515   3.711  -1.940  0.00  0.00    -0.240 A 
ATOM      5  C   LIG    1        0.754   2.308  -2.206  0.00  0.00    -0.030 A 
ATOM      6  C   LIG    1       -0.349   1.554  -2.133  0.00  0.00    -0.210 A 
ATOM      7  C   LIG    1       -0.378   0.055  -2.368  0.00  0.00    +0.120 C 
ATOM      8  C   LIG    1        0.907  -0.360  -3.087  0.00  0.00    +0.020 C 
ATOM      9  C   LIG    1        2.106   0.228  -2.337  0.00  0.00    +0.020 C 
ATOM     10  C   LIG    1        2.129   1.744  -2.539  0.00  0.00    +0.110 C 
ATOM     11  C   LIG    1        1.470   4.775  -1.938  0.00  0.00    +0.570 A 
ATOM     12  O   LIG    1        2.651   4.587  -2.175  0.00  0.00    -0.500 OA
ATOM     13  S   LIG    1       -1.763   2.521  -1.737  0.00  0.00    +0.200 S 
ATOM     14  N   LIG    1        0.979   6.005  -1.654  0.00  0.00    -0.520 N 
ATOM     15  C   LIG    1        1.894   7.148  -1.632  0.00  0.00    +0.330 C 
ENDROOT
BRANCH   1  16
ATOM     16  S   LIG    1       -0.875   7.852  -1.034  0.00  0.00    +0.090 S 
BRANCH  16  17
ATOM     17  C   LIG    1       -2.642   7.558  -0.771  0.00  0.00    +0.100 C 
BRANCH  17  26
ATOM     18  C   LIG    1       -4.357  11.335  -0.246  0.00  0.00    +0.060 C 
ATOM     19  C   LIG    1       -5.356  10.184  -0.105  0.00  0.00    +0.220 C 
ATOM     20  C   LIG    1       -6.456  10.321  -1.169  0.00  0.00    +0.020 C 
ATOM     21  C   LIG    1       -7.371   9.096  -1.109  0.00  0.00    +0.020 C 
ATOM     22  C   LIG    1       -6.560   7.835  -1.414  0.00  0.00    +0.020 C 
ATOM     23  C   LIG    1       -5.462   7.671  -0.358  0.00  0.00    +0.230 C 
ATOM     24  C   LIG    1       -6.100   7.417   1.009  0.00  0.00    +0.030 C 
ATOM     25  N   LIG    1       -4.665   8.904  -0.309  0.00  0.00    -0.600 N 
ATOM     26  C   LIG    1       -3.325   8.861  -0.443  0.00  0.00    +0.530 C 
ATOM     27  O   LIG    1       -2.668   9.870  -0.300  0.00  0.00    -0.520 OA
ENDBRANCH  17  26
ENDBRANCH  16  17
ENDBRANCH   1  16
TORSDOF 3
