REMARK  Name = ZINCrH000004mTxm.2
REMARK                            x       y       z     vdW  Elec       q    Type
REMARK                         _______ _______ _______ _____ _____    ______ ____
ROOT
ATOM      1  N   LIG    1        5.720   4.912  -3.532  0.00  0.00    -0.660 N 
ATOM      2  H   LIG    1        6.093   5.724  -3.154  0.00  0.00    +0.420 HD
ATOM      3  C   LIG    1        4.821   4.194  -2.831  0.00  0.00    +0.520 C 
ATOM      4  O   LIG    1        4.407   3.143  -3.272  0.00  0.00    -0.490 OA
ENDROOT
BRANCH   1   9
ATOM      5  C   LIG    1        6.462   2.722  -6.397  0.00  0.00    +0.120 A 
ATOM      6  C   LIG    1        6.903   3.649  -7.330  0.00  0.00    -0.060 A 
ATOM      7  C   LIG    1        6.952   4.992  -7.005  0.00  0.00    -0.020 A 
ATOM      8  C   LIG    1        6.560   5.415  -5.745  0.00  0.00    +0.060 A 
ATOM      9  C   LIG    1        6.117   4.487  -4.806  0.00  0.00    +0.160 A 
ATOM     10  C   LIG    1        6.073   3.140  -5.133  0.00  0.00    +0.040 A 
BRANCH   5  12
ATOM     11  C   LIG    1        6.835   1.042  -8.038  0.00  0.00    +0.230 C 
ATOM     12  O   LIG    1        6.415   1.402  -6.720  0.00  0.00    -0.310 OA
ENDBRANCH   5  12
BRANCH   8  13
ATOM     13  O   LIG    1        6.609   6.737  -5.426  0.00  0.00    -0.320 OA
ATOM     14  C   LIG    1        7.074   7.632  -6.438  0.00  0.00    +0.240 C 
ENDBRANCH   8  13
ENDBRANCH   1   9
BRANCH   3  15
ATOM     15  C   LIG    1        4.329   4.697  -1.498  0.00  0.00    +0.210 C 
BRANCH  15  16
ATOM     16  N   LIG    1        3.286   3.796  -0.989  0.00  0.00    -0.480 NA
BRANCH  16  17
ATOM     17  C   LIG    1        2.531   4.427   0.102  0.00  0.00    +0.190 C 
ATOM     18  C   LIG    1        2.205   5.894  -0.252  0.00  0.00    +0.050 C 
ATOM     19  C   LIG    1        0.817   6.089   0.394  0.00  0.00    +0.080 C 
ATOM     20  C   LIG    1        0.202   4.707   0.438  0.00  0.00    -0.090 A 
ATOM     21  C   LIG    1       -1.115   4.315   0.611  0.00  0.00    +0.010 A 
ATOM     22  C   LIG    1       -1.447   2.974   0.610  0.00  0.00    +0.000 A 
ATOM     23  C   LIG    1       -0.461   2.019   0.448  0.00  0.00    +0.000 A 
ATOM     24  C   LIG    1        0.853   2.408   0.275  0.00  0.00    +0.040 A 
ATOM     25  C   LIG    1        1.187   3.751   0.270  0.00  0.00    -0.080 A 
ENDBRANCH  16  17
BRANCH  16  26
ATOM     26  C   LIG    1        3.862   2.515  -0.558  0.00  0.00    +0.170 C 
ATOM     27  C   LIG    1        3.638   2.093   0.896  0.00  0.00    +0.010 C 
ATOM     28  C   LIG    1        5.022   2.562   0.439  0.00  0.00    -0.030 C 
ENDBRANCH  16  26
ENDBRANCH  15  16
ENDBRANCH   3  15
TORSDOF 7
