REMARK  Name = ZINCrD00000l2d4H.0
REMARK                            x       y       z     vdW  Elec       q    Type
REMARK                         _______ _______ _______ _____ _____    ______ ____
ROOT
ATOM      1  C   LIG    1       -2.378   4.930   7.510  0.00  0.00    -0.030 C 
ATOM      2  C   LIG    1       -1.404   3.772   7.749  0.00  0.00    +0.020 C 
ATOM      3  C   LIG    1       -2.191   2.546   8.228  0.00  0.00    +0.210 C 
ATOM      4  O   LIG    1       -2.916   2.880   9.413  0.00  0.00    -0.380 OA
ATOM      5  C   LIG    1       -3.874   3.926   9.236  0.00  0.00    +0.220 C 
ATOM      6  C   LIG    1       -3.156   5.205   8.800  0.00  0.00    +0.010 C 
ENDROOT
BRANCH   1  11
ATOM      7  C   LIG    1       -0.128   7.286   5.602  0.00  0.00    -0.170 A 
ATOM      8  C   LIG    1       -0.194   8.424   6.384  0.00  0.00    +0.070 A 
ATOM      9  C   LIG    1       -0.967   8.431   7.531  0.00  0.00    +0.030 A 
ATOM     10  C   LIG    1       -1.677   7.302   7.892  0.00  0.00    +0.050 A 
ATOM     11  C   LIG    1       -1.607   6.162   7.113  0.00  0.00    -0.080 A 
ATOM     12  C   LIG    1       -0.835   6.155   5.966  0.00  0.00    +0.080 A 
BRANCH   7  14
ATOM     13  F   LIG    1       -0.061   7.697   3.265  0.00  0.00    -0.170 F 
ATOM     14  C   LIG    1        0.714   7.279   4.352  0.00  0.00    +0.510 C 
ATOM     15  F   LIG    1        1.186   5.983   4.116  0.00  0.00    -0.170 F 
ATOM     16  F   LIG    1        1.798   8.148   4.515  0.00  0.00    -0.180 F 
ENDBRANCH   7  14
ENDBRANCH   1  11
BRANCH   1  17
ATOM     17  C   LIG    1       -3.354   4.555   6.393  0.00  0.00    +0.330 C 
BRANCH  17  18
ATOM     18  N   LIG    1       -4.261   5.677   6.140  0.00  0.00    -0.680 N 
ATOM     19  H   LIG    1       -4.215   6.472   6.694  0.00  0.00    +0.400 HD
BRANCH  18  20
ATOM     20  C   LIG    1       -5.161   5.604   5.139  0.00  0.00    +0.560 C 
ATOM     21  S   LIG    1       -5.244   4.200   4.163  0.00  0.00    -0.640 S 
BRANCH  20  22
ATOM     22  N   LIG    1       -5.996   6.636   4.907  0.00  0.00    -0.680 N 
ATOM     23  H   LIG    1       -5.949   7.432   5.460  0.00  0.00    +0.400 HD
BRANCH  22  24
ATOM     24  C   LIG    1       -6.974   6.557   3.819  0.00  0.00    +0.330 C 
BRANCH  24  25
ATOM     25  C   LIG    1       -7.790   7.851   3.772  0.00  0.00    +0.140 C 
ATOM     26  C   LIG    1       -8.916   7.747   2.712  0.00  0.00    +0.040 C 
ATOM     27  C   LIG    1       -9.171   9.234   2.364  0.00  0.00    +0.000 C 
ATOM     28  C   LIG    1       -7.880   9.951   2.802  0.00  0.00    +0.200 C 
ATOM     29  O   LIG    1       -6.977   8.949   3.298  0.00  0.00    -0.370 OA
ENDBRANCH  24  25
ENDBRANCH  22  24
ENDBRANCH  20  22
ENDBRANCH  18  20
ENDBRANCH  17  18
ENDBRANCH   1  17
TORSDOF 8
