REMARK  Name = ZINCpk00001AZiP7.0
REMARK                            x       y       z     vdW  Elec       q    Type
REMARK                         _______ _______ _______ _____ _____    ______ ____
ROOT
ATOM      1  C   LIG    1       -0.822   3.023   1.213  0.00  0.00    +0.130 C 
ATOM      2  C   LIG    1       -1.692   3.492   2.402  0.00  0.00    +0.040 C 
ATOM      3  C   LIG    1       -2.528   4.644   1.785  0.00  0.00    +0.180 C 
ATOM      4  N   LIG    1       -2.810   4.162   0.409  0.00  0.00    -0.490 NA
ATOM      5  C   LIG    1       -1.572   3.494  -0.047  0.00  0.00    +0.190 C 
ENDROOT
BRANCH   1   6
ATOM      6  N   LIG    1       -0.700   1.560   1.217  0.00  0.00    -0.530 NA
ATOM      7  C   LIG    1       -0.013   1.086   0.008  0.00  0.00    +0.200 C 
BRANCH   6   8
ATOM      8  C   LIG    1       -0.016   1.091   2.429  0.00  0.00    +0.340 C 
BRANCH   8  13
ATOM      9  C   LIG    1       -1.686  -3.537   3.520  0.00  0.00    +0.190 C 
ATOM     10  C   LIG    1       -0.850  -2.400   2.992  0.00  0.00    -0.040 A 
ATOM     11  C   LIG    1        0.295  -2.507   2.298  0.00  0.00    +0.130 A 
ATOM     12  N   LIG    1        0.719  -1.263   2.014  0.00  0.00    -0.480 NA
ATOM     13  C   LIG    1       -0.125  -0.409   2.520  0.00  0.00    +0.200 A 
ATOM     14  O   LIG    1       -1.109  -1.085   3.129  0.00  0.00    -0.190 OA
ENDBRANCH   8  13
ENDBRANCH   6   8
ENDBRANCH   1   6
BRANCH   4  15
ATOM     15  C   LIG    1       -3.164   5.278  -0.478  0.00  0.00    +0.210 C 
BRANCH  15  16
ATOM     16  C   LIG    1       -4.277   6.081   0.144  0.00  0.00    +0.510 C 
ATOM     17  N   LIG    1       -4.768   7.161  -0.495  0.00  0.00    -0.720 N 
ATOM     18  H   LIG    1       -4.405   7.421  -1.356  0.00  0.00    +0.410 HD
ATOM     19  O   LIG    1       -4.731   5.755   1.221  0.00  0.00    -0.500 OA
BRANCH  17  20
ATOM     20  C   LIG    1       -5.850   7.942   0.110  0.00  0.00    +0.280 C 
ATOM     21  C   LIG    1       -7.113   7.069   0.256  0.00  0.00    +0.050 C 
ATOM     22  C   LIG    1       -8.283   8.038  -0.047  0.00  0.00    +0.020 C 
ATOM     23  C   LIG    1       -7.713   8.915  -1.190  0.00  0.00    +0.040 C 
ATOM     24  C   LIG    1       -6.231   9.115  -0.810  0.00  0.00    +0.050 C 
BRANCH  20  25
ATOM     25  C   LIG    1       -5.430   8.448   1.427  0.00  0.00    +0.200 C 
ATOM     26  N   LIG    1       -5.107   8.839   2.443  0.00  0.00    -0.410 NA
ENDBRANCH  20  25
ENDBRANCH  17  20
ENDBRANCH  15  16
ENDBRANCH   4  15
TORSDOF 7
