REMARK  Name = ZINCrg00000J3Mki.0
REMARK                            x       y       z     vdW  Elec       q    Type
REMARK                         _______ _______ _______ _____ _____    ______ ____
ROOT
ATOM      1  N   LIG    1       -5.054  -0.038   4.589  0.00  0.00    -1.010 NA
ATOM      2  C   LIG    1       -4.063  -0.652   5.484  0.00  0.00    +0.280 C 
ATOM      3  C   LIG    1       -4.548  -2.085   5.790  0.00  0.00    +0.060 C 
ATOM      4  C   LIG    1       -5.492  -2.393   4.598  0.00  0.00    +0.220 C 
ATOM      5  C   LIG    1       -6.140  -1.006   4.350  0.00  0.00    +0.350 C 
ENDROOT
BRANCH   4   6
ATOM      6  C   LIG    1       -4.712  -2.854   3.395  0.00  0.00    +0.160 A 
ATOM      7  N   LIG    1       -4.023  -3.965   3.289  0.00  0.00    -0.470 NA
ATOM      8  C   LIG    1       -3.503  -3.953   2.049  0.00  0.00    +0.200 A 
ATOM      9  N   LIG    1       -3.888  -2.851   1.477  0.00  0.00    -0.370 NA
ATOM     10  O   LIG    1       -4.583  -2.206   2.233  0.00  0.00    +0.090 OA
BRANCH   8  11
ATOM     11  C   LIG    1       -2.629  -5.017   1.437  0.00  0.00    +0.060 C 
ATOM     12  C   LIG    1       -1.977  -4.707   0.088  0.00  0.00    +0.050 C 
ATOM     13  C   LIG    1       -3.136  -5.703   0.167  0.00  0.00    +0.060 C 
ENDBRANCH   8  11
ENDBRANCH   4   6
BRANCH   1  15
ATOM     14  O   LIG    1       -4.133   2.239   4.832  0.00  0.00    -0.940 OA
ATOM     15  S   LIG    1       -4.967   1.491   3.958  0.00  0.00    +2.720 S 
ATOM     16  O   LIG    1       -6.300   1.870   3.641  0.00  0.00    -0.940 OA
BRANCH  15  17
ATOM     17  C   LIG    1       -4.105   1.375   2.425  0.00  0.00    -0.680 A 
ATOM     18  C   LIG    1       -4.806   1.153   1.255  0.00  0.00    +0.140 A 
ATOM     19  C   LIG    1       -4.133   1.059   0.051  0.00  0.00    +0.020 A 
ATOM     20  C   LIG    1       -2.753   1.189   0.014  0.00  0.00    +0.110 A 
ATOM     21  O   LIG    1       -2.104   1.091  -1.178  0.00  0.00    -0.300 OA
ATOM     22  C   LIG    1       -0.767   1.600  -1.226  0.00  0.00    +0.230 C 
ATOM     23  C   LIG    1       -0.013   1.086   0.008  0.00  0.00    +0.230 C 
ATOM     24  O   LIG    1       -0.694   1.553   1.177  0.00  0.00    -0.300 OA
ATOM     25  C   LIG    1       -2.049   1.415   1.191  0.00  0.00    +0.030 A 
ATOM     26  C   LIG    1       -2.730   1.507   2.396  0.00  0.00    +0.140 A 
ENDBRANCH  15  17
ENDBRANCH   1  15
BRANCH   4  27
ATOM     27  O   LIG    1       -6.481  -3.359   4.965  0.00  0.00    -0.520 OA
ATOM     28  H   LIG    1       -6.116  -4.215   5.227  0.00  0.00    +0.400 HD
ENDBRANCH   4  27
TORSDOF 5
