REMARK  Name = ZINCpe00000MJJKR.0
REMARK                            x       y       z     vdW  Elec       q    Type
REMARK                         _______ _______ _______ _____ _____    ______ ____
ROOT
ATOM      1  N   LIG    1       -1.987   6.179   0.045  0.00  0.00    -0.720 N 
ATOM      2  H   LIG    1       -1.087   6.542   0.043  0.00  0.00    +0.410 HD
ATOM      3  C   LIG    1       -2.175   4.845   0.039  0.00  0.00    +0.530 C 
ATOM      4  O   LIG    1       -3.300   4.391   0.041  0.00  0.00    -0.520 OA
ENDROOT
BRANCH   1   5
ATOM      5  C   LIG    1       -3.141   7.082   0.055  0.00  0.00    +0.270 C 
BRANCH   5   6
ATOM      6  C   LIG    1       -2.654   8.532   0.061  0.00  0.00    +0.070 C 
BRANCH   6  10
ATOM      7  C   LIG    1       -6.022  11.167   0.085  0.00  0.00    +0.100 A 
ATOM      8  C   LIG    1       -5.479  10.744  -1.117  0.00  0.00    -0.030 A 
ATOM      9  C   LIG    1       -4.386   9.896  -1.121  0.00  0.00    +0.020 A 
ATOM     10  C   LIG    1       -3.841   9.460   0.071  0.00  0.00    -0.080 A 
ATOM     11  C   LIG    1       -4.379   9.879   1.275  0.00  0.00    -0.030 A 
ATOM     12  C   LIG    1       -5.470  10.732   1.286  0.00  0.00    +0.100 A 
BRANCH   7  14
ATOM     13  C   LIG    1       -7.607  12.410  -1.179  0.00  0.00    +0.250 C 
ATOM     14  O   LIG    1       -7.093  12.005   0.091  0.00  0.00    -0.310 OA
ENDBRANCH   7  14
BRANCH  12  15
ATOM     15  O   LIG    1       -6.000  11.145   2.469  0.00  0.00    -0.310 OA
ATOM     16  C   LIG    1       -5.382  10.658   3.662  0.00  0.00    +0.240 C 
ENDBRANCH  12  15
ENDBRANCH   6  10
ENDBRANCH   5   6
ENDBRANCH   1   5
BRANCH   3  17
ATOM     17  C   LIG    1       -0.988   3.916   0.028  0.00  0.00    +0.110 C 
BRANCH  17  18
ATOM     18  S   LIG    1       -1.564   2.200   0.021  0.00  0.00    +0.090 S 
BRANCH  18  19
ATOM     19  C   LIG    1       -0.016   1.358   0.009  0.00  0.00    +0.390 A 
ATOM     20  N   LIG    1        1.099   2.058   0.003  0.00  0.00    -0.580 NA
ATOM     21  C   LIG    1        2.294   1.457  -0.012  0.00  0.00    +0.460 A 
ATOM     22  C   LIG    1        2.367   0.070  -0.020  0.00  0.00    -0.250 A 
ATOM     23  C   LIG    1        1.178  -0.665  -0.013  0.00  0.00    +0.540 A 
ATOM     24  O   LIG    1        1.204  -1.886  -0.020  0.00  0.00    -0.550 OA
ATOM     25  N   LIG    1        0.002  -0.004   0.002  0.00  0.00    -0.620 N 
ATOM     26  H   LIG    1       -0.832  -0.499   0.007  0.00  0.00    +0.420 HD
BRANCH  21  27
ATOM     27  N   LIG    1        3.450   2.211  -0.019  0.00  0.00    -0.830 N 
ATOM     28  H   LIG    1        3.397   3.180  -0.013  0.00  0.00    +0.410 HD
ATOM     29  H   LIG    1        4.315   1.773  -0.029  0.00  0.00    +0.420 HD
ENDBRANCH  21  27
ENDBRANCH  18  19
ENDBRANCH  17  18
ENDBRANCH   3  17
TORSDOF 9
