REMARK  Name = ZINCqH0000007tWq.2
REMARK                            x       y       z     vdW  Elec       q    Type
REMARK                         _______ _______ _______ _____ _____    ______ ____
ROOT
ATOM      1  C   LIG    1       -4.860   3.525   3.259  0.00  0.00    +0.180 C 
ATOM      2  C   LIG    1       -6.273   2.893   3.321  0.00  0.00    +0.040 C 
ATOM      3  C   LIG    1       -5.965   1.405   3.008  0.00  0.00    +0.000 C 
ATOM      4  C   LIG    1       -4.816   1.497   1.981  0.00  0.00    +0.190 C 
ATOM      5  N   LIG    1       -4.176   2.813   2.158  0.00  0.00    -0.510 NA
ENDROOT
BRANCH   1   9
ATOM      6  C   LIG    1       -5.135   7.699   2.387  0.00  0.00    +0.130 A 
ATOM      7  C   LIG    1       -4.842   7.277   3.675  0.00  0.00    -0.030 A 
ATOM      8  C   LIG    1       -4.754   5.927   3.954  0.00  0.00    +0.050 A 
ATOM      9  C   LIG    1       -4.957   4.997   2.951  0.00  0.00    -0.110 A 
ATOM     10  C   LIG    1       -5.243   5.416   1.665  0.00  0.00    +0.090 A 
ATOM     11  C   LIG    1       -5.338   6.765   1.382  0.00  0.00    -0.080 A 
BRANCH   6  13
ATOM     12  C   LIG    1       -5.527   9.389   0.761  0.00  0.00    +0.250 C 
ATOM     13  O   LIG    1       -5.223   9.027   2.109  0.00  0.00    -0.320 OA
ENDBRANCH   6  13
ENDBRANCH   1   9
BRANCH   5  14
ATOM     14  C   LIG    1       -2.741   2.668   2.436  0.00  0.00    +0.200 C 
BRANCH  14  15
ATOM     15  C   LIG    1       -2.036   2.182   1.196  0.00  0.00    +0.520 C 
ATOM     16  N   LIG    1       -0.704   1.975   1.216  0.00  0.00    -0.620 N 
ATOM     17  C   LIG    1        0.058   2.223   2.442  0.00  0.00    +0.280 C 
ATOM     18  O   LIG    1       -2.666   1.977   0.181  0.00  0.00    -0.510 OA
BRANCH  16  19
ATOM     19  C   LIG    1       -0.018   1.503   0.010  0.00  0.00    +0.330 C 
BRANCH  19  20
ATOM     20  C   LIG    1        0.002  -0.004   0.002  0.00  0.00    -0.120 A 
ATOM     21  C   LIG    1        1.057  -0.684   0.582  0.00  0.00    +0.020 A 
ATOM     22  C   LIG    1        1.073  -2.067   0.579  0.00  0.00    -0.010 A 
ATOM     23  C   LIG    1        0.040  -2.768  -0.014  0.00  0.00    -0.080 A 
ATOM     24  C   LIG    1       -1.012  -2.088  -0.599  0.00  0.00    +0.000 A 
ATOM     25  C   LIG    1        0.061  -4.275  -0.023  0.00  0.00    +0.090 C 
ATOM     26  C   LIG    1       -1.031  -0.706  -0.591  0.00  0.00    +0.040 A 
ENDBRANCH  19  20
ENDBRANCH  16  19
ENDBRANCH  14  15
ENDBRANCH   5  14
TORSDOF 6
