REMARK  Name = ZINCpe000000Toc7.0
REMARK                            x       y       z     vdW  Elec       q    Type
REMARK                         _______ _______ _______ _____ _____    ______ ____
ROOT
ATOM      1  N   LIG    1        3.982  -5.947   3.144  0.00  0.00    -0.410 N 
ATOM      2  C   LIG    1        4.038  -7.287   3.012  0.00  0.00    +0.500 A 
ATOM      3  N   LIG    1        5.263  -7.652   2.731  0.00  0.00    -0.500 NA
ATOM      4  C   LIG    1        6.053  -6.577   2.669  0.00  0.00    +0.320 A 
ATOM      5  N   LIG    1        7.401  -6.389   2.413  0.00  0.00    -0.510 N 
ATOM      6  C   LIG    1        8.261  -7.543   2.135  0.00  0.00    +0.340 C 
ATOM      7  C   LIG    1        7.923  -5.148   2.420  0.00  0.00    +0.710 A 
ATOM      8  O   LIG    1        9.109  -5.003   2.193  0.00  0.00    -0.530 OA
ATOM      9  N   LIG    1        7.167  -4.066   2.671  0.00  0.00    -0.550 N 
ATOM     10  C   LIG    1        7.785  -2.737   2.667  0.00  0.00    +0.350 C 
ATOM     11  C   LIG    1        5.847  -4.184   2.927  0.00  0.00    +0.590 A 
ATOM     12  O   LIG    1        5.172  -3.196   3.152  0.00  0.00    -0.510 OA
ATOM     13  C   LIG    1        5.258  -5.467   2.924  0.00  0.00    -0.150 A 
ENDROOT
BRANCH   1  14
ATOM     14  C   LIG    1        2.793  -5.151   3.457  0.00  0.00    +0.320 C 
BRANCH  14  15
ATOM     15  C   LIG    1        2.164  -4.643   2.158  0.00  0.00    +0.040 C 
BRANCH  15  16
ATOM     16  C   LIG    1        0.922  -3.811   2.485  0.00  0.00    +0.060 C 
BRANCH  16  18
ATOM     17  N   LIG    1       -0.810  -2.550   1.248  0.00  0.00    -0.610 N 
ATOM     18  C   LIG    1        0.302  -3.310   1.206  0.00  0.00    +0.520 C 
ATOM     19  O   LIG    1        0.805  -3.591   0.138  0.00  0.00    -0.540 OA
ATOM     20  C   LIG    1       -1.417  -2.212   2.538  0.00  0.00    +0.280 C 
BRANCH  17  21
ATOM     21  C   LIG    1       -1.413  -2.063   0.004  0.00  0.00    +0.230 C 
ATOM     22  C   LIG    1       -2.844  -2.592  -0.110  0.00  0.00    +0.030 C 
BRANCH  21  23
ATOM     23  C   LIG    1       -1.433  -0.534   0.013  0.00  0.00    +0.020 C 
BRANCH  23  25
ATOM     24  C   LIG    1       -0.019   1.526   0.010  0.00  0.00    +0.000 C 
ATOM     25  C   LIG    1        0.002  -0.004   0.002  0.00  0.00    +0.000 C 
ENDBRANCH  23  25
ENDBRANCH  21  23
ENDBRANCH  17  21
ENDBRANCH  16  18
ENDBRANCH  15  16
ENDBRANCH  14  15
ENDBRANCH   1  14
TORSDOF 7
