REMARK  Name = ZINCpk00000K8UxW.0
REMARK                            x       y       z     vdW  Elec       q    Type
REMARK                         _______ _______ _______ _____ _____    ______ ____
ROOT
ATOM      1  N   LIG    1       -1.297   1.834   0.512  0.00  0.00    -0.480 N 
ATOM      2  C   LIG    1       -1.571   2.950  -0.403  0.00  0.00    +0.190 C 
ATOM      3  C   LIG    1       -2.877   3.635   0.003  0.00  0.00    +0.050 C 
ATOM      4  C   LIG    1       -4.019   2.617  -0.047  0.00  0.00    -0.030 C 
ATOM      5  C   LIG    1       -3.687   1.443   0.878  0.00  0.00    +0.050 C 
ATOM      6  C   LIG    1       -2.357   0.821   0.446  0.00  0.00    +0.190 C 
ENDROOT
BRANCH   1  10
ATOM      7  C   LIG    1        2.348   0.092  -0.277  0.00  0.00    +0.040 A 
ATOM      8  N   LIG    1        1.233  -0.630  -0.274  0.00  0.00    -0.400 NA
ATOM      9  C   LIG    1        0.062  -0.091  -0.023  0.00  0.00    +0.210 A 
ATOM     10  C   LIG    1       -0.052   1.271   0.253  0.00  0.00    +0.110 A 
ATOM     11  C   LIG    1        1.096   2.063   0.259  0.00  0.00    +0.030 A 
ATOM     12  C   LIG    1        2.311   1.462  -0.009  0.00  0.00    -0.030 A 
ATOM     13  C   LIG    1        3.580   2.275  -0.013  0.00  0.00    +0.130 C 
BRANCH   7  14
ATOM     14  C   LIG    1        3.641  -0.561  -0.565  0.00  0.00    +0.530 C 
ATOM     15  O   LIG    1        4.649   0.108  -0.673  0.00  0.00    -0.500 OA
BRANCH  14  17
ATOM     16  C   LIG    1        5.006  -2.473  -0.991  0.00  0.00    +0.250 C 
ATOM     17  O   LIG    1        3.703  -1.899  -0.709  0.00  0.00    -0.340 OA
ENDBRANCH  14  17
ENDBRANCH   7  14
ENDBRANCH   1  10
BRANCH   4  18
ATOM     18  C   LIG    1       -5.317   3.282   0.416  0.00  0.00    +0.330 C 
BRANCH  18  19
ATOM     19  N   LIG    1       -5.698   4.327  -0.537  0.00  0.00    -0.990 NA
ATOM     20  C   LIG    1       -5.221   5.719  -0.539  0.00  0.00    +0.250 C 
ATOM     21  C   LIG    1       -5.223   6.274  -1.979  0.00  0.00    +0.070 C 
ATOM     22  C   LIG    1       -6.598   5.832  -2.556  0.00  0.00    -0.320 C 
ATOM     23  S   LIG    1       -6.759   4.161  -1.816  0.00  0.00    +2.570 S 
ATOM     24  O   LIG    1       -8.035   3.983  -1.218  0.00  0.00    -0.960 OA
ATOM     25  O   LIG    1       -6.179   3.170  -2.652  0.00  0.00    -0.950 OA
ENDBRANCH  18  19
ENDBRANCH   4  18
TORSDOF 5
