REMARK  Name = ZINCpk00000y6xZa.0
REMARK                            x       y       z     vdW  Elec       q    Type
REMARK                         _______ _______ _______ _____ _____    ______ ____
ROOT
ATOM      1  C   LIG    1        3.754   7.127   0.994  0.00  0.00    +0.460 C 
ATOM      2  O   LIG    1        2.732   7.715   1.260  0.00  0.00    -0.510 OA
ENDROOT
BRANCH   1   3
ATOM      3  O   LIG    1        3.702   5.950   0.351  0.00  0.00    -0.340 OA
BRANCH   3   4
ATOM      4  C   LIG    1        2.386   5.444   0.007  0.00  0.00    +0.150 C 
ATOM      5  C   LIG    1        1.990   5.954  -1.380  0.00  0.00    +0.060 C 
BRANCH   4   6
ATOM      6  C   LIG    1        2.413   3.937  -0.001  0.00  0.00    +0.400 C 
ATOM      7  O   LIG    1        3.474   3.350  -0.014  0.00  0.00    -0.420 OA
BRANCH   6  11
ATOM      8  C   LIG    1       -1.222   1.750   0.017  0.00  0.00    -0.040 A 
ATOM      9  C   LIG    1       -0.013   1.076   0.008  0.00  0.00    +0.000 A 
ATOM     10  C   LIG    1        1.173   1.780   0.000  0.00  0.00    +0.090 A 
ATOM     11  C   LIG    1        1.152   3.178   0.008  0.00  0.00    -0.170 A 
ATOM     12  C   LIG    1       -0.074   3.852   0.022  0.00  0.00    +0.060 A 
ATOM     13  C   LIG    1       -1.251   3.133   0.030  0.00  0.00    +0.000 A 
BRANCH   8  15
ATOM     14  C   LIG    1       -2.943   0.702   1.462  0.00  0.00    +0.030 C 
ATOM     15  C   LIG    1       -2.513   0.973   0.019  0.00  0.00    +0.070 C 
ENDBRANCH   8  15
ENDBRANCH   6  11
ENDBRANCH   4   6
ENDBRANCH   3   4
ENDBRANCH   1   3
BRANCH   1  16
ATOM     16  C   LIG    1        5.085   7.715   1.383  0.00  0.00    +0.110 C 
BRANCH  16  17
ATOM     17  C   LIG    1        4.864   9.050   2.097  0.00  0.00    +0.030 C 
BRANCH  17  18
ATOM     18  C   LIG    1        6.216   9.648   2.492  0.00  0.00    +0.060 C 
BRANCH  18  19
ATOM     19  C   LIG    1        5.995  10.983   3.206  0.00  0.00    -0.050 C 
BRANCH  19  20
ATOM     20  C   LIG    1        7.347  11.580   3.601  0.00  0.00    +0.190 C 
BRANCH  20  21
ATOM     21  O   LIG    1        7.140  12.827   4.268  0.00  0.00    -0.570 OA
ATOM     22  H   LIG    1        7.956  13.263   4.548  0.00  0.00    +0.380 HD
ENDBRANCH  20  21
ENDBRANCH  19  20
BRANCH  19  23
ATOM     23  C   LIG    1        5.151  10.756   4.462  0.00  0.00    +0.200 C 
BRANCH  23  24
ATOM     24  O   LIG    1        5.832   9.855   5.337  0.00  0.00    -0.570 OA
ATOM     25  H   LIG    1        5.353   9.665   6.156  0.00  0.00    +0.380 HD
ENDBRANCH  23  24
ENDBRANCH  19  23
BRANCH  19  26
ATOM     26  C   LIG    1        5.266  11.947   2.269  0.00  0.00    +0.200 C 
BRANCH  26  27
ATOM     27  O   LIG    1        6.054  12.159   1.096  0.00  0.00    -0.570 OA
ATOM     28  H   LIG    1        5.652  12.762   0.455  0.00  0.00    +0.380 HD
ENDBRANCH  26  27
ENDBRANCH  19  26
ENDBRANCH  18  19
ENDBRANCH  17  18
ENDBRANCH  16  17
ENDBRANCH   1  16
TORSDOF 15
