REMARK  Name = ZINCvU0000000Hod.0
REMARK                            x       y       z     vdW  Elec       q    Type
REMARK                         _______ _______ _______ _____ _____    ______ ____
ROOT
ATOM      1  C   LIG    1        7.134   6.301   1.525  0.00  0.00    +0.530 C 
ATOM      2  O   LIG    1        6.485   7.289   1.247  0.00  0.00    -0.480 OA
ENDROOT
BRANCH   1   3
ATOM      3  C   LIG    1        8.231   6.391   2.512  0.00  0.00    -0.060 A 
ATOM      4  C   LIG    1        7.990   6.176   3.871  0.00  0.00    -0.070 A 
ATOM      5  C   LIG    1        6.580   5.812   4.264  0.00  0.00    +0.070 C 
ATOM      6  C   LIG    1        6.260   6.274   5.685  0.00  0.00    +0.030 C 
ATOM      7  C   LIG    1        6.596   5.137   6.651  0.00  0.00    +0.010 C 
ATOM      8  C   LIG    1        8.082   4.804   6.559  0.00  0.00    +0.030 C 
ATOM      9  C   LIG    1        8.838   6.100   6.258  0.00  0.00    +0.110 C 
ATOM     10  C   LIG    1        9.035   6.279   4.774  0.00  0.00    +0.170 A 
ATOM     11  N   LIG    1       10.262   6.553   4.368  0.00  0.00    -0.460 NA
ATOM     12  C   LIG    1       10.566   6.766   3.089  0.00  0.00    +0.140 A 
ATOM     13  C   LIG    1       11.883   7.062   2.692  0.00  0.00    +0.060 A 
ATOM     14  C   LIG    1       12.159   7.279   1.377  0.00  0.00    +0.040 A 
ATOM     15  C   LIG    1       11.156   7.213   0.412  0.00  0.00    +0.030 A 
ATOM     16  C   LIG    1        9.870   6.927   0.759  0.00  0.00    +0.010 A 
ATOM     17  C   LIG    1        9.552   6.691   2.102  0.00  0.00    -0.070 A 
ENDBRANCH   1   3
BRANCH   1  18
ATOM     18  O   LIG    1        6.854   5.123   0.935  0.00  0.00    -0.330 OA
BRANCH  18  20
ATOM     19  C   LIG    1        6.308   5.414  -1.420  0.00  0.00    +0.090 C 
ATOM     20  C   LIG    1        5.763   5.109  -0.024  0.00  0.00    +0.310 C 
BRANCH  20  21
ATOM     21  C   LIG    1        5.113   3.749  -0.025  0.00  0.00    +0.150 A 
ATOM     22  N   LIG    1        5.730   2.600  -0.036  0.00  0.00    -0.240 NA
ATOM     23  N   LIG    1        4.865   1.648  -0.027  0.00  0.00    -0.270 NA
ATOM     24  C   LIG    1        3.657   2.160  -0.020  0.00  0.00    +0.220 A 
ATOM     25  O   LIG    1        3.792   3.502  -0.014  0.00  0.00    -0.210 OA
BRANCH  24  26
ATOM     26  C   LIG    1        2.385   1.407  -0.013  0.00  0.00    -0.030 A 
ATOM     27  C   LIG    1        1.167   2.088   0.002  0.00  0.00    +0.050 A 
ATOM     28  C   LIG    1       -0.017   1.379   0.010  0.00  0.00    +0.020 A 
ATOM     29  C   LIG    1        0.002  -0.004   0.002  0.00  0.00    +0.040 A 
ATOM     30  C   LIG    1        1.206  -0.685  -0.013  0.00  0.00    +0.020 A 
ATOM     31  C   LIG    1        2.397   0.011  -0.020  0.00  0.00    +0.080 A 
ENDBRANCH  24  26
ENDBRANCH  20  21
ENDBRANCH  18  20
ENDBRANCH   1  18
TORSDOF 5
