REMARK  Name = ZINCpk00000ebuwp.0
REMARK                            x       y       z     vdW  Elec       q    Type
REMARK                         _______ _______ _______ _____ _____    ______ ____
ROOT
ATOM      1  O   LIG    1        9.041   5.014   5.175  0.00  0.00    -0.510 OA
ATOM      2  C   LIG    1        8.393   4.063   4.790  0.00  0.00    +0.510 C 
ATOM      3  N   LIG    1        7.529   4.207   3.766  0.00  0.00    -0.620 N 
ATOM      4  C   LIG    1        7.360   5.509   3.107  0.00  0.00    +0.290 C 
ATOM      5  C   LIG    1        5.875   5.890   3.147  0.00  0.00    +0.290 C 
ATOM      6  N   LIG    1        5.084   4.747   2.669  0.00  0.00    -0.610 N 
ATOM      7  C   LIG    1        5.249   3.445   3.332  0.00  0.00    +0.270 C 
ATOM      8  C   LIG    1        4.219   4.890   1.646  0.00  0.00    +0.550 C 
ATOM      9  O   LIG    1        4.088   5.970   1.110  0.00  0.00    -0.530 OA
ATOM     10  C   LIG    1        6.738   3.063   3.289  0.00  0.00    +0.270 C 
ENDROOT
BRANCH   8  11
ATOM     11  C   LIG    1        3.416   3.709   1.167  0.00  0.00    -0.040 C 
ATOM     12  C   LIG    1        3.743   3.146  -0.218  0.00  0.00    +0.090 C 
ATOM     13  C   LIG    1        2.451   3.937   0.001  0.00  0.00    +0.030 C 
BRANCH  13  14
ATOM     14  C   LIG    1        1.157   3.165   0.008  0.00  0.00    -0.000 A 
ATOM     15  C   LIG    1        1.175   1.783   0.000  0.00  0.00    +0.020 A 
ATOM     16  C   LIG    1       -0.013   1.076   0.008  0.00  0.00    +0.060 A 
ATOM     17  C   LIG    1       -1.219   1.750   0.017  0.00  0.00    +0.020 A 
ATOM     18  C   LIG    1       -1.238   3.133   0.029  0.00  0.00    +0.070 A 
ATOM     19  C   LIG    1       -0.050   3.840   0.023  0.00  0.00    -0.170 A 
BRANCH  19  20
ATOM     20  C   LIG    1       -0.070   5.347   0.032  0.00  0.00    +0.510 C 
ATOM     21  F   LIG    1        0.572   5.829  -1.114  0.00  0.00    -0.170 F 
ATOM     22  F   LIG    1        0.593   5.816   1.171  0.00  0.00    -0.170 F 
ATOM     23  F   LIG    1       -1.396   5.795   0.046  0.00  0.00    -0.180 F 
ENDBRANCH  19  20
ENDBRANCH  13  14
ENDBRANCH   8  11
BRANCH   2  24
ATOM     24  C   LIG    1        8.556   2.721   5.456  0.00  0.00    +0.220 C 
BRANCH  24  25
ATOM     25  O   LIG    1        9.522   2.824   6.504  0.00  0.00    -0.550 OA
ATOM     26  H   LIG    1        9.678   1.995   6.978  0.00  0.00    +0.390 HD
ENDBRANCH  24  25
ENDBRANCH   2  24
TORSDOF 5
