REMARK  Name = ZINCpk00000l7x5f.0
REMARK                            x       y       z     vdW  Elec       q    Type
REMARK                         _______ _______ _______ _____ _____    ______ ____
ROOT
ATOM      1  O   LIG    1        2.888   3.412  -0.820  0.00  0.00    -0.540 OA
ATOM      2  C   LIG    1        1.774   2.932  -0.900  0.00  0.00    +0.610 C 
ATOM      3  N   LIG    1        1.381   1.990  -0.021  0.00  0.00    -0.600 N 
ATOM      4  C   LIG    1        2.311   1.468   0.992  0.00  0.00    +0.290 C 
ATOM      5  C   LIG    1        2.294  -0.063   0.926  0.00  0.00    +0.180 C 
ATOM      6  N   LIG    1        0.910  -0.540   1.048  0.00  0.00    -0.680 NA
ATOM      7  H   LIG    1        0.880  -1.546   1.126  0.00  0.00    +0.350 HD
ATOM      8  C   LIG    1        0.084  -0.074  -0.073  0.00  0.00    +0.170 C 
ATOM      9  C   LIG    1        0.011   1.456  -0.048  0.00  0.00    +0.310 C 
ENDROOT
BRANCH   8  10
ATOM     10  C   LIG    1       -1.304  -0.646   0.052  0.00  0.00    -0.080 A 
ATOM     11  C   LIG    1       -1.905  -0.736   1.294  0.00  0.00    +0.060 A 
ATOM     12  C   LIG    1       -3.180  -1.257   1.409  0.00  0.00    +0.020 A 
ATOM     13  C   LIG    1       -3.851  -1.698   0.283  0.00  0.00    -0.030 A 
ATOM     14  C   LIG    1       -3.247  -1.613  -0.959  0.00  0.00    +0.020 A 
ATOM     15 CL   LIG    1       -5.449  -2.359   0.428  0.00  0.00    -0.070 Cl
ATOM     16  C   LIG    1       -1.974  -1.087  -1.074  0.00  0.00    +0.040 A 
ENDBRANCH   8  10
BRANCH   2  17
ATOM     17  C   LIG    1        0.852   3.382  -1.961  0.00  0.00    -0.100 A 
ATOM     18  C   LIG    1        1.166   4.229  -2.986  0.00  0.00    +0.300 A 
ATOM     19  N   LIG    1        0.049   4.378  -3.725  0.00  0.00    -0.350 N 
ATOM     20  N   LIG    1       -0.946   3.599  -3.118  0.00  0.00    -0.050 NA
ATOM     21  N   LIG    1       -0.437   3.022  -2.086  0.00  0.00    -0.210 NA
BRANCH  19  22
ATOM     22  C   LIG    1       -0.098   5.198  -4.930  0.00  0.00    +0.270 C 
ATOM     23  C   LIG    1        1.242   5.652  -5.533  0.00  0.00    +0.060 C 
ATOM     24  C   LIG    1        0.570   7.011  -5.799  0.00  0.00    +0.030 C 
ATOM     25  C   LIG    1       -0.381   6.680  -4.637  0.00  0.00    +0.170 C 
BRANCH  25  26
ATOM     26  O   LIG    1       -1.736   7.063  -4.880  0.00  0.00    -0.550 OA
ATOM     27  H   LIG    1       -1.920   7.995  -4.697  0.00  0.00    +0.390 HD
ENDBRANCH  25  26
ENDBRANCH  19  22
ENDBRANCH   2  17
TORSDOF 4
