REMARK  Name = ZINCvU00000006vv.0
REMARK                            x       y       z     vdW  Elec       q    Type
REMARK                         _______ _______ _______ _____ _____    ______ ____
ROOT
ATOM      1  N   LIG    1       -3.037   0.912  -1.426  0.00  0.00    -0.480 N 
ATOM      2  C   LIG    1       -3.732   1.830  -2.187  0.00  0.00    +0.060 A 
ATOM      3  C   LIG    1       -4.197   3.118  -1.962  0.00  0.00    +0.010 A 
ATOM      4  C   LIG    1       -4.870   3.786  -2.963  0.00  0.00    +0.030 A 
ATOM      5  C   LIG    1       -5.079   3.182  -4.195  0.00  0.00    +0.000 A 
ATOM      6  C   LIG    1       -4.623   1.916  -4.436  0.00  0.00    +0.070 A 
ATOM      7  C   LIG    1       -3.939   1.220  -3.436  0.00  0.00    +0.050 A 
ATOM      8  N   LIG    1       -3.379  -0.015  -3.371  0.00  0.00    -0.480 NA
ATOM      9  C   LIG    1       -2.852  -0.194  -2.195  0.00  0.00    +0.290 A 
ENDROOT
BRANCH   9  10
ATOM     10  C   LIG    1       -2.139  -1.446  -1.750  0.00  0.00    +0.090 C 
ATOM     11  C   LIG    1       -3.042  -2.688  -1.925  0.00  0.00    +0.090 C 
ATOM     12  C   LIG    1       -2.091  -3.779  -2.366  0.00  0.00    +0.530 C 
ATOM     13  N   LIG    1       -0.933  -3.241  -2.785  0.00  0.00    -0.580 N 
ATOM     14  O   LIG    1       -2.338  -4.967  -2.344  0.00  0.00    -0.510 OA
ATOM     15  C   LIG    1       -0.961  -1.776  -2.693  0.00  0.00    +0.300 C 
BRANCH  13  16
ATOM     16  C   LIG    1        0.159  -3.982  -3.250  0.00  0.00    +0.140 A 
ATOM     17  C   LIG    1        0.268  -4.288  -4.600  0.00  0.00    +0.020 A 
ATOM     18  C   LIG    1        1.348  -5.019  -5.056  0.00  0.00    +0.020 A 
ATOM     19  C   LIG    1        2.319  -5.446  -4.170  0.00  0.00    +0.020 A 
ATOM     20  C   LIG    1        2.213  -5.144  -2.824  0.00  0.00    -0.080 A 
ATOM     21  C   LIG    1        3.274  -5.612  -1.862  0.00  0.00    +0.090 C 
ATOM     22  C   LIG    1        1.139  -4.408  -2.363  0.00  0.00    -0.080 A 
ATOM     23  C   LIG    1        1.028  -4.072  -0.898  0.00  0.00    +0.090 C 
ENDBRANCH  13  16
ENDBRANCH   9  10
BRANCH   1  24
ATOM     24  C   LIG    1       -2.587   1.094  -0.043  0.00  0.00    +0.360 C 
BRANCH  24  31
ATOM     25  C   LIG    1       -1.913   3.904  -0.081  0.00  0.00    +0.090 C 
ATOM     26  C   LIG    1       -0.820   2.867  -0.056  0.00  0.00    -0.060 A 
ATOM     27  C   LIG    1        0.505   3.260  -0.055  0.00  0.00    +0.010 A 
ATOM     28  C   LIG    1        1.509   2.309  -0.033  0.00  0.00    +0.030 A 
ATOM     29  C   LIG    1        1.187   0.965  -0.011  0.00  0.00    +0.010 A 
ATOM     30  C   LIG    1       -0.139   0.572  -0.010  0.00  0.00    +0.020 A 
ATOM     31  C   LIG    1       -1.142   1.523  -0.038  0.00  0.00    -0.120 A 
ENDBRANCH  24  31
ENDBRANCH   1  24
TORSDOF 4
