REMARK  Name = ZINCpk00000xI4gt.0
REMARK                            x       y       z     vdW  Elec       q    Type
REMARK                         _______ _______ _______ _____ _____    ______ ____
ROOT
ATOM      1  N   LIG    1       -2.380   2.156   2.185  0.00  0.00    -0.460 N 
ATOM      2  C   LIG    1       -2.656   0.795   1.677  0.00  0.00    +0.220 C 
ATOM      3  C   LIG    1       -2.413   0.881   0.148  0.00  0.00    +0.020 C 
ATOM      4  C   LIG    1       -3.727   1.331  -0.493  0.00  0.00    +0.230 C 
ATOM      5  O   LIG    1       -3.480   1.824  -1.809  0.00  0.00    -0.370 OA
ATOM      6  C   LIG    1       -2.715   3.028  -1.814  0.00  0.00    +0.220 C 
ATOM      7  C   LIG    1       -1.358   2.782  -1.220  0.00  0.00    +0.030 C 
ATOM      8  C   LIG    1       -1.330   1.944   0.019  0.00  0.00    -0.070 C 
ATOM      9  C   LIG    1       -1.351   2.757   1.314  0.00  0.00    +0.250 C 
ENDROOT
BRANCH   1  14
ATOM     10  C   LIG    1       -2.306   1.568   5.801  0.00  0.00    +0.170 A 
ATOM     11  N   LIG    1       -1.099   2.054   6.057  0.00  0.00    -0.510 NA
ATOM     12  C   LIG    1       -0.349   2.549   5.094  0.00  0.00    +0.530 A 
ATOM     13  N   LIG    1       -0.755   2.580   3.841  0.00  0.00    -0.540 NA
ATOM     14  C   LIG    1       -1.954   2.117   3.504  0.00  0.00    +0.330 A 
ATOM     15  C   LIG    1       -2.777   1.584   4.501  0.00  0.00    -0.010 A 
ATOM     16  F   LIG    1       -4.002   1.098   4.202  0.00  0.00    -0.110 F 
BRANCH  10  18
ATOM     17  C   LIG    1       -2.868  -0.490   7.065  0.00  0.00    +0.050 C 
ATOM     18  C   LIG    1       -3.154   1.005   6.913  0.00  0.00    +0.110 C 
ENDBRANCH  10  18
ENDBRANCH   1  14
BRANCH   8  19
ATOM     19  C   LIG    1       -0.014   1.209   0.009  0.00  0.00    +0.540 C 
ATOM     20  N   LIG    1        1.143   1.898   0.001  0.00  0.00    -0.620 N 
ATOM     21  C   LIG    1        1.309   3.359   0.001  0.00  0.00    +0.290 C 
ATOM     22  C   LIG    1        2.789   3.637  -0.006  0.00  0.00    -0.020 C 
ATOM     23  C   LIG    1        3.456   2.517  -0.018  0.00  0.00    -0.010 C 
ATOM     24  C   LIG    1        2.507   1.349  -0.015  0.00  0.00    +0.290 C 
ATOM     25  O   LIG    1        0.002  -0.004   0.002  0.00  0.00    -0.530 OA
ENDBRANCH   8  19
TORSDOF 3
