REMARK  Name = ZINCqH0000036Mwy.0
REMARK                            x       y       z     vdW  Elec       q    Type
REMARK                         _______ _______ _______ _____ _____    ______ ____
ROOT
ATOM      1  C   LIG    1       -0.448   0.823  -6.784  0.00  0.00    +0.510 C 
ATOM      2  N   LIG    1       -0.737   0.836  -8.100  0.00  0.00    -0.640 N 
ATOM      3  H   LIG    1       -0.099   1.199  -8.734  0.00  0.00    +0.420 HD
ATOM      4  O   LIG    1       -1.246   0.368  -5.992  0.00  0.00    -0.440 OA
ENDROOT
BRANCH   2   5
ATOM      5  C   LIG    1       -1.950   0.327  -8.550  0.00  0.00    +0.270 A 
ATOM      6  N   LIG    1       -2.871  -0.180  -7.791  0.00  0.00    -0.470 NA
ATOM      7  C   LIG    1       -3.964  -0.617  -8.388  0.00  0.00    +0.250 A 
ATOM      8  C   LIG    1       -3.968  -0.472  -9.714  0.00  0.00    -0.230 A 
ATOM      9  S   LIG    1       -2.449   0.286 -10.185  0.00  0.00    +0.120 S 
BRANCH   8  10
ATOM     10  C   LIG    1       -5.079  -0.881 -10.646  0.00  0.00    +0.080 C 
ATOM     11  C   LIG    1       -4.552  -1.910 -11.648  0.00  0.00    +0.020 C 
ATOM     12  C   LIG    1       -5.681  -2.325 -12.594  0.00  0.00    +0.000 C 
ATOM     13  C   LIG    1       -6.193  -1.096 -13.347  0.00  0.00    +0.000 C 
ATOM     14  C   LIG    1       -6.720  -0.067 -12.345  0.00  0.00    +0.000 C 
ATOM     15  C   LIG    1       -5.591   0.348 -11.399  0.00  0.00    +0.020 C 
ENDBRANCH   8  10
ENDBRANCH   2   5
BRANCH   1  16
ATOM     16  C   LIG    1        0.867   1.374  -6.296  0.00  0.00    +0.180 C 
BRANCH  16  19
ATOM     17  C   LIG    1        0.197   1.558  -2.717  0.00  0.00    +0.010 A 
ATOM     18  N   LIG    1        0.019   1.736  -3.990  0.00  0.00    -0.420 NA
ATOM     19  C   LIG    1        0.941   1.242  -4.797  0.00  0.00    +0.090 A 
ATOM     20  C   LIG    1        1.944   0.618  -4.177  0.00  0.00    -0.080 A 
ATOM     21  S   LIG    1        1.649   0.698  -2.442  0.00  0.00    +0.140 S 
BRANCH  17  22
ATOM     22  S   LIG    1       -0.894   2.125  -1.456  0.00  0.00    +0.100 S 
BRANCH  22  24
ATOM     23  C   LIG    1        0.002  -0.004   0.002  0.00  0.00    +0.100 C 
ATOM     24  C   LIG    1       -0.019   1.526   0.010  0.00  0.00    -0.030 C 
BRANCH  24  25
ATOM     25  C   LIG    1       -0.724   2.012   1.250  0.00  0.00    +0.540 C 
ATOM     26  O   LIG    1       -1.905   2.284   1.209  0.00  0.00    -0.520 OA
ATOM     27  N   LIG    1       -0.042   2.143   2.405  0.00  0.00    -0.840 N 
ATOM     28  H   LIG    1       -0.496   2.456   3.204  0.00  0.00    +0.410 HD
ATOM     29  H   LIG    1        0.902   1.925   2.439  0.00  0.00    +0.400 HD
ENDBRANCH  24  25
ENDBRANCH  22  24
ENDBRANCH  17  22
ENDBRANCH  16  19
ENDBRANCH   1  16
TORSDOF 7
