REMARK  Name = ZINCvU0000000DmZ.0
REMARK                            x       y       z     vdW  Elec       q    Type
REMARK                         _______ _______ _______ _____ _____    ______ ____
ROOT
ATOM      1  C   LIG    1       -0.017   1.383   0.010  0.00  0.00    +0.110 A 
ATOM      2  C   LIG    1        0.002  -0.004   0.002  0.00  0.00    -0.030 A 
ATOM      3  C   LIG    1        1.203  -0.681  -0.013  0.00  0.00    +0.040 A 
ATOM      4  C   LIG    1        2.406   0.032  -0.020  0.00  0.00    -0.060 A 
ATOM      5  C   LIG    1        2.386   1.431  -0.013  0.00  0.00    -0.010 A 
ATOM      6  C   LIG    1        1.179   2.100   0.002  0.00  0.00    +0.100 A 
ENDROOT
BRANCH   4   7
ATOM      7  C   LIG    1        3.690  -0.688  -0.036  0.00  0.00    +0.060 C 
ATOM      8  C   LIG    1        3.707  -2.035  -0.042  0.00  0.00    +0.060 C 
BRANCH   8   9
ATOM      9  C   LIG    1        4.985  -2.752  -0.057  0.00  0.00    +0.150 A 
ATOM     10  N   LIG    1        5.112  -4.040  -0.064  0.00  0.00    -0.460 NA
ATOM     11  C   LIG    1        6.348  -4.550  -0.079  0.00  0.00    +0.090 A 
ATOM     12  C   LIG    1        6.746  -5.905  -0.089  0.00  0.00    +0.080 A 
ATOM     13  C   LIG    1        8.065  -6.240  -0.104  0.00  0.00    +0.030 A 
ATOM     14  C   LIG    1        9.046  -5.259  -0.109  0.00  0.00    +0.040 A 
ATOM     15  C   LIG    1        8.691  -3.928  -0.099  0.00  0.00    +0.060 A 
ATOM     16  C   LIG    1        7.346  -3.566  -0.084  0.00  0.00    -0.170 A 
ATOM     17  S   LIG    1        6.568  -1.985  -0.076  0.00  0.00    +0.060 S 
ENDBRANCH   8   9
ENDBRANCH   4   7
BRANCH   6  18
ATOM     18  O   LIG    1        1.155   3.460   0.010  0.00  0.00    -0.300 OA
ATOM     19  C   LIG    1        2.417   4.131   0.001  0.00  0.00    +0.240 C 
ENDBRANCH   6  18
BRANCH   1  20
ATOM     20  O   LIG    1       -1.204   2.045   0.019  0.00  0.00    -0.290 OA
BRANCH  20  21
ATOM     21  C   LIG    1       -2.390   1.248   0.020  0.00  0.00    +0.250 C 
BRANCH  21  25
ATOM     22  C   LIG    1       -5.821   3.801   0.050  0.00  0.00    -0.120 A 
ATOM     23  C   LIG    1       -5.264   3.389  -1.162  0.00  0.00    +0.080 A 
ATOM     24  C   LIG    1       -4.157   2.566  -1.165  0.00  0.00    +0.040 A 
ATOM     25  C   LIG    1       -3.599   2.148   0.031  0.00  0.00    -0.060 A 
ATOM     26  C   LIG    1       -4.149   2.548   1.236  0.00  0.00    +0.030 A 
ATOM     27  C   LIG    1       -5.253   3.376   1.253  0.00  0.00    +0.080 A 
BRANCH  22  28
ATOM     28  C   LIG    1       -7.007   4.682   0.061  0.00  0.00    +0.510 C 
ATOM     29  O   LIG    1       -7.500   5.050  -0.987  0.00  0.00    -0.500 OA
BRANCH  28  31
ATOM     30  C   LIG    1       -8.706   5.943   1.166  0.00  0.00    +0.290 C 
ATOM     31  O   LIG    1       -7.542   5.078   1.232  0.00  0.00    -0.350 OA
ENDBRANCH  28  31
ENDBRANCH  22  28
ENDBRANCH  21  25
ENDBRANCH  20  21
ENDBRANCH   1  20
TORSDOF 8
