REMARK  Name = ZINCpk00000KfKiA.0
REMARK                            x       y       z     vdW  Elec       q    Type
REMARK                         _______ _______ _______ _____ _____    ______ ____
ROOT
ATOM      1  C   LIG    1       -3.498  -0.191  -0.985  0.00  0.00    +0.510 C 
ATOM      2  N   LIG    1       -2.872   0.738  -0.235  0.00  0.00    -0.730 N 
ATOM      3  H   LIG    1       -2.618   0.533   0.679  0.00  0.00    +0.400 HD
ATOM      4  O   LIG    1       -3.815   0.065  -2.127  0.00  0.00    -0.520 OA
ENDROOT
BRANCH   1   5
ATOM      5  C   LIG    1       -3.804  -1.548  -0.403  0.00  0.00    +0.210 C 
BRANCH   5   9
ATOM      6  N   LIG    1       -6.865  -3.899  -2.119  0.00  0.00    -0.530 NA
ATOM      7  C   LIG    1       -5.526  -4.493  -1.998  0.00  0.00    +0.180 C 
ATOM      8  C   LIG    1       -4.721  -3.721  -0.950  0.00  0.00    +0.190 C 
ATOM      9  N   LIG    1       -4.634  -2.308  -1.346  0.00  0.00    -0.520 NA
ATOM     10  C   LIG    1       -5.973  -1.715  -1.467  0.00  0.00    +0.190 C 
ATOM     11  C   LIG    1       -6.777  -2.487  -2.515  0.00  0.00    +0.140 C 
ATOM     12  C   LIG    1       -8.185  -1.896  -2.615  0.00  0.00    +0.030 C 
BRANCH   6  13
ATOM     13  C   LIG    1       -7.695  -4.660  -3.062  0.00  0.00    +0.190 C 
BRANCH  13  14
ATOM     14  C   LIG    1       -7.687  -6.139  -2.670  0.00  0.00    +0.160 C 
BRANCH  14  16
ATOM     15  C   LIG    1       -8.243  -7.634  -0.881  0.00  0.00    +0.200 C 
ATOM     16  O   LIG    1       -8.207  -6.284  -1.346  0.00  0.00    -0.370 OA
ENDBRANCH  14  16
ENDBRANCH  13  14
ENDBRANCH   6  13
ENDBRANCH   5   9
ENDBRANCH   1   5
BRANCH   2  17
ATOM     17  C   LIG    1       -2.574   2.056  -0.800  0.00  0.00    +0.310 C 
BRANCH  17  18
ATOM     18  C   LIG    1       -1.764   2.872   0.209  0.00  0.00    -0.110 C 
ATOM     19  C   LIG    1       -0.265   2.583   0.310  0.00  0.00    +0.040 C 
ATOM     20  C   LIG    1       -0.752   3.877  -0.346  0.00  0.00    +0.050 C 
BRANCH  18  21
ATOM     21  C   LIG    1       -2.488   3.242   1.477  0.00  0.00    -0.050 A 
ATOM     22  C   LIG    1       -3.567   4.105   1.430  0.00  0.00    +0.010 A 
ATOM     23  C   LIG    1       -4.232   4.445   2.594  0.00  0.00    +0.000 A 
ATOM     24  C   LIG    1       -3.817   3.921   3.804  0.00  0.00    +0.000 A 
ATOM     25  C   LIG    1       -2.738   3.059   3.851  0.00  0.00    +0.000 A 
ATOM     26  C   LIG    1       -2.074   2.719   2.688  0.00  0.00    +0.000 A 
ENDBRANCH  18  21
ENDBRANCH  17  18
ENDBRANCH   2  17
TORSDOF 8
