REMARK  Name = ZINCkj00000kK8hX.1
REMARK                            x       y       z     vdW  Elec       q    Type
REMARK                         _______ _______ _______ _____ _____    ______ ____
ROOT
ATOM      1  N   LIG    1        3.627  -0.508  -0.035  0.00  0.00    -0.490 N 
ATOM      2  C   LIG    1        3.750  -1.422  -1.179  0.00  0.00    +0.180 C 
ATOM      3  C   LIG    1        5.155  -2.030  -1.191  0.00  0.00    +0.270 C 
ATOM      4  O   LIG    1        5.395  -2.688   0.056  0.00  0.00    -0.390 OA
ATOM      5  C   LIG    1        5.284  -1.826   1.192  0.00  0.00    +0.170 C 
ATOM      6  C   LIG    1        3.880  -1.216   1.228  0.00  0.00    +0.200 C 
ENDROOT
BRANCH   1  10
ATOM      7  C   LIG    1       -1.287  -0.784   0.010  0.00  0.00    +0.150 C 
ATOM      8  C   LIG    1        0.002  -0.004   0.002  0.00  0.00    +0.190 A 
ATOM      9  C   LIG    1        1.216  -0.661  -0.013  0.00  0.00    -0.120 A 
ATOM     10  C   LIG    1        2.384   0.104  -0.020  0.00  0.00    +0.350 A 
ATOM     11  N   LIG    1        2.284   1.430  -0.012  0.00  0.00    -0.510 NA
ATOM     12  C   LIG    1        1.104   2.016   0.002  0.00  0.00    +0.530 A 
ATOM     13  N   LIG    1       -0.016   1.322   0.009  0.00  0.00    -0.520 NA
ENDBRANCH   1  10
BRANCH   5  14
ATOM     14  C   LIG    1        5.525  -2.632   2.470  0.00  0.00    +0.290 C 
BRANCH  14  15
ATOM     15  N   LIG    1        6.910  -3.120   2.488  0.00  0.00    -0.380 N 
ATOM     16  C   LIG    1        7.831  -1.978   2.569  0.00  0.00    +0.310 C 
ATOM     17  H   LIG    1        7.094  -3.641   1.643  0.00  0.00    +0.430 HD
BRANCH  15  18
ATOM     18  C   LIG    1        7.107  -3.992   3.653  0.00  0.00    +0.290 C 
BRANCH  18  19
ATOM     19  C   LIG    1        8.511  -4.600   3.604  0.00  0.00    -0.090 C 
ATOM     20  C   LIG    1        8.618  -6.119   3.459  0.00  0.00    +0.050 C 
ATOM     21  C   LIG    1        8.954  -5.452   4.795  0.00  0.00    +0.070 C 
ENDBRANCH  18  19
ENDBRANCH  15  18
ENDBRANCH  14  15
ENDBRANCH   5  14
TORSDOF 5
