REMARK  Name = ZINCkj00000kK8hX.0
REMARK                            x       y       z     vdW  Elec       q    Type
REMARK                         _______ _______ _______ _____ _____    ______ ____
ROOT
ATOM      1  N   LIG    1        6.887   0.956   2.219  0.00  0.00    -0.490 N 
ATOM      2  C   LIG    1        7.274  -0.159   1.343  0.00  0.00    +0.180 C 
ATOM      3  C   LIG    1        6.059  -1.061   1.107  0.00  0.00    +0.260 C 
ATOM      4  O   LIG    1        4.995  -0.282   0.554  0.00  0.00    -0.390 OA
ATOM      5  C   LIG    1        4.592   0.812   1.381  0.00  0.00    +0.170 C 
ATOM      6  C   LIG    1        5.792   1.733   1.620  0.00  0.00    +0.200 C 
ENDROOT
BRANCH   1  10
ATOM      7  C   LIG    1       10.623   3.789   0.719  0.00  0.00    +0.150 C 
ATOM      8  C   LIG    1        9.791   3.144   1.798  0.00  0.00    +0.190 A 
ATOM      9  C   LIG    1        8.719   2.340   1.466  0.00  0.00    -0.120 A 
ATOM     10  C   LIG    1        7.975   1.767   2.500  0.00  0.00    +0.350 A 
ATOM     11  N   LIG    1        8.330   2.008   3.758  0.00  0.00    -0.510 NA
ATOM     12  C   LIG    1        9.365   2.779   4.029  0.00  0.00    +0.530 A 
ATOM     13  N   LIG    1       10.083   3.337   3.076  0.00  0.00    -0.520 NA
ENDBRANCH   1  10
BRANCH   5  14
ATOM     14  C   LIG    1        3.477   1.596   0.685  0.00  0.00    +0.290 C 
BRANCH  14  15
ATOM     15  N   LIG    1        2.287   0.745   0.557  0.00  0.00    -0.380 N 
ATOM     16  C   LIG    1        1.271   1.441  -0.244  0.00  0.00    +0.330 C 
ATOM     17  H   LIG    1        2.539  -0.120   0.103  0.00  0.00    +0.430 HD
BRANCH  15  18
ATOM     18  C   LIG    1        1.745   0.457   1.892  0.00  0.00    +0.280 C 
BRANCH  18  19
ATOM     19  C   LIG    1        0.581  -0.528   1.768  0.00  0.00    -0.080 C 
ATOM     20  C   LIG    1        0.747  -1.902   2.421  0.00  0.00    +0.050 C 
ATOM     21  C   LIG    1       -0.196  -0.868   3.042  0.00  0.00    +0.070 C 
ENDBRANCH  18  19
ENDBRANCH  15  18
ENDBRANCH  14  15
ENDBRANCH   5  14
TORSDOF 5
