REMARK  Name = ZINCqH0000037qXs.0
REMARK                            x       y       z     vdW  Elec       q    Type
REMARK                         _______ _______ _______ _____ _____    ______ ____
ROOT
ATOM      1  C   LIG    1       -4.754  -0.588   0.021  0.00  0.00    +0.340 A 
ATOM      2  C   LIG    1       -4.836   0.803   0.029  0.00  0.00    -0.050 A 
ATOM      3  C   LIG    1       -3.685   1.544   0.034  0.00  0.00    +0.160 A 
ATOM      4  C   LIG    1       -2.455   0.869   0.018  0.00  0.00    -0.220 A 
ATOM      5  C   LIG    1       -2.448  -0.527   0.011  0.00  0.00    +0.330 A 
ATOM      6  N   LIG    1       -3.578  -1.202   0.012  0.00  0.00    -0.520 NA
ENDROOT
BRANCH   1  10
ATOM      7  C   LIG    1       -6.617  -5.069  -0.015  0.00  0.00    +0.060 C 
ATOM      8  C   LIG    1       -6.921  -3.572   0.076  0.00  0.00    +0.160 C 
ATOM      9  C   LIG    1       -5.613  -2.779   0.013  0.00  0.00    +0.200 C 
ATOM     10  N   LIG    1       -5.916  -1.341   0.023  0.00  0.00    -0.480 N 
ATOM     11  C   LIG    1       -6.777  -0.983  -1.114  0.00  0.00    +0.190 C 
ATOM     12  C   LIG    1       -8.074  -1.793  -1.041  0.00  0.00    +0.160 C 
ATOM     13  C   LIG    1       -8.940  -1.485  -2.263  0.00  0.00    +0.060 C 
ATOM     14  O   LIG    1       -7.758  -3.188  -1.019  0.00  0.00    -0.380 OA
ENDBRANCH   1  10
BRANCH   4  15
ATOM     15  C   LIG    1       -1.187   1.624   0.017  0.00  0.00    +0.570 C 
ATOM     16  N   LIG    1       -0.011   0.966   0.007  0.00  0.00    -0.730 N 
ATOM     17  H   LIG    1        0.002  -0.004   0.002  0.00  0.00    +0.400 HD
ATOM     18  O   LIG    1       -1.204   2.840   0.023  0.00  0.00    -0.530 OA
BRANCH  16  19
ATOM     19  C   LIG    1        1.248   1.716  -0.001  0.00  0.00    +0.260 C 
BRANCH  19  20
ATOM     20  C   LIG    1        2.424   0.737  -0.017  0.00  0.00    -0.020 C 
ATOM     21  C   LIG    1        2.438  -0.065   1.286  0.00  0.00    +0.010 C 
ATOM     22  C   LIG    1        3.338  -1.291   1.120  0.00  0.00    +0.000 C 
ATOM     23  C   LIG    1        3.058  -1.951  -0.232  0.00  0.00    +0.000 C 
ATOM     24  C   LIG    1        4.283  -1.803  -1.136  0.00  0.00    +0.000 C 
ATOM     25  C   LIG    1        4.353  -0.370  -1.668  0.00  0.00    +0.000 C 
ATOM     26  C   LIG    1        4.855   0.561  -0.563  0.00  0.00    +0.000 C 
ATOM     27  C   LIG    1        3.734   1.517  -0.151  0.00  0.00    +0.020 C 
ENDBRANCH  19  20
ENDBRANCH  16  19
ENDBRANCH   4  15
TORSDOF 4
