REMARK  Name = ZINCpk00000e8Wki.2
REMARK                            x       y       z     vdW  Elec       q    Type
REMARK                         _______ _______ _______ _____ _____    ______ ____
ROOT
ATOM      1  C   LIG    1       -4.758   0.371   0.440  0.00  0.00    +0.180 C 
ATOM      2  C   LIG    1       -3.792  -0.706  -0.087  0.00  0.00    +0.270 C 
ATOM      3  N   LIG    1       -2.440  -0.117  -0.079  0.00  0.00    -0.620 N 
ATOM      4  C   LIG    1       -2.634   1.348  -0.180  0.00  0.00    +0.280 C 
ATOM      5  C   LIG    1       -1.268  -0.776   0.008  0.00  0.00    +0.580 C 
ATOM      6  O   LIG    1       -0.227  -0.156   0.111  0.00  0.00    -0.510 OA
ATOM      7  C   LIG    1       -3.871   1.608   0.711  0.00  0.00    -0.060 C 
ATOM      8  C   LIG    1       -4.588   2.892   0.290  0.00  0.00    +0.040 C 
ENDROOT
BRANCH   1  15
ATOM      9  C   LIG    1       -8.388  -2.860   3.926  0.00  0.00    +0.100 C 
ATOM     10  C   LIG    1       -6.903  -2.775   3.685  0.00  0.00    +0.510 C 
ATOM     11  N   LIG    1       -6.270  -1.590   3.792  0.00  0.00    -0.600 N 
ATOM     12  C   LIG    1       -7.047  -0.420   4.138  0.00  0.00    +0.260 C 
ATOM     13  C   LIG    1       -7.549   0.270   2.845  0.00  0.00    +0.020 C 
ATOM     14  C   LIG    1       -6.410   0.876   2.129  0.00  0.00    +0.170 C 
ATOM     15  N   LIG    1       -5.399  -0.081   1.682  0.00  0.00    -0.520 NA
ATOM     16  C   LIG    1       -4.416  -0.308   2.720  0.00  0.00    +0.170 C 
ATOM     17  C   LIG    1       -4.813  -1.544   3.550  0.00  0.00    +0.270 C 
ATOM     18  O   LIG    1       -6.278  -3.773   3.396  0.00  0.00    -0.550 OA
ENDBRANCH   1  15
BRANCH   5  19
ATOM     19  C   LIG    1       -1.247  -2.251  -0.021  0.00  0.00    -0.170 A 
ATOM     20  C   LIG    1       -2.273  -2.956  -0.655  0.00  0.00    +0.060 A 
ATOM     21  C   LIG    1       -2.248  -4.334  -0.679  0.00  0.00    +0.000 A 
ATOM     22  C   LIG    1       -1.209  -5.024  -0.077  0.00  0.00    +0.060 A 
ATOM     23  C   LIG    1       -0.188  -4.340   0.553  0.00  0.00    -0.010 A 
ATOM     24  C   LIG    1       -0.198  -2.954   0.587  0.00  0.00    +0.160 A 
BRANCH  24  25
ATOM     25  O   LIG    1        0.804  -2.281   1.206  0.00  0.00    -0.480 OA
ATOM     26  H   LIG    1        0.641  -2.107   2.143  0.00  0.00    +0.390 HD
ENDBRANCH  24  25
ENDBRANCH   5  19
TORSDOF 3
