REMARK  Name = ZINCpk00000xI9P5.0
REMARK                            x       y       z     vdW  Elec       q    Type
REMARK                         _______ _______ _______ _____ _____    ______ ____
ROOT
ATOM      1  N   LIG    1       -0.870   1.885  -1.327  0.00  0.00    -0.970 N 
ATOM      2  H   LIG    1       -1.009   1.249  -2.047  0.00  0.00    +0.410 HD
ENDROOT
BRANCH   1   9
ATOM      3  C   LIG    1       -4.518   4.660  -5.318  0.00  0.00    +0.650 C 
ATOM      4  N   LIG    1       -3.969   4.265  -4.153  0.00  0.00    -0.600 N 
ATOM      5  C   LIG    1       -3.556   5.258  -3.152  0.00  0.00    +0.320 C 
ATOM      6  C   LIG    1       -2.063   5.067  -2.855  0.00  0.00    +0.130 C 
ATOM      7  C   LIG    1       -1.814   3.602  -2.575  0.00  0.00    +0.120 C 
ATOM      8  C   LIG    1       -2.285   2.585  -3.592  0.00  0.00    +0.050 C 
ATOM      9  N   LIG    1       -1.215   3.231  -1.506  0.00  0.00    -0.230 NA
ATOM     10  C   LIG    1       -3.777   2.837  -3.868  0.00  0.00    +0.310 C 
ATOM     11  O   LIG    1       -4.674   5.843  -5.547  0.00  0.00    -0.570 OA
BRANCH   3  12
ATOM     12  O   LIG    1       -4.894   3.743  -6.230  0.00  0.00    -0.370 OA
BRANCH  12  14
ATOM     13  C   LIG    1       -5.840   3.061  -8.368  0.00  0.00    +0.070 C 
ATOM     14  C   LIG    1       -5.478   4.240  -7.463  0.00  0.00    +0.220 C 
ENDBRANCH  12  14
ENDBRANCH   3  12
ENDBRANCH   1   9
BRANCH   1  15
ATOM     15  S   LIG    1       -0.225   1.380   0.112  0.00  0.00    +2.720 S 
ATOM     16  O   LIG    1        0.891   2.222   0.369  0.00  0.00    -0.920 OA
ATOM     17  O   LIG    1       -0.128  -0.036   0.033  0.00  0.00    -0.940 OA
BRANCH  15  18
ATOM     18  C   LIG    1       -1.411   1.729   1.366  0.00  0.00    -0.680 A 
ATOM     19  C   LIG    1       -1.385   2.945   2.023  0.00  0.00    +0.210 A 
ATOM     20  C   LIG    1       -2.319   3.220   3.005  0.00  0.00    +0.030 A 
ATOM     21  C   LIG    1       -3.273   2.276   3.336  0.00  0.00    +0.160 A 
ATOM     22  C   LIG    1       -3.296   1.058   2.682  0.00  0.00    -0.060 A 
ATOM     23  C   LIG    1       -2.365   0.784   1.698  0.00  0.00    +0.210 A 
BRANCH  22  24
ATOM     24  N   LIG    1       -4.318   0.047   3.037  0.00  0.00    +0.030 N 
ATOM     25  O   LIG    1       -5.138   0.288   3.904  0.00  0.00    -0.150 OA
ATOM     26  O   LIG    1       -4.338  -1.026   2.461  0.00  0.00    -0.150 OA
ENDBRANCH  22  24
ENDBRANCH  15  18
ENDBRANCH   1  15
TORSDOF 6
