REMARK  Name = ZINCrD000006fizP.0
REMARK                            x       y       z     vdW  Elec       q    Type
REMARK                         _______ _______ _______ _____ _____    ______ ____
ROOT
ATOM      1  C   LIG    1        4.946   4.336  -1.867  0.00  0.00    +0.550 C 
ATOM      2  N   LIG    1        5.197   3.919  -0.610  0.00  0.00    -0.600 N 
ATOM      3  C   LIG    1        5.955   4.668   0.409  0.00  0.00    +0.260 C 
ATOM      4  C   LIG    1        6.486   3.587   1.383  0.00  0.00    +0.040 C 
ATOM      5  C   LIG    1        5.299   2.588   1.417  0.00  0.00    +0.060 C 
ATOM      6  C   LIG    1        4.761   2.641  -0.028  0.00  0.00    +0.320 C 
ATOM      7  O   LIG    1        4.308   3.634  -2.623  0.00  0.00    -0.520 OA
ENDROOT
BRANCH   6   8
ATOM      8  C   LIG    1        3.256   2.570  -0.017  0.00  0.00    +0.290 A 
ATOM      9  N   LIG    1        2.461   3.600  -0.006  0.00  0.00    -0.470 NA
ATOM     10  C   LIG    1        1.170   3.181   0.002  0.00  0.00    +0.060 A 
ATOM     11  C   LIG    1       -0.059   3.846   0.014  0.00  0.00    +0.090 A 
ATOM     12  C   LIG    1       -1.230   3.121   0.019  0.00  0.00    -0.040 A 
ATOM     13  C   LIG    1       -1.198   1.733   0.008  0.00  0.00    +0.050 A 
ATOM     14  C   LIG    1        0.006   1.061   0.001  0.00  0.00    +0.030 A 
ATOM     15 CL   LIG    1       -2.756   3.948   0.034  0.00  0.00    -0.060 Cl
ATOM     16  C   LIG    1        1.195   1.776  -0.005  0.00  0.00    +0.050 A 
ATOM     17  N   LIG    1        2.530   1.420  -0.017  0.00  0.00    -0.590 N 
ATOM     18  H   LIG    1        2.884   0.516  -0.024  0.00  0.00    +0.420 HD
ENDBRANCH   6   8
BRANCH   1  24
ATOM     19  C   LIG    1        5.877   8.998  -1.216  0.00  0.00    +0.550 C 
ATOM     20  N   LIG    1        5.267   8.085  -1.998  0.00  0.00    -0.610 N 
ATOM     21  C   LIG    1        4.992   8.375  -3.412  0.00  0.00    +0.260 C 
ATOM     22  C   LIG    1        5.582   7.251  -4.269  0.00  0.00    +0.010 C 
ATOM     23  C   LIG    1        5.036   5.905  -3.785  0.00  0.00    +0.050 C 
ATOM     24  C   LIG    1        5.456   5.676  -2.332  0.00  0.00    -0.010 C 
ATOM     25  C   LIG    1        4.865   6.782  -1.453  0.00  0.00    +0.300 C 
ATOM     26  O   LIG    1        6.016   8.785  -0.027  0.00  0.00    -0.540 OA
BRANCH  19  28
ATOM     27  C   LIG    1        7.066  11.107  -1.053  0.00  0.00    +0.140 C 
ATOM     28  C   LIG    1        6.374  10.253  -1.801  0.00  0.00    -0.090 C 
ENDBRANCH  19  28
ENDBRANCH   1  24
TORSDOF 3
