REMARK  Name = ZINCrD000006fizP.1
REMARK                            x       y       z     vdW  Elec       q    Type
REMARK                         _______ _______ _______ _____ _____    ______ ____
ROOT
ATOM      1  C   LIG    1        3.866  -4.699  -0.757  0.00  0.00    +0.550 C 
ATOM      2  N   LIG    1        5.082  -4.123  -0.822  0.00  0.00    -0.600 N 
ATOM      3  C   LIG    1        5.343  -2.690  -1.046  0.00  0.00    +0.260 C 
ATOM      4  C   LIG    1        6.772  -2.635  -1.641  0.00  0.00    +0.040 C 
ATOM      5  C   LIG    1        7.483  -3.765  -0.851  0.00  0.00    +0.060 C 
ATOM      6  C   LIG    1        6.369  -4.819  -0.674  0.00  0.00    +0.320 C 
ATOM      7  O   LIG    1        3.769  -5.893  -0.567  0.00  0.00    -0.520 OA
ENDROOT
BRANCH   6   8
ATOM      8  C   LIG    1        6.461  -5.442   0.695  0.00  0.00    +0.290 A 
ATOM      9  N   LIG    1        5.819  -5.026   1.748  0.00  0.00    -0.470 NA
ATOM     10  C   LIG    1        6.128  -5.811   2.811  0.00  0.00    +0.050 A 
ATOM     11  C   LIG    1        5.733  -5.817   4.151  0.00  0.00    +0.090 A 
ATOM     12  C   LIG    1        6.236  -6.758   5.005  0.00  0.00    +0.020 A 
ATOM     13  C   LIG    1        7.138  -7.712   4.556  0.00  0.00    -0.020 A 
ATOM     14  C   LIG    1        7.542  -7.726   3.236  0.00  0.00    +0.030 A 
ATOM     15 CL   LIG    1        7.763  -8.897   5.660  0.00  0.00    -0.060 Cl
ATOM     16  C   LIG    1        7.041  -6.777   2.355  0.00  0.00    +0.060 A 
ATOM     17  N   LIG    1        7.232  -6.517   1.013  0.00  0.00    -0.590 N 
ATOM     18  H   LIG    1        7.809  -7.009   0.408  0.00  0.00    +0.420 HD
ENDBRANCH   6   8
BRANCH   1  24
ATOM     19  C   LIG    1        1.286  -0.722  -0.014  0.00  0.00    +0.550 C 
ATOM     20  N   LIG    1        1.307  -2.066   0.080  0.00  0.00    -0.610 N 
ATOM     21  C   LIG    1        0.056  -2.836   0.090  0.00  0.00    +0.260 C 
ATOM     22  C   LIG    1        0.127  -3.906  -1.005  0.00  0.00    +0.010 C 
ATOM     23  C   LIG    1        1.386  -4.752  -0.805  0.00  0.00    +0.050 C 
ATOM     24  C   LIG    1        2.625  -3.860  -0.920  0.00  0.00    -0.010 C 
ATOM     25  C   LIG    1        2.583  -2.790   0.169  0.00  0.00    +0.300 C 
ATOM     26  O   LIG    1        2.328  -0.103  -0.117  0.00  0.00    -0.540 OA
BRANCH  19  28
ATOM     27  C   LIG    1       -0.015   1.326   0.014  0.00  0.00    +0.140 C 
ATOM     28  C   LIG    1        0.002  -0.004   0.007  0.00  0.00    -0.090 C 
ENDBRANCH  19  28
ENDBRANCH   1  24
TORSDOF 3
