REMARK  Name = ZINCrH000004tLUF.0
REMARK                            x       y       z     vdW  Elec       q    Type
REMARK                         _______ _______ _______ _____ _____    ______ ____
ROOT
ATOM      1  N   LIG    1       -3.464   3.649   3.668  0.00  0.00    -0.530 NA
ATOM      2  C   LIG    1       -2.323   4.581   3.514  0.00  0.00    +0.180 C 
ATOM      3  C   LIG    1       -1.021   3.875   3.234  0.00  0.00    +0.050 C 
ATOM      4  C   LIG    1       -0.819   3.784   1.705  0.00  0.00    +0.160 C 
ATOM      5  N   LIG    1       -1.630   2.794   1.137  0.00  0.00    -0.540 NA
ATOM      6  C   LIG    1       -3.080   3.015   1.307  0.00  0.00    +0.150 C 
ATOM      7  C   LIG    1       -3.467   2.544   2.687  0.00  0.00    +0.240 C 
ENDROOT
BRANCH   1   8
ATOM      8  C   LIG    1       -4.742   4.373   3.649  0.00  0.00    +0.220 C 
BRANCH   8  10
ATOM      9  O   LIG    1       -3.927   5.283   5.668  0.00  0.00    -0.490 OA
ATOM     10  C   LIG    1       -4.836   5.258   4.865  0.00  0.00    +0.510 C 
ATOM     11  N   LIG    1       -5.929   6.021   5.060  0.00  0.00    -0.680 N 
ATOM     12  H   LIG    1       -6.621   6.060   4.381  0.00  0.00    +0.420 HD
BRANCH  11  13
ATOM     13  C   LIG    1       -6.066   6.758   6.242  0.00  0.00    +0.210 A 
ATOM     14  C   LIG    1       -5.560   6.259   7.434  0.00  0.00    -0.010 A 
ATOM     15  C   LIG    1       -5.692   6.991   8.601  0.00  0.00    +0.160 A 
ATOM     16  C   LIG    1       -6.338   8.216   8.581  0.00  0.00    -0.060 A 
ATOM     17  C   LIG    1       -6.848   8.713   7.394  0.00  0.00    +0.150 A 
ATOM     18  F   LIG    1       -7.478   9.908   7.377  0.00  0.00    -0.130 F 
ATOM     19  F   LIG    1       -5.195   6.509   9.761  0.00  0.00    -0.120 F 
ATOM     20  C   LIG    1       -6.713   7.986   6.224  0.00  0.00    -0.050 A 
ENDBRANCH  11  13
ENDBRANCH   8  10
ENDBRANCH   1   8
BRANCH   5  21
ATOM     21  C   LIG    1       -1.292   2.583  -0.277  0.00  0.00    +0.230 C 
BRANCH  21  22
ATOM     22  C   LIG    1        0.098   2.012  -0.382  0.00  0.00    -0.080 A 
ATOM     23  C   LIG    1        1.187   2.857  -0.493  0.00  0.00    +0.030 A 
ATOM     24  C   LIG    1        2.462   2.334  -0.595  0.00  0.00    +0.020 A 
ATOM     25  C   LIG    1        2.649   0.963  -0.586  0.00  0.00    -0.030 A 
ATOM     26  C   LIG    1        1.559   0.117  -0.475  0.00  0.00    +0.020 A 
ATOM     27 CL   LIG    1        4.250   0.304  -0.715  0.00  0.00    -0.070 Cl
ATOM     28  C   LIG    1        0.285   0.642  -0.373  0.00  0.00    +0.050 A 
ENDBRANCH  21  22
ENDBRANCH   5  21
TORSDOF 5
