REMARK  Name = ZINCqH0000001Nga.0
REMARK                            x       y       z     vdW  Elec       q    Type
REMARK                         _______ _______ _______ _____ _____    ______ ____
ROOT
ATOM      1  C   LIG    1       -3.748   5.938   1.405  0.00  0.00    -0.170 A 
ATOM      2  C   LIG    1       -5.007   5.332   1.424  0.00  0.00    +0.080 A 
ATOM      3  C   LIG    1       -6.140   6.109   1.349  0.00  0.00    -0.040 A 
ATOM      4  C   LIG    1       -6.035   7.496   1.256  0.00  0.00    +0.220 A 
ATOM      5  C   LIG    1       -4.785   8.104   1.239  0.00  0.00    -0.120 A 
ATOM      6  C   LIG    1       -4.640   9.600   1.144  0.00  0.00    +0.090 C 
ATOM      7  C   LIG    1       -5.914  10.226   0.579  0.00  0.00    +0.040 C 
ATOM      8  C   LIG    1       -7.117   9.709   1.379  0.00  0.00    +0.290 C 
ATOM      9  N   LIG    1       -7.200   8.257   1.178  0.00  0.00    -0.940 N 
ATOM     10  C   LIG    1       -3.647   7.328   1.316  0.00  0.00    +0.120 A 
ENDROOT
BRANCH   1  13
ATOM     11  N   LIG    1       -2.628   3.771   1.574  0.00  0.00    -0.670 N 
ATOM     12  H   LIG    1       -3.496   3.343   1.503  0.00  0.00    +0.410 HD
ATOM     13  C   LIG    1       -2.529   5.112   1.484  0.00  0.00    +0.560 C 
ATOM     14  O   LIG    1       -1.434   5.640   1.467  0.00  0.00    -0.510 OA
BRANCH  11  20
ATOM     15  C   LIG    1       -1.487   1.647   1.443  0.00  0.00    -0.110 A 
ATOM     16  C   LIG    1       -0.354   0.883   1.645  0.00  0.00    +0.030 A 
ATOM     17  C   LIG    1        0.789   1.464   2.163  0.00  0.00    -0.020 A 
ATOM     18  C   LIG    1        0.801   2.808   2.486  0.00  0.00    +0.020 A 
ATOM     19  C   LIG    1       -0.331   3.576   2.292  0.00  0.00    +0.010 A 
ATOM     20  C   LIG    1       -1.481   2.996   1.772  0.00  0.00    +0.150 A 
BRANCH  15  22
ATOM     21  C   LIG    1       -2.442   0.510  -0.543  0.00  0.00    +0.040 C 
ATOM     22  C   LIG    1       -2.730   1.015   0.872  0.00  0.00    +0.020 C 
ATOM     23  C   LIG    1       -3.157  -0.159   1.756  0.00  0.00    +0.030 C 
ENDBRANCH  15  22
ENDBRANCH  11  20
ENDBRANCH   1  13
BRANCH   9  24
ATOM     24  S   LIG    1       -8.656   7.534   0.864  0.00  0.00    +2.600 S 
ATOM     25  O   LIG    1       -8.335   6.467  -0.019  0.00  0.00    -0.940 OA
ATOM     26  O   LIG    1       -9.495   8.602   0.446  0.00  0.00    -0.940 OA
ATOM     27  C   LIG    1       -9.198   6.890   2.470  0.00  0.00    -0.270 C 
ENDBRANCH   9  24
TORSDOF 4
