REMARK  Name = ZINCqH000000770I.0
REMARK                            x       y       z     vdW  Elec       q    Type
REMARK                         _______ _______ _______ _____ _____    ______ ____
ROOT
ATOM      1  C   LIG    1        4.545   1.545  -4.556  0.00  0.00    +0.090 C 
ATOM      2  C   LIG    1        3.948   2.883  -5.005  0.00  0.00    +0.050 C 
ATOM      3  C   LIG    1        2.498   2.664  -5.443  0.00  0.00    +0.200 C 
ATOM      4  O   LIG    1        2.459   1.693  -6.490  0.00  0.00    -0.370 OA
ATOM      5  C   LIG    1        2.961   0.409  -6.114  0.00  0.00    +0.220 C 
ATOM      6  C   LIG    1        4.430   0.537  -5.703  0.00  0.00    +0.030 C 
ENDROOT
BRANCH   1  10
ATOM      7  C   LIG    1        8.659   2.080  -3.530  0.00  0.00    +0.140 A 
ATOM      8  C   LIG    1        7.675   2.781  -2.847  0.00  0.00    -0.020 A 
ATOM      9  C   LIG    1        6.346   2.607  -3.181  0.00  0.00    +0.090 A 
ATOM     10  C   LIG    1        5.995   1.734  -4.194  0.00  0.00    -0.130 A 
ATOM     11  C   LIG    1        6.973   1.030  -4.872  0.00  0.00    +0.060 A 
ATOM     12  C   LIG    1        8.304   1.205  -4.546  0.00  0.00    -0.080 A 
BRANCH   7  14
ATOM     13  C   LIG    1       10.925   1.495  -3.948  0.00  0.00    +0.250 C 
ATOM     14  O   LIG    1        9.967   2.250  -3.203  0.00  0.00    -0.320 OA
ENDBRANCH   7  14
ENDBRANCH   1  10
BRANCH   1  15
ATOM     15  C   LIG    1        3.789   1.033  -3.357  0.00  0.00    +0.190 A 
ATOM     16  N   LIG    1        3.669   1.631  -2.196  0.00  0.00    -0.470 NA
ATOM     17  C   LIG    1        2.915   0.810  -1.442  0.00  0.00    +0.180 A 
ATOM     18  N   LIG    1        2.625  -0.228  -2.168  0.00  0.00    -0.380 NA
ATOM     19  O   LIG    1        3.113  -0.117  -3.273  0.00  0.00    +0.080 OA
BRANCH  17  20
ATOM     20  C   LIG    1        2.490   1.048  -0.016  0.00  0.00    +0.220 C 
BRANCH  20  21
ATOM     21  C   LIG    1        1.175   1.783   0.000  0.00  0.00    -0.090 A 
ATOM     22  C   LIG    1       -0.013   1.076   0.008  0.00  0.00    +0.010 A 
ATOM     23  C   LIG    1       -1.219   1.751   0.017  0.00  0.00    +0.000 A 
ATOM     24  C   LIG    1       -1.238   3.133   0.030  0.00  0.00    +0.000 A 
ATOM     25  C   LIG    1       -0.050   3.840   0.022  0.00  0.00    +0.000 A 
ATOM     26  C   LIG    1        1.156   3.165   0.008  0.00  0.00    +0.030 A 
ENDBRANCH  20  21
ENDBRANCH  17  20
ENDBRANCH   1  15
TORSDOF 5
