REMARK  Name = ZINCbw0000000HcV.0
REMARK                            x       y       z     vdW  Elec       q    Type
REMARK                         _______ _______ _______ _____ _____    ______ ____
ROOT
ATOM      1  C   LIG    1       -1.323   1.961   0.019  0.00  0.00    -0.030 C 
ATOM      2  C   LIG    1       -1.280   2.985   1.164  0.00  0.00    +0.040 C 
ATOM      3  C   LIG    1       -0.041   3.869   1.006  0.00  0.00    +0.020 C 
ATOM      4  C   LIG    1        1.223   3.019   1.141  0.00  0.00    -0.020 C 
ATOM      5  C   LIG    1        1.274   1.997   0.001  0.00  0.00    +0.020 C 
ATOM      6  C   LIG    1        2.455   3.923   1.071  0.00  0.00    +0.030 C 
ATOM      7  C   LIG    1       -0.014   1.203   0.009  0.00  0.00    +0.360 C 
ATOM      8  O   LIG    1        0.002  -0.004   0.002  0.00  0.00    -0.450 OA
ENDROOT
BRANCH   1  10
ATOM      9  C   LIG    1       -3.802   1.756   0.253  0.00  0.00    +0.020 C 
ATOM     10  C   LIG    1       -2.480   0.986   0.243  0.00  0.00    -0.010 C 
ATOM     11  C   LIG    1       -2.501  -0.049  -0.884  0.00  0.00    +0.010 C 
ENDBRANCH   1  10
TORSDOF 1
