REMARK  Name = ZINCpk000000nQe4.0
REMARK                            x       y       z     vdW  Elec       q    Type
REMARK                         _______ _______ _______ _____ _____    ______ ____
ROOT
ATOM      1  C   LIG    1        4.846  -0.078  -0.139  0.00  0.00    +0.240 A 
ATOM      2  N   LIG    1        5.735  -1.038  -0.125  0.00  0.00    -0.440 NA
ATOM      3  C   LIG    1        5.066  -2.200  -0.003  0.00  0.00    +0.160 A 
ATOM      4  N   LIG    1        3.781  -1.924   0.061  0.00  0.00    -0.270 NA
ATOM      5  N   LIG    1        3.628  -0.647  -0.025  0.00  0.00    -0.250 N 
ENDROOT
BRANCH   5   6
ATOM      6  C   LIG    1        2.404   0.035   0.001  0.00  0.00    +0.080 A 
ATOM      7  C   LIG    1        2.232   1.123   0.845  0.00  0.00    +0.070 A 
ATOM      8  C   LIG    1        1.024   1.793   0.869  0.00  0.00    +0.040 A 
ATOM      9  C   LIG    1       -0.015   1.381   0.054  0.00  0.00    +0.080 A 
ATOM     10  C   LIG    1        0.151   0.297  -0.788  0.00  0.00    +0.010 A 
ATOM     11  C   LIG    1        1.358  -0.378  -0.818  0.00  0.00    +0.130 A 
ATOM     12  F   LIG    1        1.520  -1.438  -1.640  0.00  0.00    -0.120 F 
ENDBRANCH   5   6
BRANCH   3  13
ATOM     13  C   LIG    1        5.670  -3.548   0.056  0.00  0.00    +0.620 C 
ATOM     14  N   LIG    1        4.882  -4.634   0.180  0.00  0.00    -0.700 N 
ATOM     15  H   LIG    1        3.919  -4.531   0.231  0.00  0.00    +0.410 HD
ATOM     16  O   LIG    1        6.877  -3.676  -0.007  0.00  0.00    -0.490 OA
BRANCH  14  17
ATOM     17  C   LIG    1        5.480  -5.970   0.239  0.00  0.00    +0.250 C 
ATOM     18  C   LIG    1        4.522  -6.962   0.938  0.00  0.00    +0.060 C 
ATOM     19  C   LIG    1        4.767  -8.257   0.129  0.00  0.00    +0.270 C 
ATOM     20  N   LIG    1        5.240  -7.814  -1.188  0.00  0.00    -0.630 N 
ATOM     21  C   LIG    1        5.259  -8.657  -2.386  0.00  0.00    +0.290 C 
ATOM     22  C   LIG    1        5.652  -6.535  -1.154  0.00  0.00    +0.500 C 
ATOM     23  O   LIG    1        6.095  -5.923  -2.102  0.00  0.00    -0.510 OA
ENDBRANCH  14  17
ENDBRANCH   3  13
BRANCH   1  25
ATOM     24  C   LIG    1        6.098   1.823   0.845  0.00  0.00    +0.060 C 
ATOM     25  C   LIG    1        5.130   1.397  -0.261  0.00  0.00    +0.080 C 
ATOM     26  C   LIG    1        5.758   1.684  -1.626  0.00  0.00    +0.060 C 
ENDBRANCH   1  25
TORSDOF 4
