REMARK  Name = ZINCpk00000e9tso.0
REMARK                            x       y       z     vdW  Elec       q    Type
REMARK                         _______ _______ _______ _____ _____    ______ ____
ROOT
ATOM      1  C   LIG    1        2.180   0.387   0.692  0.00  0.00    +0.070 A 
ATOM      2  C   LIG    1        1.762   1.647   0.853  0.00  0.00    -0.090 A 
ATOM      3  S   LIG    1        0.005   1.667   0.715  0.00  0.00    +0.170 S 
ATOM      4  C   LIG    1        0.011  -0.074   0.446  0.00  0.00    +0.120 A 
ATOM      5  N   LIG    1        1.241  -0.505   0.478  0.00  0.00    -0.440 NA
ENDROOT
BRANCH   4   6
ATOM      6  C   LIG    1       -1.183  -0.910   0.220  0.00  0.00    -0.120 A 
ATOM      7  C   LIG    1       -1.077  -2.260  -0.103  0.00  0.00    +0.020 A 
ATOM      8  C   LIG    1       -2.259  -2.983  -0.301  0.00  0.00    +0.070 A 
ATOM      9  N   LIG    1       -3.426  -2.413  -0.187  0.00  0.00    -0.220 NA
ATOM     10  N   LIG    1       -3.587  -1.176   0.108  0.00  0.00    -0.340 N 
ATOM     11  C   LIG    1       -4.946  -0.639   0.211  0.00  0.00    +0.370 C 
ATOM     12  C   LIG    1       -2.181  -4.446  -0.652  0.00  0.00    +0.160 C 
ATOM     13  C   LIG    1        0.270  -2.923  -0.236  0.00  0.00    +0.150 C 
ATOM     14  C   LIG    1       -2.539  -0.358   0.333  0.00  0.00    +0.490 A 
ATOM     15  O   LIG    1       -2.713   0.815   0.618  0.00  0.00    -0.510 OA
ENDBRANCH   4   6
BRANCH   1  16
ATOM     16  C   LIG    1        3.639   0.014   0.752  0.00  0.00    +0.270 C 
BRANCH  16  17
ATOM     17  N   LIG    1        3.975  -0.433   2.110  0.00  0.00    -0.670 NA
ATOM     18  H   LIG    1        3.739   0.272   2.792  0.00  0.00    +0.340 HD
BRANCH  17  23
ATOM     19  C   LIG    1        5.878  -0.714   3.671  0.00  0.00    +0.130 C 
ATOM     20  C   LIG    1        6.309  -2.157   4.014  0.00  0.00    +0.200 C 
ATOM     21  O   LIG    1        6.613  -2.765   2.740  0.00  0.00    -0.370 OA
ATOM     22  C   LIG    1        5.588  -2.292   1.836  0.00  0.00    +0.230 C 
ATOM     23  C   LIG    1        5.392  -0.806   2.207  0.00  0.00    +0.130 C 
BRANCH  19  24
ATOM     24  O   LIG    1        6.987   0.181   3.776  0.00  0.00    -0.370 OA
BRANCH  24  26
ATOM     25  C   LIG    1        8.296   1.775   5.035  0.00  0.00    +0.040 C 
ATOM     26  C   LIG    1        7.078   0.848   5.036  0.00  0.00    +0.150 C 
ENDBRANCH  24  26
ENDBRANCH  19  24
ENDBRANCH  17  23
ENDBRANCH  16  17
ENDBRANCH   1  16
TORSDOF 6
