REMARK  Name = ZINCvU00000009Wi.0
REMARK                            x       y       z     vdW  Elec       q    Type
REMARK                         _______ _______ _______ _____ _____    ______ ____
ROOT
ATOM      1  N   LIG    1        0.002  -0.004   0.002  0.00  0.00    -0.380 N 
ATOM      2  C   LIG    1       -0.018   1.464   0.010  0.00  0.00    +0.250 C 
ATOM      3  C   LIG    1        1.416   1.997  -0.001  0.00  0.00    +0.060 C 
ATOM      4  C   LIG    1        2.154   1.488   1.241  0.00  0.00    +0.070 C 
ATOM      5  C   LIG    1        2.104  -0.042   1.261  0.00  0.00    +0.060 C 
ATOM      6  C   LIG    1        0.644  -0.500   1.225  0.00  0.00    +0.250 C 
ATOM      7  H   LIG    1        0.518  -0.328  -0.802  0.00  0.00    +0.430 HD
ENDROOT
BRANCH   4   8
ATOM      8  C   LIG    1        3.589   1.945   1.199  0.00  0.00    -0.180 A 
ATOM      9  C   LIG    1        4.490   1.662   0.245  0.00  0.00    +0.240 A 
ATOM     10  N   LIG    1        5.689   2.250   0.546  0.00  0.00    -0.590 N 
ATOM     11  H   LIG    1        6.491   2.188   0.004  0.00  0.00    +0.420 HD
ATOM     12  C   LIG    1        5.586   2.943   1.731  0.00  0.00    +0.120 A 
ATOM     13  C   LIG    1        6.481   3.703   2.476  0.00  0.00    -0.030 A 
ATOM     14  C   LIG    1        6.067   4.288   3.655  0.00  0.00    +0.130 A 
ATOM     15  C   LIG    1        4.763   4.126   4.106  0.00  0.00    -0.030 A 
ATOM     16  C   LIG    1        3.868   3.383   3.388  0.00  0.00    +0.090 A 
ATOM     17  F   LIG    1        6.938   5.026   4.378  0.00  0.00    -0.130 F 
ATOM     18  C   LIG    1        4.265   2.788   2.190  0.00  0.00    -0.110 A 
ENDBRANCH   4   8
BRANCH   1  19
ATOM     19  C   LIG    1       -1.375  -0.511  -0.066  0.00  0.00    +0.380 C 
BRANCH  19  22
ATOM     20  C   LIG    1       -1.236  -4.100  -0.473  0.00  0.00    +0.310 A 
ATOM     21  N   LIG    1       -1.187  -2.880  -0.957  0.00  0.00    -0.480 NA
ATOM     22  C   LIG    1       -1.364  -2.013   0.049  0.00  0.00    -0.080 A 
ATOM     23  C   LIG    1       -1.536  -2.723   1.181  0.00  0.00    +0.180 A 
ATOM     24  O   LIG    1       -1.456  -4.027   0.851  0.00  0.00    -0.180 OA
BRANCH  20  28
ATOM     25  C   LIG    1       -0.793  -7.676  -2.719  0.00  0.00    -0.080 A 
ATOM     26  C   LIG    1       -1.019  -7.739  -1.340  0.00  0.00    +0.050 A 
ATOM     27  C   LIG    1       -1.162  -6.584  -0.616  0.00  0.00    +0.040 A 
ATOM     28  C   LIG    1       -1.081  -5.344  -1.254  0.00  0.00    -0.080 A 
ATOM     29  C   LIG    1       -0.861  -5.280  -2.633  0.00  0.00    +0.060 A 
ATOM     30  C   LIG    1       -0.713  -6.434  -3.358  0.00  0.00    +0.050 A 
BRANCH  25  32
ATOM     31  O   LIG    1       -0.708 -10.004  -2.939  0.00  0.00    -0.670 OA
ATOM     32  C   LIG    1       -0.638  -8.918  -3.498  0.00  0.00    +0.510 C 
ATOM     33  O   LIG    1       -0.441  -8.862  -4.704  0.00  0.00    -0.670 OA
ENDBRANCH  25  32
ENDBRANCH  20  28
ENDBRANCH  19  22
ENDBRANCH   1  19
TORSDOF 5
