REMARK  Name = ZINCnE000001L0am.0
REMARK                            x       y       z     vdW  Elec       q    Type
REMARK                         _______ _______ _______ _____ _____    ______ ____
ROOT
ATOM      1  C   LIG    1        0.505   6.497   1.119  0.00  0.00    +0.220 A 
ATOM      2  C   LIG    1        0.747   7.863   1.121  0.00  0.00    -0.110 A 
ATOM      3  C   LIG    1        0.359   8.633   0.041  0.00  0.00    +0.080 A 
ATOM      4  C   LIG    1       -0.270   8.044  -1.039  0.00  0.00    -0.140 A 
ATOM      5  C   LIG    1       -0.508   6.681  -1.045  0.00  0.00    +0.150 A 
ATOM      6  C   LIG    1       -0.126   5.908   0.034  0.00  0.00    -0.660 A 
ENDROOT
BRANCH   4   7
ATOM      7  C   LIG    1       -0.692   8.886  -2.215  0.00  0.00    -0.020 C 
ATOM      8  C   LIG    1       -2.207   8.780  -2.401  0.00  0.00    +0.040 C 
ATOM      9  C   LIG    1        0.012   8.388  -3.479  0.00  0.00    +0.040 C 
ATOM     10  C   LIG    1       -0.311  10.346  -1.960  0.00  0.00    +0.040 C 
ENDBRANCH   4   7
BRANCH   6  11
ATOM     11  S   LIG    1       -0.435   4.173   0.028  0.00  0.00    +2.640 S 
ATOM     12  O   LIG    1       -1.029   3.867   1.281  0.00  0.00    -1.010 OA
ATOM     13  O   LIG    1       -1.053   3.880  -1.218  0.00  0.00    -1.030 OA
BRANCH  11  14
ATOM     14  N   LIG    1        1.037   3.413   0.010  0.00  0.00    -1.060 NA
BRANCH  14  15
ATOM     15  C   LIG    1        1.102   2.025   0.002  0.00  0.00    +0.450 A 
ATOM     16  N   LIG    1       -0.016   1.315   0.009  0.00  0.00    -0.600 NA
ATOM     17  C   LIG    1        0.002  -0.004   0.002  0.00  0.00    +0.270 A 
ATOM     18  C   LIG    1        1.196  -0.696  -0.013  0.00  0.00    -0.180 A 
ATOM     19  C   LIG    1        2.392   0.011  -0.021  0.00  0.00    +0.060 A 
ATOM     20  C   LIG    1        2.341   1.393  -0.013  0.00  0.00    -0.190 A 
ATOM     21  C   LIG    1        3.612   2.204  -0.020  0.00  0.00    +0.090 C 
ENDBRANCH  14  15
ENDBRANCH  11  14
ENDBRANCH   6  11
BRANCH   1  23
ATOM     22  C   LIG    1        1.532   6.411   3.262  0.00  0.00    +0.230 C 
ATOM     23  O   LIG    1        0.887   5.737   2.180  0.00  0.00    -0.290 OA
ENDBRANCH   1  23
TORSDOF 5
