REMARK  Name = ZINCrD00000l0IfV.0
REMARK                            x       y       z     vdW  Elec       q    Type
REMARK                         _______ _______ _______ _____ _____    ______ ____
ROOT
ATOM      1  N   LIG    1       -2.045   1.136   0.172  0.00  0.00    -1.050 N 
ATOM      2  H   LIG    1       -2.835   1.387  -0.332  0.00  0.00    +0.430 HD
ENDROOT
BRANCH   1   7
ATOM      3  C   LIG    1        0.162   4.066  -0.104  0.00  0.00    +0.170 A 
ATOM      4  C   LIG    1        1.409   3.456  -0.070  0.00  0.00    +0.010 A 
ATOM      5  C   LIG    1        1.505   2.083   0.048  0.00  0.00    +0.060 A 
ATOM      6  C   LIG    1        0.362   1.312   0.132  0.00  0.00    -0.020 A 
ATOM      7  C   LIG    1       -0.889   1.916   0.093  0.00  0.00    +0.170 A 
ATOM      8  C   LIG    1       -0.989   3.295  -0.020  0.00  0.00    -0.130 A 
ATOM      9  C   LIG    1       -2.343   3.954  -0.057  0.00  0.00    +0.090 C 
BRANCH   3  11
ATOM     10  C   LIG    1        0.988   6.249   0.358  0.00  0.00    +0.510 C 
ATOM     11  N   LIG    1        0.066   5.457  -0.224  0.00  0.00    -0.670 N 
ATOM     12  H   LIG    1       -0.664   5.851  -0.726  0.00  0.00    +0.410 HD
ATOM     13  O   LIG    1        1.945   5.756   0.917  0.00  0.00    -0.510 OA
BRANCH  10  15
ATOM     14  C   LIG    1        2.004   8.405   1.043  0.00  0.00    +0.040 C 
ATOM     15  C   LIG    1        0.831   7.747   0.314  0.00  0.00    +0.060 C 
ENDBRANCH  10  15
ENDBRANCH   3  11
ENDBRANCH   1   7
BRANCH   1  16
ATOM     16  S   LIG    1       -2.066  -0.218   1.126  0.00  0.00    +2.700 S 
ATOM     17  O   LIG    1       -0.950  -1.004   0.732  0.00  0.00    -0.940 OA
ATOM     18  O   LIG    1       -3.402  -0.701   1.106  0.00  0.00    -0.940 OA
BRANCH  16  19
ATOM     19  C   LIG    1       -1.750   0.303   2.779  0.00  0.00    -0.670 A 
ATOM     20  C   LIG    1       -2.801   0.652   3.604  0.00  0.00    +0.140 A 
ATOM     21  C   LIG    1       -2.561   1.062   4.904  0.00  0.00    +0.010 A 
ATOM     22  C   LIG    1       -1.260   1.122   5.375  0.00  0.00    +0.130 A 
ATOM     23  O   LIG    1       -1.008   1.525   6.654  0.00  0.00    -0.320 OA
ATOM     24  C   LIG    1       -0.509   0.521   7.539  0.00  0.00    +0.230 C 
ATOM     25  C   LIG    1        0.999   0.383   7.403  0.00  0.00    +0.000 C 
ATOM     26  C   LIG    1        1.414  -0.118   6.029  0.00  0.00    +0.230 C 
ATOM     27  O   LIG    1        1.075   0.834   5.019  0.00  0.00    -0.310 OA
ATOM     28  C   LIG    1       -0.204   0.771   4.545  0.00  0.00    +0.050 A 
ATOM     29  C   LIG    1       -0.449   0.356   3.248  0.00  0.00    +0.140 A 
ENDBRANCH  16  19
ENDBRANCH   1  16
TORSDOF 5
