REMARK  Name = ZINCtV000002IKmH.0
REMARK                            x       y       z     vdW  Elec       q    Type
REMARK                         _______ _______ _______ _____ _____    ______ ____
ROOT
ATOM      1  N   LIG    1        0.454  -1.464  -3.104  0.00  0.00    -0.430 N 
ATOM      2  C   LIG    1        1.528  -2.157  -3.641  0.00  0.00    +0.060 A 
ATOM      3  C   LIG    1        2.855  -2.311  -3.271  0.00  0.00    +0.010 A 
ATOM      4  C   LIG    1        3.695  -3.096  -4.033  0.00  0.00    +0.030 A 
ATOM      5  C   LIG    1        3.219  -3.740  -5.166  0.00  0.00    +0.010 A 
ATOM      6  C   LIG    1        1.902  -3.603  -5.545  0.00  0.00    +0.060 A 
ATOM      7  C   LIG    1        1.039  -2.812  -4.784  0.00  0.00    +0.060 A 
ATOM      8  N   LIG    1       -0.277  -2.490  -4.898  0.00  0.00    -0.490 NA
ATOM      9  C   LIG    1       -0.625  -1.699  -3.913  0.00  0.00    +0.260 A 
ENDROOT
BRANCH   1  15
ATOM     10  C   LIG    1        0.027   2.967  -1.014  0.00  0.00    +0.100 C 
ATOM     11  C   LIG    1        0.267   1.483  -0.910  0.00  0.00    -0.070 A 
ATOM     12  C   LIG    1        0.504   0.906   0.324  0.00  0.00    +0.020 A 
ATOM     13  C   LIG    1        0.724  -0.456   0.423  0.00  0.00    +0.040 A 
ATOM     14  C   LIG    1        0.708  -1.244  -0.711  0.00  0.00    +0.020 A 
ATOM     15  C   LIG    1        0.471  -0.667  -1.952  0.00  0.00    +0.110 A 
ATOM     16  C   LIG    1        0.244   0.699  -2.047  0.00  0.00    +0.030 A 
ENDBRANCH   1  15
BRANCH   9  17
ATOM     17  S   LIG    1       -2.239  -1.037  -3.668  0.00  0.00    +0.060 S 
BRANCH  17  18
ATOM     18  C   LIG    1       -3.096  -1.764  -5.087  0.00  0.00    +0.090 C 
BRANCH  18  19
ATOM     19  C   LIG    1       -4.537  -1.323  -5.083  0.00  0.00    +0.420 C 
ATOM     20  O   LIG    1       -4.944  -0.590  -4.207  0.00  0.00    -0.430 OA
BRANCH  19  21
ATOM     21  C   LIG    1       -5.449  -1.782  -6.143  0.00  0.00    -0.170 A 
ATOM     22  C   LIG    1       -4.958  -2.523  -7.221  0.00  0.00    +0.070 A 
ATOM     23  C   LIG    1       -5.819  -2.950  -8.210  0.00  0.00    -0.110 A 
ATOM     24  C   LIG    1       -7.167  -2.646  -8.136  0.00  0.00    -0.040 A 
ATOM     25  C   LIG    1       -7.662  -1.913  -7.071  0.00  0.00    +0.000 A 
ATOM     26  C   LIG    1       -8.102  -3.116  -9.221  0.00  0.00    +0.100 C 
ATOM     27  C   LIG    1       -5.291  -3.748  -9.374  0.00  0.00    +0.090 C 
ATOM     28  C   LIG    1       -6.814  -1.484  -6.072  0.00  0.00    -0.020 A 
ATOM     29  C   LIG    1       -7.356  -0.691  -4.910  0.00  0.00    +0.110 C 
ENDBRANCH  19  21
ENDBRANCH  18  19
ENDBRANCH  17  18
ENDBRANCH   9  17
TORSDOF 5
