REMARK  Name = ZINCtV000002JWec.0
REMARK                            x       y       z     vdW  Elec       q    Type
REMARK                         _______ _______ _______ _____ _____    ______ ____
ROOT
ATOM      1  C   LIG    1       -0.787   9.096   0.870  0.00  0.00    +0.610 C 
ATOM      2  N   LIG    1       -2.020   9.388   0.410  0.00  0.00    -0.660 N 
ATOM      3  H   LIG    1       -2.609   8.676   0.116  0.00  0.00    +0.410 HD
ATOM      4  O   LIG    1       -0.041   9.991   1.222  0.00  0.00    -0.490 OA
ENDROOT
BRANCH   1   7
ATOM      5  C   LIG    1        1.954   8.195   1.875  0.00  0.00    +0.180 C 
ATOM      6  C   LIG    1        0.874   7.262   1.391  0.00  0.00    +0.170 A 
ATOM      7  C   LIG    1       -0.345   7.700   0.946  0.00  0.00    -0.320 A 
ATOM      8  S   LIG    1       -1.287   6.285   0.483  0.00  0.00    +0.200 S 
ATOM      9  C   LIG    1        0.012   5.263   0.919  0.00  0.00    +0.110 A 
ATOM     10  N   LIG    1        1.016   5.964   1.363  0.00  0.00    -0.440 NA
BRANCH   9  11
ATOM     11  C   LIG    1       -0.004   3.788   0.813  0.00  0.00    +0.180 A 
ATOM     12  C   LIG    1       -1.141   3.142   0.326  0.00  0.00    -0.010 A 
ATOM     13  C   LIG    1       -1.138   1.760   0.228  0.00  0.00    +0.080 A 
ATOM     14  C   LIG    1       -0.004   1.070   0.629  0.00  0.00    +0.000 A 
ATOM     15  C   LIG    1        1.089   1.775   1.102  0.00  0.00    +0.280 A 
ATOM     16  N   LIG    1        1.063   3.089   1.181  0.00  0.00    -0.440 NA
ENDBRANCH   9  11
ENDBRANCH   1   7
BRANCH   2  17
ATOM     17  C   LIG    1       -2.450  10.720   0.358  0.00  0.00    +0.140 A 
ATOM     18  C   LIG    1       -1.522  11.751   0.354  0.00  0.00    +0.040 A 
ATOM     19  C   LIG    1       -1.949  13.064   0.301  0.00  0.00    +0.050 A 
ATOM     20  C   LIG    1       -3.300  13.354   0.253  0.00  0.00    +0.010 A 
ATOM     21  C   LIG    1       -4.231  12.332   0.257  0.00  0.00    +0.050 A 
ATOM     22  C   LIG    1       -3.812  11.013   0.303  0.00  0.00    +0.040 A 
BRANCH  22  23
ATOM     23  O   LIG    1       -4.726  10.006   0.301  0.00  0.00    -0.240 OA
BRANCH  23  24
ATOM     24  C   LIG    1       -5.066   9.451   1.494  0.00  0.00    +0.120 A 
ATOM     25  C   LIG    1       -4.412   9.841   2.653  0.00  0.00    -0.040 A 
ATOM     26  C   LIG    1       -4.760   9.275   3.865  0.00  0.00    +0.050 A 
ATOM     27  C   LIG    1       -5.758   8.320   3.923  0.00  0.00    +0.000 A 
ATOM     28  C   LIG    1       -6.411   7.928   2.769  0.00  0.00    +0.060 A 
ATOM     29  C   LIG    1       -6.072   8.496   1.555  0.00  0.00    -0.060 A 
ATOM     30 CL   LIG    1       -6.898   8.010   0.107  0.00  0.00    -0.050 Cl
ENDBRANCH  23  24
ENDBRANCH  22  23
ENDBRANCH   2  17
TORSDOF 5
