REMARK  Name = ZINCpk000005clyg.0
REMARK                            x       y       z     vdW  Elec       q    Type
REMARK                         _______ _______ _______ _____ _____    ______ ____
ROOT
ATOM      1  C   LIG    1        0.627   6.255  -1.223  0.00  0.00    +0.430 C 
ENDROOT
BRANCH   1   9
ATOM      2  C   LIG    1       -0.842   2.923   1.442  0.00  0.00    +0.420 A 
ATOM      3  N   LIG    1       -0.355   3.780   0.576  0.00  0.00    -0.340 NA
ATOM      4  N   LIG    1       -0.493   5.154   0.784  0.00  0.00    -0.260 N 
ATOM      5  C   LIG    1       -1.133   5.619   1.906  0.00  0.00    +0.130 A 
ATOM      6  C   LIG    1       -1.649   4.698   2.838  0.00  0.00    +0.190 A 
ATOM      7  N   LIG    1       -1.111   6.941   1.840  0.00  0.00    -0.240 NA
ATOM      8  N   LIG    1       -0.506   7.302   0.762  0.00  0.00    -0.240 NA
ATOM      9  C   LIG    1       -0.114   6.248   0.090  0.00  0.00    +0.170 A 
ATOM     10  C   LIG    1       -1.503   3.367   2.604  0.00  0.00    -0.020 A 
BRANCH   2  12
ATOM     11  C   LIG    1       -0.013   1.086   0.008  0.00  0.00    +0.290 C 
ATOM     12  N   LIG    1       -0.698   1.558   1.213  0.00  0.00    -0.590 N 
ATOM     13  C   LIG    1       -1.233   0.594   2.178  0.00  0.00    +0.310 C 
ENDBRANCH   2  12
ENDBRANCH   1   9
BRANCH   1  14
ATOM     14  N   LIG    1        2.070   6.272  -0.969  0.00  0.00    -0.710 N 
ATOM     15  H   LIG    1        2.402   6.277  -0.058  0.00  0.00    +0.410 HD
BRANCH  14  16
ATOM     16  C   LIG    1        2.965   6.282  -2.036  0.00  0.00    +0.350 A 
ATOM     17  C   LIG    1        2.489   6.270  -3.343  0.00  0.00    +0.220 A 
ATOM     18  N   LIG    1        3.338   6.284  -4.355  0.00  0.00    -0.440 NA
ATOM     19  C   LIG    1        4.643   6.300  -4.125  0.00  0.00    +0.190 A 
ATOM     20  C   LIG    1        5.119   6.306  -2.820  0.00  0.00    +0.320 A 
ATOM     21  N   LIG    1        4.271   6.298  -1.807  0.00  0.00    -0.460 NA
BRANCH  19  22
ATOM     22  O   LIG    1        5.516   6.309  -5.165  0.00  0.00    -0.300 OA
BRANCH  22  23
ATOM     23  C   LIG    1        4.957   6.301  -6.481  0.00  0.00    +0.610 C 
ATOM     24  F   LIG    1        4.181   5.149  -6.651  0.00  0.00    -0.160 F 
ATOM     25  F   LIG    1        5.988   6.311  -7.426  0.00  0.00    -0.140 F 
ATOM     26  F   LIG    1        4.154   7.433  -6.653  0.00  0.00    -0.160 F 
ENDBRANCH  22  23
ENDBRANCH  19  22
ENDBRANCH  14  16
ENDBRANCH   1  14
TORSDOF 6
