REMARK  Name = ZINCbw0000001gLp.0
REMARK                            x       y       z     vdW  Elec       q    Type
REMARK                         _______ _______ _______ _____ _____    ______ ____
ROOT
ATOM      1  C   LIG    1        2.396   0.027  -0.021  0.00  0.00    -0.070 A 
ATOM      2  C   LIG    1        1.208  -0.680  -0.014  0.00  0.00    +0.040 A 
ATOM      3  C   LIG    1        0.002  -0.004   0.002  0.00  0.00    +0.020 A 
ATOM      4  C   LIG    1       -0.017   1.378   0.010  0.00  0.00    +0.020 A 
ATOM      5  C   LIG    1        1.171   2.086   0.002  0.00  0.00    +0.030 A 
ATOM      6  C   LIG    1        2.378   1.410  -0.013  0.00  0.00    -0.030 A 
ATOM      7 CL   LIG    1        3.870   2.298  -0.021  0.00  0.00    -0.060 Cl
ENDROOT
BRANCH   1   9
ATOM      8  C   LIG    1        3.792  -1.581  -1.291  0.00  0.00    +0.070 C 
ATOM      9  C   LIG    1        3.711  -0.710  -0.037  0.00  0.00    -0.020 C 
BRANCH   9  10
ATOM     10  C   LIG    1        3.813  -1.581   1.188  0.00  0.00    +0.450 C 
ATOM     11  O   LIG    1        4.713  -1.413   1.976  0.00  0.00    -0.450 OA
ENDBRANCH   9  10
ENDBRANCH   1   9
TORSDOF 2
