REMARK  Name = ZINCrg000000paWd.0
REMARK                            x       y       z     vdW  Elec       q    Type
REMARK                         _______ _______ _______ _____ _____    ______ ____
ROOT
ATOM      1  N   LIG    1       -0.875   1.865   1.354  0.00  0.00    -1.050 N 
ATOM      2  H   LIG    1       -0.510   2.529   1.960  0.00  0.00    +0.430 HD
ENDROOT
BRANCH   1   8
ATOM      3  C   LIG    1       -6.264   4.763   3.437  0.00  0.00    +0.290 C 
ATOM      4  N   LIG    1       -5.293   3.885   2.779  0.00  0.00    -0.620 N 
ATOM      5  C   LIG    1       -4.117   4.466   2.135  0.00  0.00    +0.280 C 
ATOM      6  C   LIG    1       -2.876   3.616   2.394  0.00  0.00    +0.090 C 
ATOM      7  C   LIG    1       -3.158   2.174   2.062  0.00  0.00    -0.070 A 
ATOM      8  C   LIG    1       -2.158   1.355   1.567  0.00  0.00    +0.140 A 
ATOM      9  C   LIG    1       -2.435   0.023   1.277  0.00  0.00    +0.030 A 
ATOM     10  C   LIG    1       -3.699  -0.490   1.496  0.00  0.00    +0.050 A 
ATOM     11  C   LIG    1       -4.704   0.320   1.990  0.00  0.00    +0.080 A 
ATOM     12  C   LIG    1       -4.438   1.658   2.269  0.00  0.00    -0.110 A 
ATOM     13  C   LIG    1       -5.500   2.554   2.776  0.00  0.00    +0.560 C 
ATOM     14  O   LIG    1       -6.547   2.094   3.185  0.00  0.00    -0.520 OA
ENDBRANCH   1   8
BRANCH   1  15
ATOM     15  S   LIG    1        0.023   1.338   0.066  0.00  0.00    +2.690 S 
ATOM     16  O   LIG    1        1.198   2.137   0.042  0.00  0.00    -0.940 OA
ATOM     17  O   LIG    1        0.049  -0.080   0.148  0.00  0.00    -0.930 OA
BRANCH  15  18
ATOM     18  C   LIG    1       -0.879   1.735  -1.395  0.00  0.00    -0.660 A 
ATOM     19  C   LIG    1       -0.681   2.953  -2.019  0.00  0.00    +0.140 A 
ATOM     20  C   LIG    1       -1.387   3.268  -3.166  0.00  0.00    +0.040 A 
ATOM     21  C   LIG    1       -2.290   2.366  -3.692  0.00  0.00    +0.090 A 
ATOM     22  C   LIG    1       -2.491   1.143  -3.068  0.00  0.00    +0.120 A 
ATOM     23  C   LIG    1       -1.778   0.827  -1.920  0.00  0.00    +0.160 A 
BRANCH  22  24
ATOM     24  N   LIG    1       -3.409   0.224  -3.600  0.00  0.00    -0.330 N 
ATOM     25  C   LIG    1       -4.103   0.334  -4.753  0.00  0.00    +0.470 A 
ATOM     26  N   LIG    1       -4.840  -0.741  -4.866  0.00  0.00    -0.320 NA
ATOM     27  N   LIG    1       -4.658  -1.522  -3.863  0.00  0.00    -0.030 NA
ATOM     28  N   LIG    1       -3.798  -1.010  -3.050  0.00  0.00    -0.070 NA
ENDBRANCH  22  24
ENDBRANCH  15  18
ENDBRANCH   1  15
TORSDOF 4
