REMARK  Name = ZINCtV00000L6l5D.0
REMARK                            x       y       z     vdW  Elec       q    Type
REMARK                         _______ _______ _______ _____ _____    ______ ____
ROOT
ATOM      1  C   LIG    1       -3.646   7.598   1.331  0.00  0.00    +0.550 C 
ENDROOT
BRANCH   1   2
ATOM      2  C   LIG    1       -4.305   8.713   0.518  0.00  0.00    +0.110 C 
ATOM      3 CL   LIG    1       -3.108  10.028   0.222  0.00  0.00    -0.080 Cl
ATOM      4 CL   LIG    1       -5.710   9.375   1.433  0.00  0.00    -0.050 Cl
ATOM      5 CL   LIG    1       -4.873   8.051  -1.060  0.00  0.00    -0.060 Cl
ENDBRANCH   1   2
BRANCH   1   6
ATOM      6  N   LIG    1       -2.504   7.060   0.588  0.00  0.00    -0.720 N 
ATOM      7  H   LIG    1       -1.877   7.663   0.158  0.00  0.00    +0.410 HD
ATOM      8  C   LIG    1       -2.324   5.727   0.500  0.00  0.00    +0.660 C 
ATOM      9  O   LIG    1       -3.109   4.971   1.038  0.00  0.00    -0.560 OA
BRANCH   8  10
ATOM     10  O   LIG    1       -1.274   5.233  -0.184  0.00  0.00    -0.360 OA
BRANCH  10  11
ATOM     11  C   LIG    1       -1.143   3.788  -0.236  0.00  0.00    +0.210 C 
ATOM     12  C   LIG    1       -0.300   3.309   0.948  0.00  0.00    +0.010 C 
ATOM     13  C   LIG    1       -0.162   1.786   0.892  0.00  0.00    -0.010 C 
ATOM     14  C   LIG    1        0.521   1.384  -0.416  0.00  0.00    +0.010 C 
ATOM     15  C   LIG    1       -0.321   1.863  -1.600  0.00  0.00    +0.020 C 
ATOM     16  C   LIG    1       -1.550   1.145   0.961  0.00  0.00    +0.030 C 
ATOM     17  C   LIG    1       -0.460   3.386  -1.545  0.00  0.00    +0.000 C 
BRANCH  17  18
ATOM     18  C   LIG    1       -1.302   3.865  -2.728  0.00  0.00    -0.020 C 
ATOM     19  C   LIG    1       -2.639   3.121  -2.737  0.00  0.00    +0.020 C 
ATOM     20  C   LIG    1       -0.554   3.584  -4.033  0.00  0.00    +0.010 C 
ENDBRANCH  17  18
ENDBRANCH  10  11
ENDBRANCH   8  10
ENDBRANCH   1   6
BRANCH   1  21
ATOM     21  N   LIG    1       -3.184   8.136   2.613  0.00  0.00    -0.740 N 
ATOM     22  H   LIG    1       -2.723   8.988   2.644  0.00  0.00    +0.400 HD
BRANCH  21  26
ATOM     23  C   LIG    1       -3.854   6.003   6.131  0.00  0.00    +0.090 A 
ATOM     24  C   LIG    1       -4.386   5.548   4.934  0.00  0.00    +0.030 A 
ATOM     25  C   LIG    1       -4.165   6.255   3.767  0.00  0.00    +0.000 A 
ATOM     26  C   LIG    1       -3.409   7.419   3.794  0.00  0.00    +0.170 A 
ATOM     27  C   LIG    1       -2.872   7.870   4.993  0.00  0.00    -0.020 A 
ATOM     28  C   LIG    1       -3.099   7.165   6.159  0.00  0.00    -0.040 A 
BRANCH  23  29
ATOM     29  O   LIG    1       -4.073   5.306   7.279  0.00  0.00    -0.320 OA
BRANCH  29  31
ATOM     30  C   LIG    1       -3.846   4.920   9.654  0.00  0.00    +0.070 C 
ATOM     31  C   LIG    1       -3.495   5.832   8.476  0.00  0.00    +0.180 C 
ENDBRANCH  29  31
ENDBRANCH  23  29
ENDBRANCH  21  26
ENDBRANCH   1  21
TORSDOF 9
