REMARK  Name = ZINCrD0000074mwp.0
REMARK                            x       y       z     vdW  Elec       q    Type
REMARK                         _______ _______ _______ _____ _____    ______ ____
ROOT
ATOM      1  N   LIG    1        3.330   8.090  -0.301  0.00  0.00    -0.720 N 
ATOM      2  H   LIG    1        2.412   8.402  -0.275  0.00  0.00    +0.420 HD
ATOM      3  C   LIG    1        4.340   8.975  -0.417  0.00  0.00    +0.520 C 
ATOM      4  O   LIG    1        5.488   8.584  -0.449  0.00  0.00    -0.510 OA
ENDROOT
BRANCH   1   5
ATOM      5  C   LIG    1        3.619   6.656  -0.214  0.00  0.00    +0.320 C 
BRANCH   5   8
ATOM      6  N   LIG    1        2.346   4.546   0.003  0.00  0.00    -0.660 N 
ATOM      7  H   LIG    1        3.193   4.077   0.073  0.00  0.00    +0.420 HD
ATOM      8  C   LIG    1        2.326   5.890  -0.092  0.00  0.00    +0.510 C 
ATOM      9  O   LIG    1        1.269   6.483  -0.079  0.00  0.00    -0.510 OA
BRANCH   6  17
ATOM     10  C   LIG    1        2.313   1.982   1.238  0.00  0.00    +0.110 C 
ATOM     11  C   LIG    1        1.086   2.571   0.592  0.00  0.00    -0.110 A 
ATOM     12  C   LIG    1       -0.101   1.863   0.587  0.00  0.00    -0.020 A 
ATOM     13  C   LIG    1       -1.227   2.402  -0.012  0.00  0.00    +0.020 A 
ATOM     14  C   LIG    1       -1.170   3.653  -0.596  0.00  0.00    +0.050 A 
ATOM     15  C   LIG    1        0.013   4.366  -0.594  0.00  0.00    +0.030 A 
ATOM     16 CL   LIG    1       -0.178   0.294   1.325  0.00  0.00    -0.060 Cl
ATOM     17  C   LIG    1        1.146   3.826   0.000  0.00  0.00    +0.160 A 
ENDBRANCH   6  17
ENDBRANCH   5   8
ENDBRANCH   1   5
BRANCH   3  18
ATOM     18  C   LIG    1        4.043  10.449  -0.506  0.00  0.00    +0.270 C 
BRANCH  18  19
ATOM     19  O   LIG    1        5.288  11.187  -0.624  0.00  0.00    -0.330 OA
BRANCH  19  20
ATOM     20  C   LIG    1        5.197  12.529  -0.715  0.00  0.00    +0.510 C 
ATOM     21  O   LIG    1        4.108  13.067  -0.697  0.00  0.00    -0.490 OA
BRANCH  20  22
ATOM     22  C   LIG    1        6.421  13.344  -0.837  0.00  0.00    -0.160 A 
ATOM     23  C   LIG    1        7.675  12.729  -0.853  0.00  0.00    +0.140 A 
ATOM     24  C   LIG    1        8.814  13.495  -0.973  0.00  0.00    +0.020 A 
ATOM     25  C   LIG    1        8.720  14.875  -1.066  0.00  0.00    +0.030 A 
ATOM     26  C   LIG    1        7.482  15.493  -1.046  0.00  0.00    +0.000 A 
ATOM     27 CL   LIG    1       10.162  15.831  -1.209  0.00  0.00    -0.040 Cl
ATOM     28  C   LIG    1        6.331  14.737  -0.932  0.00  0.00    +0.180 A 
ATOM     29  F   LIG    1        5.123  15.341  -0.912  0.00  0.00    -0.100 F 
ENDBRANCH  20  22
ENDBRANCH  19  20
ENDBRANCH  18  19
ENDBRANCH   3  18
TORSDOF 7
