REMARK  Name = ZINCkj000005i6gA.0
REMARK                            x       y       z     vdW  Elec       q    Type
REMARK                         _______ _______ _______ _____ _____    ______ ____
ROOT
ATOM      1  N   LIG    1       -0.778   3.061  -1.224  0.00  0.00    -0.380 N 
ATOM      2  C   LIG    1       -0.755   1.594  -1.230  0.00  0.00    +0.270 C 
ATOM      3  C   LIG    1       -0.013   1.086   0.008  0.00  0.00    +0.060 C 
ATOM      4  C   LIG    1       -0.731   1.581   1.267  0.00  0.00    +0.270 C 
ATOM      5  C   LIG    1       -0.817   3.109   1.226  0.00  0.00    +0.040 C 
ATOM      6  C   LIG    1       -1.529   3.542  -0.057  0.00  0.00    +0.250 C 
ATOM      7  H   LIG    1        0.167   3.412  -1.181  0.00  0.00    +0.430 HD
ENDROOT
BRANCH   4   8
ATOM      8  N   LIG    1        0.017   1.162   2.454  0.00  0.00    -0.700 N 
ATOM      9  H   LIG    1        0.969   0.987   2.391  0.00  0.00    +0.420 HD
BRANCH   8  10
ATOM     10  C   LIG    1       -0.634   1.017   3.667  0.00  0.00    +0.600 A 
ATOM     11  N   LIG    1        0.058   0.637   4.731  0.00  0.00    -0.580 NA
ATOM     12  C   LIG    1       -0.531   0.488   5.908  0.00  0.00    +0.250 A 
ATOM     13  C   LIG    1       -1.887   0.732   6.021  0.00  0.00    -0.140 A 
ATOM     14  C   LIG    1       -2.588   1.130   4.883  0.00  0.00    +0.400 A 
ATOM     15  C   LIG    1        0.268   0.055   7.110  0.00  0.00    +0.160 C 
ATOM     16  N   LIG    1       -1.934   1.266   3.736  0.00  0.00    -0.630 NA
BRANCH  14  17
ATOM     17  O   LIG    1       -3.918   1.380   4.949  0.00  0.00    -0.290 OA
ATOM     18  C   LIG    1       -4.563   1.783   3.739  0.00  0.00    +0.260 C 
ENDBRANCH  14  17
ENDBRANCH   8  10
ENDBRANCH   4   8
BRANCH   1  19
ATOM     19  C   LIG    1       -1.422   3.545  -2.452  0.00  0.00    +0.280 C 
BRANCH  19  20
ATOM     20  C   LIG    1       -1.337   5.072  -2.506  0.00  0.00    +0.200 C 
BRANCH  20  22
ATOM     21  C   LIG    1        0.224   6.883  -2.673  0.00  0.00    +0.240 C 
ATOM     22  O   LIG    1        0.032   5.468  -2.615  0.00  0.00    -0.400 OA
ENDBRANCH  20  22
ENDBRANCH  19  20
ENDBRANCH   1  19
TORSDOF 6
