REMARK  Name = ZINCqH0000003ISb.0
REMARK                            x       y       z     vdW  Elec       q    Type
REMARK                         _______ _______ _______ _____ _____    ______ ____
ROOT
ATOM      1  N   LIG    1       -2.436   1.325   0.021  0.00  0.00    -0.730 N 
ATOM      2  H   LIG    1       -2.426   0.355   0.015  0.00  0.00    +0.410 HD
ENDROOT
BRANCH   1   8
ATOM      3  C   LIG    1       -0.016   1.356   0.009  0.00  0.00    +0.100 A 
ATOM      4  C   LIG    1        1.172   2.066   0.002  0.00  0.00    -0.030 A 
ATOM      5  C   LIG    1        1.152   3.449   0.010  0.00  0.00    +0.050 A 
ATOM      6  C   LIG    1       -0.053   4.126   0.025  0.00  0.00    -0.170 A 
ATOM      7  C   LIG    1       -1.244   3.425   0.033  0.00  0.00    +0.020 A 
ATOM      8  C   LIG    1       -1.232   2.038   0.019  0.00  0.00    +0.200 A 
BRANCH   6   9
ATOM      9  C   LIG    1       -0.068   5.633   0.033  0.00  0.00    +0.510 C 
ATOM     10  F   LIG    1       -0.721   6.087   1.184  0.00  0.00    -0.180 F 
ATOM     11  F   LIG    1       -0.743   6.099  -1.100  0.00  0.00    -0.180 F 
ATOM     12  F   LIG    1        1.246   6.113   0.023  0.00  0.00    -0.180 F 
ENDBRANCH   6   9
BRANCH   3  13
ATOM     13  O   LIG    1        0.002  -0.004   0.002  0.00  0.00    -0.320 OA
BRANCH  13  15
ATOM     14  C   LIG    1        1.104  -2.155  -0.020  0.00  0.00    +0.070 C 
ATOM     15  C   LIG    1        1.284  -0.635  -0.014  0.00  0.00    +0.180 C 
ENDBRANCH  13  15
ENDBRANCH   3  13
ENDBRANCH   1   8
BRANCH   1  16
ATOM     16  C   LIG    1       -3.713   2.044   0.031  0.00  0.00    +0.360 C 
BRANCH  16  17
ATOM     17  C   LIG    1       -4.848   1.053   0.031  0.00  0.00    +0.200 A 
ATOM     18  C   LIG    1       -5.695   0.974   1.119  0.00  0.00    -0.150 A 
ATOM     19  C   LIG    1       -6.742   0.045   1.095  0.00  0.00    +0.510 A 
ATOM     20  N   LIG    1       -6.892  -0.744   0.010  0.00  0.00    -0.430 N 
ATOM     21  C   LIG    1       -7.906  -1.652  -0.028  0.00  0.00    +0.280 A 
ATOM     22  C   LIG    1       -8.075  -2.454  -1.103  0.00  0.00    +0.000 A 
ATOM     23  C   LIG    1       -7.205  -2.358  -2.198  0.00  0.00    +0.130 A 
ATOM     24  C   LIG    1       -6.187  -1.452  -2.170  0.00  0.00    +0.030 A 
ATOM     25  C   LIG    1       -6.027  -0.627  -1.042  0.00  0.00    +0.390 A 
ATOM     26  O   LIG    1       -7.508  -0.049   2.041  0.00  0.00    -0.530 OA
ATOM     27  N   LIG    1       -5.035   0.262  -1.014  0.00  0.00    -0.530 NA
ENDBRANCH  16  17
ENDBRANCH   1  16
TORSDOF 6
