REMARK  Name = ZINCrg00000Aun5g.0
REMARK                            x       y       z     vdW  Elec       q    Type
REMARK                         _______ _______ _______ _____ _____    ______ ____
ROOT
ATOM      1  C   LIG    1       -2.402   3.479   6.684  0.00  0.00    +0.570 C 
ATOM      2  N   LIG    1       -1.258   3.511   7.397  0.00  0.00    -0.730 N 
ATOM      3  H   LIG    1       -0.421   3.252   6.982  0.00  0.00    +0.410 HD
ATOM      4  O   LIG    1       -3.451   3.804   7.205  0.00  0.00    -0.510 OA
ENDROOT
BRANCH   1  10
ATOM      5  C   LIG    1       -0.013   1.086   0.008  0.00  0.00    +0.140 C 
ATOM      6  C   LIG    1       -0.718   1.572   1.248  0.00  0.00    +0.080 A 
ATOM      7  C   LIG    1       -0.122   1.830   2.422  0.00  0.00    -0.040 A 
ATOM      8  C   LIG    1       -1.170   2.275   3.344  0.00  0.00    -0.120 A 
ATOM      9  C   LIG    1       -1.177   2.678   4.677  0.00  0.00    +0.130 A 
ATOM     10  C   LIG    1       -2.380   3.050   5.272  0.00  0.00    -0.160 A 
ATOM     11  C   LIG    1       -3.570   3.016   4.531  0.00  0.00    +0.030 A 
ATOM     12  C   LIG    1       -3.565   2.622   3.224  0.00  0.00    +0.010 A 
ATOM     13 CL   LIG    1       -5.064   3.481   5.283  0.00  0.00    -0.030 Cl
ATOM     14  C   LIG    1       -2.373   2.246   2.610  0.00  0.00    +0.130 A 
ATOM     15  N   LIG    1       -2.061   1.821   1.341  0.00  0.00    -0.590 N 
ATOM     16  H   LIG    1       -2.699   1.710   0.619  0.00  0.00    +0.420 HD
ENDBRANCH   1  10
BRANCH   2  17
ATOM     17  C   LIG    1       -1.280   3.937   8.798  0.00  0.00    +0.410 C 
BRANCH  17  18
ATOM     18  C   LIG    1        0.117   3.884   9.361  0.00  0.00    +0.120 C 
ATOM     19  N   LIG    1        1.205   3.516   8.738  0.00  0.00    -0.280 NA
ATOM     20  O   LIG    1        2.364   3.651   9.594  0.00  0.00    -0.170 OA
ATOM     21  C   LIG    1        2.009   4.726  10.409  0.00  0.00    +0.110 C 
ATOM     22  C   LIG    1        2.461   5.125  11.775  0.00  0.00    +0.320 C 
ATOM     23  N   LIG    1        1.243   5.678  12.438  0.00  0.00    -0.630 N 
ATOM     24  C   LIG    1        0.061   5.418  11.537  0.00  0.00    +0.320 C 
ATOM     25  C   LIG    1        1.198   6.289  13.639  0.00  0.00    +0.530 C 
ATOM     26  O   LIG    1        0.142   6.698  14.072  0.00  0.00    -0.510 OA
ATOM     27  C   LIG    1        0.540   4.231  10.736  0.00  0.00    -0.030 C 
BRANCH  25  28
ATOM     28  C   LIG    1        2.461   6.464  14.443  0.00  0.00    +0.220 C 
BRANCH  28  29
ATOM     29  O   LIG    1        2.157   7.134  15.668  0.00  0.00    -0.550 OA
ATOM     30  H   LIG    1        2.925   7.281  16.237  0.00  0.00    +0.390 HD
ENDBRANCH  28  29
ENDBRANCH  25  28
ENDBRANCH  17  18
ENDBRANCH   2  17
TORSDOF 5
