REMARK  Name = ZINCqH0000003N0C.0
REMARK                            x       y       z     vdW  Elec       q    Type
REMARK                         _______ _______ _______ _____ _____    ______ ____
ROOT
ATOM      1  C   LIG    1        2.779  -0.823   3.684  0.00  0.00    +0.300 C 
ATOM      2  C   LIG    1        4.001   0.059   3.945  0.00  0.00    +0.040 C 
ENDROOT
BRANCH   1   3
ATOM      3  N   LIG    1        2.654  -1.813   4.757  0.00  0.00    -0.740 N 
ATOM      4  H   LIG    1        2.076  -1.636   5.515  0.00  0.00    +0.390 HD
ATOM      5  C   LIG    1        3.343  -2.970   4.690  0.00  0.00    +0.710 C 
ATOM      6  N   LIG    1        3.308  -3.836   5.722  0.00  0.00    -0.630 N 
ATOM      7  C   LIG    1        4.137  -5.049   5.711  0.00  0.00    +0.300 C 
ATOM      8  C   LIG    1        3.244  -6.264   5.955  0.00  0.00    +0.000 C 
ATOM      9  C   LIG    1        2.448  -6.059   7.245  0.00  0.00    +0.150 C 
ATOM     10  C   LIG    1        1.556  -4.823   7.106  0.00  0.00    +0.030 C 
ATOM     11  C   LIG    1        2.434  -3.588   6.878  0.00  0.00    +0.270 C 
ATOM     12  O   LIG    1        3.996  -3.232   3.699  0.00  0.00    -0.590 OA
BRANCH   9  13
ATOM     13  O   LIG    1        1.634  -7.208   7.490  0.00  0.00    -0.380 OA
BRANCH  13  14
ATOM     14  C   LIG    1        2.275  -8.217   8.274  0.00  0.00    +0.160 C 
ATOM     15  C   LIG    1        1.316  -9.393   8.472  0.00  0.00    +0.040 C 
ENDBRANCH  13  14
ENDBRANCH   9  13
ENDBRANCH   1   3
BRANCH   1  19
ATOM     16  C   LIG    1       -0.734   1.612   3.578  0.00  0.00    +0.110 A 
ATOM     17  C   LIG    1       -0.189   1.231   4.793  0.00  0.00    -0.030 A 
ATOM     18  C   LIG    1        0.948   0.445   4.824  0.00  0.00    +0.010 A 
ATOM     19  C   LIG    1        1.540   0.033   3.644  0.00  0.00    -0.090 A 
ATOM     20  C   LIG    1        0.997   0.405   2.428  0.00  0.00    -0.020 A 
ATOM     21  C   LIG    1       -0.142   1.192   2.390  0.00  0.00    +0.110 A 
BRANCH  16  22
ATOM     22  O   LIG    1       -1.849   2.390   3.545  0.00  0.00    -0.300 OA
BRANCH  22  24
ATOM     23  C   LIG    1       -3.643   3.647   4.566  0.00  0.00    +0.070 C 
ATOM     24  C   LIG    1       -2.403   2.784   4.802  0.00  0.00    +0.170 C 
ENDBRANCH  22  24
ENDBRANCH  16  22
BRANCH  21  25
ATOM     25  O   LIG    1       -0.677   1.559   1.195  0.00  0.00    -0.300 OA
BRANCH  25  26
ATOM     26  C   LIG    1       -0.013   1.096   0.017  0.00  0.00    +0.170 C 
ATOM     27  C   LIG    1       -0.755   1.605  -1.220  0.00  0.00    +0.070 C 
ENDBRANCH  25  26
ENDBRANCH  21  25
ENDBRANCH   1  19
TORSDOF 8
