REMARK  Name = ZINCtV00000L6jdP.0
REMARK                            x       y       z     vdW  Elec       q    Type
REMARK                         _______ _______ _______ _____ _____    ______ ____
ROOT
ATOM      1  C   LIG    1       -0.017   1.376   0.010  0.00  0.00    +0.180 A 
ATOM      2  C   LIG    1        0.002  -0.004   0.002  0.00  0.00    -0.080 A 
ATOM      3  C   LIG    1        1.228  -0.667  -0.013  0.00  0.00    +0.230 A 
ATOM      4  N   LIG    1        2.353   0.016  -0.020  0.00  0.00    -0.460 NA
ATOM      5  C   LIG    1        2.353   1.353  -0.013  0.00  0.00    +0.290 A 
ATOM      6  C   LIG    1        3.385   2.299  -0.017  0.00  0.00    -0.200 A 
ATOM      7  C   LIG    1        2.787   3.565  -0.004  0.00  0.00    +0.140 A 
ATOM      8  N   LIG    1        1.486   3.417   0.007  0.00  0.00    -0.310 NA
ATOM      9  C   LIG    1        3.521   4.881  -0.004  0.00  0.00    +0.180 C 
ATOM     10  N   LIG    1        1.176   2.053   0.002  0.00  0.00    -0.300 N 
ENDROOT
BRANCH   6  11
ATOM     11  C   LIG    1        4.838   2.013  -0.032  0.00  0.00    +0.010 A 
ATOM     12  C   LIG    1        5.439   1.377   1.054  0.00  0.00    +0.020 A 
ATOM     13  C   LIG    1        6.792   1.109   1.032  0.00  0.00    +0.000 A 
ATOM     14  C   LIG    1        7.555   1.480  -0.061  0.00  0.00    +0.000 A 
ATOM     15  C   LIG    1        6.967   2.116  -1.139  0.00  0.00    +0.000 A 
ATOM     16  C   LIG    1        5.614   2.385  -1.131  0.00  0.00    +0.010 A 
ENDBRANCH   6  11
BRANCH   3  17
ATOM     17  C   LIG    1        1.265  -2.174  -0.022  0.00  0.00    -0.020 C 
ATOM     18  C   LIG    1        0.545  -2.694  -1.268  0.00  0.00    +0.050 C 
ATOM     19  C   LIG    1        0.568  -2.708   1.231  0.00  0.00    +0.050 C 
ATOM     20  C   LIG    1        2.719  -2.648  -0.038  0.00  0.00    +0.050 C 
ENDBRANCH   3  17
BRANCH   1  21
ATOM     21  S   LIG    1       -1.545   2.252   0.022  0.00  0.00    +0.010 S 
BRANCH  21  22
ATOM     22  C   LIG    1       -2.704   0.862   0.020  0.00  0.00    +0.130 C 
BRANCH  22  27
ATOM     23  C   LIG    1       -8.123   2.871   0.056  0.00  0.00    +0.090 C 
ATOM     24  C   LIG    1       -6.710   2.347   0.047  0.00  0.00    -0.070 A 
ATOM     25  C   LIG    1       -6.067   2.114  -1.155  0.00  0.00    +0.010 A 
ATOM     26  C   LIG    1       -4.771   1.633  -1.163  0.00  0.00    +0.040 A 
ATOM     27  C   LIG    1       -4.117   1.386   0.029  0.00  0.00    -0.090 A 
ATOM     28  C   LIG    1       -4.762   1.615   1.231  0.00  0.00    +0.040 A 
ATOM     29  C   LIG    1       -6.056   2.099   1.240  0.00  0.00    +0.010 A 
ENDBRANCH  22  27
ENDBRANCH  21  22
ENDBRANCH   1  21
TORSDOF 5
