REMARK  Name = ZINCrD000000A7D3.0
REMARK                            x       y       z     vdW  Elec       q    Type
REMARK                         _______ _______ _______ _____ _____    ______ ____
ROOT
ATOM      1  O   LIG    1       -0.612  -1.602   1.199  0.00  0.00    -0.500 OA
ATOM      2  C   LIG    1       -1.039  -0.655   0.573  0.00  0.00    +0.520 C 
ATOM      3  N   LIG    1       -0.444  -0.285  -0.578  0.00  0.00    -0.580 N 
ENDROOT
BRANCH   3   4
ATOM      4  C   LIG    1        0.597  -1.129  -1.169  0.00  0.00    +0.290 C 
ATOM      5  C   LIG    1        0.015  -2.506  -1.554  0.00  0.00    +0.030 C 
ATOM      6  C   LIG    1        0.298  -3.350  -0.293  0.00  0.00    +0.080 C 
ATOM      7  C   LIG    1        1.503  -2.702   0.355  0.00  0.00    -0.030 A 
ATOM      8  C   LIG    1        2.380  -3.190   1.309  0.00  0.00    +0.000 A 
ATOM      9  C   LIG    1        3.425  -2.406   1.758  0.00  0.00    +0.010 A 
ATOM     10  C   LIG    1        3.596  -1.131   1.255  0.00  0.00    -0.020 A 
ATOM     11  C   LIG    1        2.723  -0.642   0.303  0.00  0.00    +0.020 A 
ATOM     12  C   LIG    1        1.675  -1.426  -0.149  0.00  0.00    -0.120 A 
ENDBRANCH   3   4
BRANCH   2  13
ATOM     13  C   LIG    1       -2.235   0.107   1.083  0.00  0.00    -0.030 C 
ATOM     14  C   LIG    1       -1.808   1.019   2.236  0.00  0.00    +0.070 C 
ATOM     15  C   LIG    1       -3.036   1.744   2.789  0.00  0.00    +0.220 C 
ATOM     16  N   LIG    1       -4.019   0.759   3.259  0.00  0.00    -0.460 N 
ATOM     17  C   LIG    1       -4.479  -0.097   2.158  0.00  0.00    +0.210 C 
ATOM     18  C   LIG    1       -3.294  -0.878   1.586  0.00  0.00    +0.070 C 
BRANCH  16  19
ATOM     19  C   LIG    1       -5.085   1.381   3.883  0.00  0.00    +0.490 A 
ATOM     20  N   LIG    1       -6.314   1.153   3.444  0.00  0.00    -0.550 NA
ATOM     21  C   LIG    1       -7.356   1.727   4.022  0.00  0.00    +0.340 A 
ATOM     22  C   LIG    1       -7.149   2.583   5.092  0.00  0.00    -0.110 A 
ATOM     23  C   LIG    1       -5.850   2.804   5.522  0.00  0.00    +0.350 A 
ATOM     24  N   LIG    1       -4.853   2.194   4.903  0.00  0.00    -0.530 NA
ENDBRANCH  16  19
ENDBRANCH   2  13
BRANCH   3  25
ATOM     25  C   LIG    1       -0.839   0.962  -1.238  0.00  0.00    +0.210 C 
ATOM     26  C   LIG    1       -1.475   2.050  -0.371  0.00  0.00    +0.000 C 
ATOM     27  C   LIG    1       -2.336   1.256  -1.357  0.00  0.00    +0.020 C 
ENDBRANCH   3  25
TORSDOF 4
