REMARK  Name = ZINCpk00000y6v0i.1
REMARK                            x       y       z     vdW  Elec       q    Type
REMARK                         _______ _______ _______ _____ _____    ______ ____
ROOT
ATOM      1  C   LIG    1       -4.711  -0.222   0.659  0.00  0.00    +0.060 C 
ATOM      2  C   LIG    1       -4.283   1.151   0.078  0.00  0.00    +0.080 C 
ATOM      3  C   LIG    1       -2.744   1.044   0.040  0.00  0.00    +0.230 C 
ATOM      4  N   LIG    1       -2.406  -0.387   0.023  0.00  0.00    -0.620 N 
ATOM      5  C   LIG    1       -1.160  -0.900   0.008  0.00  0.00    +0.610 C 
ATOM      6  O   LIG    1       -0.999  -2.106   0.000  0.00  0.00    -0.520 OA
ATOM      7  C   LIG    1       -3.657  -1.168   0.031  0.00  0.00    +0.290 C 
ENDROOT
BRANCH   1  10
ATOM      8  C   LIG    1       -7.609  -0.909  -1.511  0.00  0.00    +0.640 A 
ATOM      9  N   LIG    1       -6.402  -0.592  -1.087  0.00  0.00    -0.590 NA
ATOM     10  C   LIG    1       -6.102  -0.589   0.209  0.00  0.00    +0.240 A 
ATOM     11  C   LIG    1       -7.050  -0.923   1.132  0.00  0.00    -0.190 A 
ATOM     12  C   LIG    1       -8.342  -1.256   0.689  0.00  0.00    +0.540 A 
ATOM     13  O   LIG    1       -9.216  -1.555   1.487  0.00  0.00    -0.540 OA
ATOM     14  N   LIG    1       -8.596  -1.244  -0.637  0.00  0.00    -0.650 N 
ATOM     15  H   LIG    1       -9.480  -1.474  -0.966  0.00  0.00    +0.410 HD
BRANCH   8  17
ATOM     16  C   LIG    1       -6.821  -0.539  -3.807  0.00  0.00    +0.330 C 
ATOM     17  N   LIG    1       -7.875  -0.899  -2.854  0.00  0.00    -0.590 N 
ATOM     18  C   LIG    1       -9.212  -1.249  -3.339  0.00  0.00    +0.300 C 
ENDBRANCH   8  17
ENDBRANCH   1  10
BRANCH   5  19
ATOM     19  C   LIG    1        0.002  -0.004   0.002  0.00  0.00    -0.090 A 
ATOM     20  C   LIG    1        1.319  -0.370  -0.013  0.00  0.00    +0.270 A 
ATOM     21  N   LIG    1        2.051   0.744  -0.013  0.00  0.00    -0.490 NA
ATOM     22  C   LIG    1        1.264   1.789  -0.000  0.00  0.00    +0.270 A 
ATOM     23  N   LIG    1       -0.017   1.377   0.010  0.00  0.00    -0.550 N 
ATOM     24  H   LIG    1       -0.804   1.943   0.017  0.00  0.00    +0.420 HD
BRANCH  22  25
ATOM     25  C   LIG    1        1.719   3.226   0.003  0.00  0.00    +0.060 C 
ATOM     26  C   LIG    1        0.687   4.295  -0.362  0.00  0.00    +0.020 C 
ATOM     27  C   LIG    1        1.805   3.942  -1.347  0.00  0.00    +0.060 C 
ENDBRANCH  22  25
ENDBRANCH   5  19
TORSDOF 4
