REMARK  Name = ZINCpk00000y6v0i.0
REMARK                            x       y       z     vdW  Elec       q    Type
REMARK                         _______ _______ _______ _____ _____    ______ ____
ROOT
ATOM      1  C   LIG    1       -1.332   2.095   0.020  0.00  0.00    +0.050 C 
ATOM      2  C   LIG    1       -1.437   3.065  -1.187  0.00  0.00    +0.050 C 
ATOM      3  C   LIG    1       -2.411   4.148  -0.676  0.00  0.00    +0.280 C 
ATOM      4  N   LIG    1       -2.375   4.109   0.793  0.00  0.00    -0.610 N 
ATOM      5  C   LIG    1       -3.103   4.888   1.618  0.00  0.00    +0.620 C 
ATOM      6  O   LIG    1       -2.992   4.769   2.823  0.00  0.00    -0.540 OA
ATOM      7  C   LIG    1       -1.411   3.076   1.216  0.00  0.00    +0.280 C 
ENDROOT
BRANCH   1  10
ATOM      8  C   LIG    1        2.292   1.430  -0.012  0.00  0.00    +0.640 A 
ATOM      9  N   LIG    1        1.126   2.044   0.002  0.00  0.00    -0.590 NA
ATOM     10  C   LIG    1       -0.016   1.360   0.009  0.00  0.00    +0.240 A 
ATOM     11  C   LIG    1        0.002  -0.004   0.002  0.00  0.00    -0.190 A 
ATOM     12  C   LIG    1        1.242  -0.667  -0.013  0.00  0.00    +0.540 A 
ATOM     13  O   LIG    1        1.296  -1.886  -0.021  0.00  0.00    -0.540 OA
ATOM     14  N   LIG    1        2.373   0.072  -0.020  0.00  0.00    -0.650 N 
ATOM     15  H   LIG    1        3.239  -0.365  -0.031  0.00  0.00    +0.410 HD
BRANCH   8  17
ATOM     16  C   LIG    1        3.371   3.635  -0.010  0.00  0.00    +0.330 C 
ATOM     17  N   LIG    1        3.443   2.172  -0.019  0.00  0.00    -0.590 N 
ATOM     18  C   LIG    1        4.746   1.502  -0.034  0.00  0.00    +0.300 C 
ENDBRANCH   8  17
ENDBRANCH   1  10
BRANCH   5  19
ATOM     19  C   LIG    1       -4.033   5.885   1.059  0.00  0.00    -0.060 A 
ATOM     20  C   LIG    1       -4.831   6.731   1.771  0.00  0.00    +0.230 A 
ATOM     21  N   LIG    1       -5.518   7.474   0.871  0.00  0.00    -0.560 N 
ATOM     22  H   LIG    1       -6.165   8.167   1.076  0.00  0.00    +0.420 HD
ATOM     23  C   LIG    1       -5.142   7.071  -0.371  0.00  0.00    +0.240 A 
ATOM     24  N   LIG    1       -4.256   6.124  -0.259  0.00  0.00    -0.450 NA
BRANCH  23  25
ATOM     25  C   LIG    1       -5.665   7.631  -1.668  0.00  0.00    +0.060 C 
ATOM     26  C   LIG    1       -6.956   8.451  -1.614  0.00  0.00    +0.020 C 
ATOM     27  C   LIG    1       -6.968   7.044  -2.216  0.00  0.00    +0.060 C 
ENDBRANCH  23  25
ENDBRANCH   5  19
TORSDOF 4
