REMARK  Name = ZINC660000002D4I.0
REMARK                            x       y       z     vdW  Elec       q    Type
REMARK                         _______ _______ _______ _____ _____    ______ ____
ROOT
ATOM      1  C   LIG    1       -0.795   1.527  -1.120  0.00  0.00    +0.130 C 
ATOM      2  C   LIG    1       -0.036   2.256  -2.231  0.00  0.00    +0.030 C 
ATOM      3  C   LIG    1       -0.912   3.046  -1.255  0.00  0.00    +0.090 C 
ENDROOT
BRANCH   1   4
ATOM      4  N   LIG    1       -0.012   1.005   0.008  0.00  0.00    -0.800 NA
ATOM      5  H   LIG    1        0.925   1.379   0.001  0.00  0.00    +0.360 HD
ATOM      6  H   LIG    1        0.002  -0.004   0.002  0.00  0.00    +0.350 HD
ENDBRANCH   1   4
BRANCH   1   8
ATOM      7  N   LIG    1       -2.861   0.093  -1.813  0.00  0.00    -0.410 NA
ATOM      8  C   LIG    1       -1.961   0.718  -1.511  0.00  0.00    +0.240 C 
ENDBRANCH   1   8
TORSDOF 2
