REMARK  Name = ZINCrH000004swZo.0
REMARK                            x       y       z     vdW  Elec       q    Type
REMARK                         _______ _______ _______ _____ _____    ______ ____
ROOT
ATOM      1  C   LIG    1        1.247   6.416  -5.490  0.00  0.00    +0.610 C 
ATOM      2  N   LIG    1        0.739   6.082  -4.287  0.00  0.00    -0.730 N 
ATOM      3  H   LIG    1        1.210   6.330  -3.476  0.00  0.00    +0.400 HD
ATOM      4  O   LIG    1        0.657   6.105  -6.508  0.00  0.00    -0.500 OA
ENDROOT
BRANCH   1   7
ATOM      5  C   LIG    1        2.580   7.274  -8.085  0.00  0.00    +0.180 C 
ATOM      6  C   LIG    1        3.133   7.552  -6.711  0.00  0.00    +0.170 A 
ATOM      7  C   LIG    1        2.512   7.155  -5.573  0.00  0.00    -0.310 A 
ATOM      8  S   LIG    1        3.493   7.691  -4.210  0.00  0.00    +0.160 S 
ATOM      9  C   LIG    1        4.629   8.378  -5.287  0.00  0.00    +0.080 A 
ATOM     10  N   LIG    1        4.255   8.199  -6.513  0.00  0.00    -0.470 NA
BRANCH   9  11
ATOM     11  C   LIG    1        5.886   9.097  -4.868  0.00  0.00    +0.050 C 
ATOM     12  C   LIG    1        7.106   8.380  -5.455  0.00  0.00    +0.040 C 
ATOM     13  C   LIG    1        8.370   9.164  -5.089  0.00  0.00    -0.010 C 
ATOM     14  C   LIG    1        8.237  10.601  -5.600  0.00  0.00    +0.220 C 
ATOM     15  O   LIG    1        7.066  11.199  -5.038  0.00  0.00    -0.380 OA
ATOM     16  C   LIG    1        5.849  10.537  -5.387  0.00  0.00    +0.250 C 
ENDBRANCH   9  11
ENDBRANCH   1   7
BRANCH   2  17
ATOM     17  C   LIG    1       -0.524   5.345  -4.205  0.00  0.00    +0.390 C 
BRANCH  17  18
ATOM     18  C   LIG    1       -0.575   4.579  -2.908  0.00  0.00    +0.170 A 
ATOM     19  N   LIG    1       -0.953   3.333  -2.751  0.00  0.00    -0.460 NA
ATOM     20  C   LIG    1       -0.834   3.082  -1.435  0.00  0.00    +0.210 A 
ATOM     21  N   LIG    1       -0.402   4.169  -0.869  0.00  0.00    -0.370 NA
ATOM     22  O   LIG    1       -0.242   5.039  -1.698  0.00  0.00    +0.080 OA
BRANCH  20  23
ATOM     23  C   LIG    1       -1.150   1.781  -0.743  0.00  0.00    +0.050 C 
ATOM     24  C   LIG    1       -0.013   1.086   0.008  0.00  0.00    +0.060 C 
ATOM     25  C   LIG    1       -1.136   1.773   0.788  0.00  0.00    +0.050 C 
ENDBRANCH  20  23
ENDBRANCH  17  18
BRANCH  17  26
ATOM     26  C   LIG    1       -1.694   6.329  -4.262  0.00  0.00    -0.020 C 
ATOM     27  C   LIG    1       -3.013   5.558  -4.176  0.00  0.00    +0.040 C 
ATOM     28  C   LIG    1       -1.642   7.106  -5.579  0.00  0.00    +0.050 C 
ENDBRANCH  17  26
ENDBRANCH   2  17
TORSDOF 6
