REMARK  Name = ZINCtj00001LCZZZ.0
REMARK                            x       y       z     vdW  Elec       q    Type
REMARK                         _______ _______ _______ _____ _____    ______ ____
ROOT
ATOM      1  O   LIG    1        2.687   0.371  -1.294  0.00  0.00    -0.500 OA
ATOM      2  C   LIG    1        2.563   1.365  -1.985  0.00  0.00    +0.570 C 
ATOM      3  N   LIG    1        3.115   1.391  -3.218  0.00  0.00    -0.730 N 
ATOM      4  H   LIG    1        3.000   2.164  -3.793  0.00  0.00    +0.400 HD
ATOM      5  C   LIG    1        3.902   0.240  -3.667  0.00  0.00    +0.280 C 
ATOM      6  C   LIG    1        3.003  -0.835  -4.275  0.00  0.00    +0.220 C 
ATOM      7  N   LIG    1        2.729  -1.886  -3.298  0.00  0.00    -0.700 N 
ATOM      8  H   LIG    1        3.430  -2.573  -3.155  0.00  0.00    +0.410 HD
ATOM      9  C   LIG    1        1.600  -1.995  -2.567  0.00  0.00    +0.560 C 
ATOM     10  C   LIG    1        1.419  -3.256  -1.744  0.00  0.00    +0.080 C 
ATOM     11  C   LIG    1        0.384  -4.146  -2.439  0.00  0.00    +0.260 C 
ATOM     12  N   LIG    1        0.292  -5.438  -1.747  0.00  0.00    -0.500 N 
ATOM     13  C   LIG    1        1.600  -6.107  -1.792  0.00  0.00    +0.240 C 
ATOM     14  C   LIG    1        2.637  -5.231  -1.087  0.00  0.00    +0.270 C 
ATOM     15  H   LIG    1        0.020  -5.293  -0.787  0.00  0.00    +0.430 HD
ATOM     16  H   LIG    1       -0.397  -6.017  -2.205  0.00  0.00    +0.440 HD
ATOM     17  C   LIG    1        0.949  -2.938  -0.332  0.00  0.00    +0.060 C 
ATOM     18  C   LIG    1        0.834  -1.456  -0.099  0.00  0.00    +0.020 C 
ATOM     19  C   LIG    1       -0.339  -0.875  -0.174  0.00  0.00    -0.030 C 
ATOM     20  C   LIG    1       -0.478   0.605   0.055  0.00  0.00    +0.240 C 
ATOM     21  O   LIG    1        0.811   1.197   0.226  0.00  0.00    -0.310 OA
ATOM     22  C   LIG    1        0.999   2.412  -0.352  0.00  0.00    +0.160 A 
ATOM     23  C   LIG    1        0.339   3.524   0.148  0.00  0.00    -0.030 A 
ATOM     24  C   LIG    1        0.502   4.753  -0.459  0.00  0.00    +0.060 A 
ATOM     25  C   LIG    1        1.324   4.884  -1.566  0.00  0.00    +0.000 A 
ATOM     26  C   LIG    1        1.992   3.788  -2.070  0.00  0.00    +0.060 A 
ATOM     27  O   LIG    1        2.674  -3.939  -1.688  0.00  0.00    -0.350 OA
ATOM     28  O   LIG    1        0.736  -1.152  -2.538  0.00  0.00    -0.480 OA
ATOM     29  C   LIG    1        1.839   2.539  -1.465  0.00  0.00    -0.150 A 
ENDROOT
BRANCH   6  30
ATOM     30  C   LIG    1        1.751  -0.222  -4.884  0.00  0.00    +0.010 C 
ATOM     31  C   LIG    1        1.092  -1.106  -5.956  0.00  0.00    +0.010 C 
ATOM     32  C   LIG    1        0.840   0.185  -6.753  0.00  0.00    +0.010 C 
ATOM     33  C   LIG    1        2.043   0.786  -6.008  0.00  0.00    +0.020 C 
ENDBRANCH   6  30
TORSDOF 1
