REMARK  Name = ZINCkj000005meIg.1
REMARK                            x       y       z     vdW  Elec       q    Type
REMARK                         _______ _______ _______ _____ _____    ______ ____
ROOT
ATOM      1  O   LIG    1       -0.806   3.106  -3.070  0.00  0.00    -0.940 OA
ATOM      2  S   LIG    1        0.126   2.236  -2.443  0.00  0.00    +2.600 S 
ATOM      3  O   LIG    1        1.310   2.741  -1.842  0.00  0.00    -0.940 OA
ENDROOT
BRANCH   2   4
ATOM      4  N   LIG    1       -0.720   1.571  -1.185  0.00  0.00    -1.020 NA
ATOM      5  C   LIG    1       -0.013   1.086   0.008  0.00  0.00    +0.330 C 
ATOM      6  C   LIG    1       -0.729   1.580   1.276  0.00  0.00    +0.270 C 
ATOM      7  N   LIG    1       -2.136   1.224   1.163  0.00  0.00    -0.390 N 
ATOM      8  C   LIG    1       -2.963   1.579   2.327  0.00  0.00    +0.270 C 
ATOM      9  C   LIG    1       -4.407   1.580   1.760  0.00  0.00    +0.060 C 
ATOM     10  C   LIG    1       -4.238   1.835   0.240  0.00  0.00    +0.080 C 
ATOM     11  C   LIG    1       -2.729   2.025   0.058  0.00  0.00    +0.170 C 
ATOM     12  H   LIG    1       -2.231   0.240   0.962  0.00  0.00    +0.420 HD
ATOM     13  C   LIG    1       -2.191   1.460  -1.252  0.00  0.00    +0.340 C 
ENDBRANCH   2   4
BRANCH   2  14
ATOM     14  C   LIG    1        0.511   0.830  -3.523  0.00  0.00    -0.330 C 
BRANCH  14  15
ATOM     15  C   LIG    1        1.301   1.322  -4.738  0.00  0.00    +0.110 C 
BRANCH  15  16
ATOM     16  C   LIG    1        1.621   0.154  -5.635  0.00  0.00    -0.090 A 
ATOM     17  C   LIG    1        2.794  -0.555  -5.456  0.00  0.00    +0.000 A 
ATOM     18  C   LIG    1        3.085  -1.629  -6.276  0.00  0.00    +0.010 A 
ATOM     19  C   LIG    1        2.207  -1.988  -7.282  0.00  0.00    +0.020 A 
ATOM     20  C   LIG    1        1.037  -1.276  -7.465  0.00  0.00    +0.010 A 
ATOM     21  C   LIG    1        0.744  -0.205  -6.642  0.00  0.00    +0.000 A 
ENDBRANCH  15  16
ENDBRANCH  14  15
ENDBRANCH   2  14
TORSDOF 4
