REMARK  Name = ZINCkj000005meIg.0
REMARK                            x       y       z     vdW  Elec       q    Type
REMARK                         _______ _______ _______ _____ _____    ______ ____
ROOT
ATOM      1  O   LIG    1       -5.567   0.593   0.984  0.00  0.00    -0.930 OA
ATOM      2  S   LIG    1       -4.503  -0.218   1.465  0.00  0.00    +2.600 S 
ATOM      3  O   LIG    1       -4.301  -1.533   0.966  0.00  0.00    -0.930 OA
ENDROOT
BRANCH   2   4
ATOM      4  N   LIG    1       -4.851  -0.438   3.069  0.00  0.00    -1.010 NA
ATOM      5  C   LIG    1       -5.649   0.581   3.717  0.00  0.00    +0.310 C 
ATOM      6  C   LIG    1       -5.793   0.343   5.209  0.00  0.00    +0.280 C 
ATOM      7  N   LIG    1       -5.959  -1.084   5.513  0.00  0.00    -0.390 N 
ATOM      8  C   LIG    1       -5.946  -1.201   7.006  0.00  0.00    +0.280 C 
ATOM      9  C   LIG    1       -4.470  -0.929   7.381  0.00  0.00    +0.070 C 
ATOM     10  C   LIG    1       -3.663  -1.335   6.124  0.00  0.00    +0.080 C 
ATOM     11  C   LIG    1       -4.742  -1.822   5.117  0.00  0.00    +0.180 C 
ATOM     12  H   LIG    1       -6.795  -1.470   5.101  0.00  0.00    +0.440 HD
ATOM     13  C   LIG    1       -4.336  -1.633   3.696  0.00  0.00    +0.310 C 
ENDBRANCH   2   4
BRANCH   2  14
ATOM     14  C   LIG    1       -2.945   0.711   1.462  0.00  0.00    -0.330 C 
BRANCH  14  15
ATOM     15  C   LIG    1       -2.514   0.980   0.019  0.00  0.00    +0.110 C 
BRANCH  15  16
ATOM     16  C   LIG    1       -1.219   1.751   0.017  0.00  0.00    -0.090 A 
ATOM     17  C   LIG    1       -0.013   1.076   0.008  0.00  0.00    +0.000 A 
ATOM     18  C   LIG    1        1.175   1.783   0.000  0.00  0.00    +0.010 A 
ATOM     19  C   LIG    1        1.156   3.165   0.008  0.00  0.00    +0.010 A 
ATOM     20  C   LIG    1       -0.050   3.840   0.022  0.00  0.00    +0.010 A 
ATOM     21  C   LIG    1       -1.238   3.133   0.029  0.00  0.00    +0.000 A 
ENDBRANCH  15  16
ENDBRANCH  14  15
ENDBRANCH   2  14
TORSDOF 4
