REMARK  Name = ZINCpe000000WrOs.0
REMARK                            x       y       z     vdW  Elec       q    Type
REMARK                         _______ _______ _______ _____ _____    ______ ____
ROOT
ATOM      1  N   LIG    1       -2.428   1.036   0.019  0.00  0.00    -0.670 N 
ATOM      2  H   LIG    1       -2.417   0.070  -0.063  0.00  0.00    +0.410 HD
ATOM      3  C   LIG    1       -3.601   1.690   0.130  0.00  0.00    +0.520 C 
ATOM      4  O   LIG    1       -3.622   2.902   0.137  0.00  0.00    -0.510 OA
ENDROOT
BRANCH   1   8
ATOM      5  C   LIG    1        1.157   3.168   0.037  0.00  0.00    +0.090 A 
ATOM      6  C   LIG    1        0.081   3.615   0.788  0.00  0.00    -0.020 A 
ATOM      7  C   LIG    1       -1.108   2.911   0.779  0.00  0.00    +0.050 A 
ATOM      8  C   LIG    1       -1.224   1.753   0.023  0.00  0.00    +0.130 A 
ATOM      9  C   LIG    1       -0.148   1.307  -0.734  0.00  0.00    +0.010 A 
ATOM     10  C   LIG    1        1.041   2.012  -0.725  0.00  0.00    +0.090 A 
ATOM     11  F   LIG    1        2.090   1.577  -1.456  0.00  0.00    -0.130 F 
BRANCH   5  13
ATOM     12  C   LIG    1        2.376   5.041   0.852  0.00  0.00    +0.250 C 
ATOM     13  O   LIG    1        2.327   3.862   0.046  0.00  0.00    -0.310 OA
ENDBRANCH   5  13
ENDBRANCH   1   8
BRANCH   3  14
ATOM     14  C   LIG    1       -4.888   0.914   0.245  0.00  0.00    +0.020 C 
ATOM     15  C   LIG    1       -5.123   0.042  -1.010  0.00  0.00    +0.080 C 
ATOM     16  C   LIG    1       -5.976   0.910  -1.909  0.00  0.00    +0.510 C 
ATOM     17  N   LIG    1       -6.511   1.922  -1.204  0.00  0.00    -0.610 N 
ATOM     18  O   LIG    1       -6.151   0.721  -3.095  0.00  0.00    -0.510 OA
ATOM     19  C   LIG    1       -6.109   1.859   0.206  0.00  0.00    +0.300 C 
BRANCH  17  20
ATOM     20  C   LIG    1       -7.382   2.954  -1.770  0.00  0.00    +0.290 C 
ATOM     21  C   LIG    1       -8.643   2.300  -2.362  0.00  0.00    +0.060 C 
ATOM     22  C   LIG    1       -9.343   3.384  -3.222  0.00  0.00    -0.310 C 
ATOM     23  S   LIG    1       -7.936   4.170  -4.095  0.00  0.00    +2.400 S 
ATOM     24  O   LIG    1       -8.104   5.581  -4.084  0.00  0.00    -0.930 OA
ATOM     25  O   LIG    1       -7.708   3.494  -5.324  0.00  0.00    -0.920 OA
ATOM     26  C   LIG    1       -6.639   3.698  -2.898  0.00  0.00    -0.330 C 
ENDBRANCH  17  20
ENDBRANCH   3  14
TORSDOF 4
