REMARK  Name = ZINCpe000000XL2c.1
REMARK                            x       y       z     vdW  Elec       q    Type
REMARK                         _______ _______ _______ _____ _____    ______ ____
ROOT
ATOM      1  N   LIG    1       -0.173   2.131   6.095  0.00  0.00    -0.630 N 
ATOM      2  H   LIG    1       -0.964   2.685   6.190  0.00  0.00    +0.420 HD
ATOM      3  C   LIG    1        0.214   1.714   4.873  0.00  0.00    +0.520 C 
ATOM      4  O   LIG    1        1.203   1.022   4.753  0.00  0.00    -0.500 OA
ENDROOT
BRANCH   1  10
ATOM      5  N   LIG    1        0.289   2.112   8.509  0.00  0.00    -0.330 N 
ATOM      6  N   LIG    1        1.273   1.538   9.324  0.00  0.00    -0.270 NA
ATOM      7  C   LIG    1        2.105   0.873   8.563  0.00  0.00    +0.090 A 
ATOM      8  C   LIG    1        1.683   0.993   7.236  0.00  0.00    -0.070 A 
ATOM      9  C   LIG    1        3.310   0.104   9.038  0.00  0.00    +0.160 C 
ATOM     10  C   LIG    1        0.563   1.766   7.221  0.00  0.00    +0.300 A 
BRANCH   5  15
ATOM     11  C   LIG    1       -4.058   5.312  10.262  0.00  0.00    +0.100 C 
ATOM     12  C   LIG    1       -2.904   4.462   9.796  0.00  0.00    -0.080 A 
ATOM     13  C   LIG    1       -2.457   3.415  10.581  0.00  0.00    +0.050 A 
ATOM     14  C   LIG    1       -1.400   2.634  10.157  0.00  0.00    +0.040 A 
ATOM     15  C   LIG    1       -0.784   2.902   8.941  0.00  0.00    +0.140 A 
ATOM     16  C   LIG    1       -1.232   3.958   8.158  0.00  0.00    -0.030 A 
ATOM     17  C   LIG    1       -2.293   4.731   8.585  0.00  0.00    +0.050 A 
ENDBRANCH   5  15
ENDBRANCH   1  10
BRANCH   3  18
ATOM     18  C   ACE A  0       -0.581   2.109   3.655  0.00  0.00    +0.330 C 
BRANCH  18  19
ATOM     19  N   LIG    1        0.042   1.534   2.456  0.00  0.00    -0.470 N 
ATOM     20  H1  LIG    1        0.986   1.880   2.368  0.00  0.00    +0.410 HD
ATOM     21  H2  LIG    1        0.059   0.528   2.535  0.00  0.00    +0.430 HD
BRANCH  19  22
ATOM     22  CA  LIG    1       -0.733   1.918   1.269  0.00  0.00    +0.050 C 
BRANCH  22  23
ATOM     23  C   LIG    1       -2.105   1.298   1.342  0.00  0.00    +0.500 C 
ATOM     24  OXT LIG    1       -2.970   1.635   0.551  0.00  0.00    -0.630 OA
ATOM     25  O   LIG    1       -2.350   0.459   2.192  0.00  0.00    -0.670 OA
ENDBRANCH  22  23
BRANCH  22  26
ATOM     26  CB  LIG    1       -0.017   1.425   0.010  0.00  0.00    +0.250 C 
ATOM     27  CG2 LIG    1        1.418   1.954  -0.001  0.00  0.00    +0.010 C 
BRANCH  26  28
ATOM     28  OG1 LIG    1        0.002  -0.004   0.002  0.00  0.00    -0.530 OA
ATOM     29  HG1 LIG    1        0.456  -0.395   0.761  0.00  0.00    +0.370 HD
ENDBRANCH  26  28
ENDBRANCH  22  26
ENDBRANCH  19  22
ENDBRANCH  18  19
ENDBRANCH   3  18
TORSDOF 8
