REMARK  Name = ZINCpe00000FUbKQ.0
REMARK                            x       y       z     vdW  Elec       q    Type
REMARK                         _______ _______ _______ _____ _____    ______ ____
ROOT
ATOM      1  C   LIG    1       -1.944  -2.652   8.260  0.00  0.00    +0.500 C 
ATOM      2  N   LIG    1       -1.430  -2.167   7.112  0.00  0.00    -0.610 N 
ATOM      3  C   LIG    1        0.024  -2.112   6.907  0.00  0.00    +0.270 C 
ATOM      4  C   LIG    1        0.413  -0.681   6.521  0.00  0.00    +0.030 C 
ATOM      5  C   LIG    1       -0.409  -0.244   5.307  0.00  0.00    +0.010 C 
ATOM      6  C   LIG    1       -1.897  -0.260   5.664  0.00  0.00    +0.030 C 
ATOM      7  C   LIG    1       -2.313  -1.685   6.041  0.00  0.00    +0.270 C 
ATOM      8  O   LIG    1       -1.204  -3.047   9.136  0.00  0.00    -0.520 OA
ENDROOT
BRANCH   5   9
ATOM      9  C   LIG    1        0.001   1.172   4.896  0.00  0.00    +0.190 C 
ATOM     10  O   LIG    1       -0.356   2.123   5.922  0.00  0.00    -0.360 OA
ATOM     11  C   LIG    1       -0.422   3.414   5.293  0.00  0.00    +0.200 C 
ATOM     12  C   LIG    1       -0.757   3.183   3.807  0.00  0.00    +0.030 C 
ATOM     13  C   LIG    1       -0.817   1.643   3.667  0.00  0.00    +0.010 C 
BRANCH  13  14
ATOM     14  C   LIG    1       -0.166   1.194   2.384  0.00  0.00    +0.470 C 
ATOM     15  O   LIG    1        0.829   0.510   2.418  0.00  0.00    -0.500 OA
BRANCH  14  16
ATOM     16  O   LIG    1       -0.692   1.554   1.203  0.00  0.00    -0.360 OA
ATOM     17  C   LIG    1       -0.013   1.086   0.008  0.00  0.00    +0.260 C 
ENDBRANCH  14  16
ENDBRANCH  13  14
ENDBRANCH   5   9
BRANCH   1  18
ATOM     18  C   LIG    1       -3.438  -2.702   8.454  0.00  0.00    +0.320 C 
BRANCH  18  20
ATOM     19  C   LIG    1       -3.854  -2.453  10.842  0.00  0.00    +0.550 C 
ATOM     20  N   LIG    1       -3.739  -3.265   9.773  0.00  0.00    -0.590 N 
ATOM     21  O   LIG    1       -3.707  -1.253  10.713  0.00  0.00    -0.540 OA
BRANCH  19  23
ATOM     22  C   LIG    1       -4.270  -2.217  13.221  0.00  0.00    +0.140 C 
ATOM     23  C   LIG    1       -4.157  -3.019  12.166  0.00  0.00    -0.090 C 
ENDBRANCH  19  23
BRANCH  20  24
ATOM     24  C   LIG    1       -3.917  -4.711   9.928  0.00  0.00    +0.270 C 
ATOM     25  C   LIG    1       -2.567  -5.359  10.244  0.00  0.00    +0.020 C 
ENDBRANCH  20  24
ENDBRANCH  18  20
ENDBRANCH   1  18
TORSDOF 7
