REMARK  Name = ZINCrH000004ofHU.0
REMARK                            x       y       z     vdW  Elec       q    Type
REMARK                         _______ _______ _______ _____ _____    ______ ____
ROOT
ATOM      1  C   LIG    1       -2.096  -0.058   1.210  0.00  0.00    +0.210 C 
ENDROOT
BRANCH   1   4
ATOM      2  N   LIG    1       -4.421  -0.060   2.055  0.00  0.00    -0.730 N 
ATOM      3  H   LIG    1       -4.097   0.386   2.853  0.00  0.00    +0.400 HD
ATOM      4  C   LIG    1       -3.560  -0.386   1.070  0.00  0.00    +0.520 C 
ATOM      5  O   LIG    1       -3.964  -0.944   0.072  0.00  0.00    -0.520 OA
BRANCH   2   7
ATOM      6  C   LIG    1       -6.544   0.734   1.139  0.00  0.00    +0.040 C 
ATOM      7  C   LIG    1       -5.844  -0.379   1.920  0.00  0.00    +0.280 C 
BRANCH   7   8
ATOM      8  C   LIG    1       -6.464  -0.500   3.288  0.00  0.00    -0.080 A 
ATOM      9  C   LIG    1       -6.100   0.379   4.291  0.00  0.00    +0.020 A 
ATOM     10  C   LIG    1       -6.673   0.272   5.545  0.00  0.00    +0.050 A 
ATOM     11  C   LIG    1       -7.602  -0.721   5.798  0.00  0.00    -0.090 A 
ATOM     12  C   LIG    1       -7.962  -1.603   4.795  0.00  0.00    +0.050 A 
ATOM     13 BR   LIG    1       -8.380  -0.873   7.515  0.00  0.00    -0.050 Br
ATOM     14  C   LIG    1       -7.393  -1.492   3.541  0.00  0.00    +0.040 A 
ENDBRANCH   7   8
ENDBRANCH   2   7
ENDBRANCH   1   4
BRANCH   1  15
ATOM     15  N   LIG    1       -1.376  -0.512   0.012  0.00  0.00    -0.520 NA
ATOM     16  C   LIG    1       -1.397  -1.978  -0.090  0.00  0.00    +0.190 C 
BRANCH  15  17
ATOM     17  C   LIG    1        0.002  -0.004   0.002  0.00  0.00    +0.170 C 
ATOM     18  C   LIG    1       -0.019   1.526   0.010  0.00  0.00    +0.050 C 
BRANCH  17  19
ATOM     19  C   LIG    1        0.707  -0.490  -1.238  0.00  0.00    -0.030 A 
ATOM     20  C   LIG    1        0.034  -0.532  -2.444  0.00  0.00    +0.030 A 
ATOM     21  C   LIG    1        0.682  -0.974  -3.583  0.00  0.00    +0.110 A 
ATOM     22  C   LIG    1        2.001  -1.382  -3.512  0.00  0.00    -0.660 A 
ATOM     23  C   LIG    1        2.673  -1.345  -2.305  0.00  0.00    +0.120 A 
ATOM     24  C   LIG    1        2.026  -0.899  -1.167  0.00  0.00    -0.010 A 
BRANCH  22  25
ATOM     25  S   LIG    1        2.826  -1.951  -4.962  0.00  0.00    +2.500 S 
ATOM     26  O   LIG    1        4.200  -1.691  -4.709  0.00  0.00    -0.940 OA
ATOM     27  O   LIG    1        2.143  -1.308  -6.029  0.00  0.00    -0.940 OA
ATOM     28  C   LIG    1        2.511  -3.737  -4.990  0.00  0.00    -0.260 C 
ENDBRANCH  22  25
ENDBRANCH  17  19
ENDBRANCH  15  17
ENDBRANCH   1  15
TORSDOF 7
