REMARK  Name = ZINCpe00000MJJwD.0
REMARK                            x       y       z     vdW  Elec       q    Type
REMARK                         _______ _______ _______ _____ _____    ______ ____
ROOT
ATOM      1  N   LIG    1        0.132   0.136  -0.424  0.00  0.00    -0.500 NA
ENDROOT
BRANCH   1   2
ATOM      2  C   LIG    1        1.171  -0.414   0.456  0.00  0.00    +0.210 C 
ATOM      3  C   LIG    1        2.576  -0.049  -0.088  0.00  0.00    -0.300 C 
ATOM      4  S   LIG    1        3.650  -0.305   1.375  0.00  0.00    +2.390 S 
ATOM      5  C   LIG    1        2.347  -0.110   2.645  0.00  0.00    -0.330 C 
ATOM      6  O   LIG    1        4.572   0.771   1.477  0.00  0.00    -0.920 OA
ATOM      7  O   LIG    1        4.120  -1.646   1.385  0.00  0.00    -0.930 OA
ATOM      8  C   LIG    1        1.063   0.217   1.856  0.00  0.00    +0.170 C 
BRANCH   8   9
ATOM      9  O   LIG    1        0.921   1.633   1.735  0.00  0.00    -0.520 OA
ATOM     10  H   LIG    1        0.919   2.102   2.581  0.00  0.00    +0.370 HD
ENDBRANCH   8   9
ENDBRANCH   1   2
BRANCH   1  11
ATOM     11  C   LIG    1        0.004   1.589  -0.245  0.00  0.00    +0.340 C 
BRANCH  11  13
ATOM     12  C   LIG    1        1.854   2.558  -1.722  0.00  0.00    -0.230 A 
ATOM     13  C   LIG    1        1.337   2.245  -0.498  0.00  0.00    +0.120 A 
ATOM     14  O   LIG    1        2.217   2.614   0.437  0.00  0.00    -0.150 OA
ATOM     15  C   LIG    1        3.304   3.170  -0.120  0.00  0.00    +0.170 A 
ATOM     16  C   LIG    1        3.160   3.177  -1.454  0.00  0.00    -0.020 A 
BRANCH  12  17
ATOM     17  C   LIG    1        1.232   2.325  -3.037  0.00  0.00    +0.540 C 
ATOM     18  O   LIG    1        0.138   1.800  -3.107  0.00  0.00    -0.490 OA
BRANCH  17  20
ATOM     19  C   LIG    1        1.203   2.434  -5.422  0.00  0.00    +0.260 C 
ATOM     20  O   LIG    1        1.876   2.694  -4.162  0.00  0.00    -0.360 OA
ENDBRANCH  17  20
ENDBRANCH  12  17
ENDBRANCH  11  13
ENDBRANCH   1  11
BRANCH   1  21
ATOM     21  C   LIG    1       -1.156  -0.536  -0.203  0.00  0.00    +0.310 C 
BRANCH  21  22
ATOM     22  C   LIG    1       -1.094  -1.935  -0.761  0.00  0.00    -0.000 A 
ATOM     23  C   LIG    1       -0.814  -3.049  -0.061  0.00  0.00    -0.060 A 
ATOM     24  C   LIG    1       -0.866  -4.129  -0.972  0.00  0.00    -0.070 A 
ATOM     25  C   LIG    1       -1.166  -3.609  -2.176  0.00  0.00    +0.170 A 
ATOM     26  O   LIG    1       -1.303  -2.280  -2.042  0.00  0.00    -0.160 OA
ENDBRANCH  21  22
ENDBRANCH   1  21
TORSDOF 8
