REMARK  Name = ZINCvU0000000DgC.0
REMARK                            x       y       z     vdW  Elec       q    Type
REMARK                         _______ _______ _______ _____ _____    ______ ____
ROOT
ATOM      1  C   LIG    1        0.739   3.570   1.145  0.00  0.00    +0.110 C 
ENDROOT
BRANCH   1   3
ATOM      2  N   LIG    1       -0.698   1.558   1.213  0.00  0.00    -0.560 N 
ATOM      3  C   LIG    1       -0.353   2.738   1.767  0.00  0.00    +0.540 C 
ATOM      4  O   LIG    1       -0.921   3.129   2.764  0.00  0.00    -0.510 OA
BRANCH   2   5
ATOM      5  C   LIG    1       -1.710   0.787   1.789  0.00  0.00    +0.150 A 
ATOM      6  C   LIG    1       -1.406  -0.151   2.752  0.00  0.00    +0.030 A 
ATOM      7  C   LIG    1       -2.407  -0.925   3.332  0.00  0.00    +0.020 A 
ATOM      8  C   LIG    1       -3.710  -0.778   2.967  0.00  0.00    +0.030 A 
ATOM      9  C   LIG    1       -4.062   0.167   1.988  0.00  0.00    -0.050 A 
ATOM     10  C   LIG    1       -5.399   0.340   1.591  0.00  0.00    +0.030 A 
ATOM     11  C   LIG    1       -5.705   1.265   0.640  0.00  0.00    +0.020 A 
ATOM     12  C   LIG    1       -4.711   2.045   0.052  0.00  0.00    +0.010 A 
ATOM     13  C   LIG    1       -3.405   1.904   0.413  0.00  0.00    +0.020 A 
ATOM     14  C   LIG    1       -3.053   0.965   1.394  0.00  0.00    -0.040 A 
ENDBRANCH   2   5
BRANCH   2  16
ATOM     15  C   LIG    1       -0.753   1.593  -1.232  0.00  0.00    +0.030 C 
ATOM     16  C   LIG    1       -0.013   1.086   0.008  0.00  0.00    +0.280 C 
ENDBRANCH   2  16
ENDBRANCH   1   3
BRANCH   1  17
ATOM     17  S   LIG    1        0.967   5.084   2.112  0.00  0.00    +0.090 S 
BRANCH  17  18
ATOM     18  C   LIG    1        2.261   5.844   1.189  0.00  0.00    +0.150 A 
ATOM     19  N   LIG    1        2.841   5.362   0.114  0.00  0.00    -0.290 NA
ATOM     20  N   LIG    1        3.741   6.179  -0.302  0.00  0.00    -0.280 NA
ATOM     21  C   LIG    1        3.799   7.220   0.480  0.00  0.00    +0.230 A 
ATOM     22  N   LIG    1        2.858   7.045   1.460  0.00  0.00    -0.410 N 
BRANCH  22  23
ATOM     23  C   LIG    1        2.567   7.915   2.521  0.00  0.00    +0.100 A 
ATOM     24  C   LIG    1        2.047   9.176   2.264  0.00  0.00    +0.030 A 
ATOM     25  C   LIG    1        1.757  10.029   3.311  0.00  0.00    +0.040 A 
ATOM     26  C   LIG    1        1.994   9.631   4.614  0.00  0.00    +0.030 A 
ATOM     27  C   LIG    1        2.517   8.378   4.873  0.00  0.00    +0.040 A 
ATOM     28  C   LIG    1        2.804   7.519   3.830  0.00  0.00    +0.030 A 
ENDBRANCH  22  23
BRANCH  21  29
ATOM     29  C   LIG    1        4.728   8.397   0.334  0.00  0.00    +0.040 C 
ATOM     30  C   LIG    1        5.561   8.485  -0.946  0.00  0.00    +0.080 C 
ATOM     31  C   LIG    1        6.232   8.120   0.380  0.00  0.00    +0.060 C 
ENDBRANCH  21  29
ENDBRANCH  17  18
ENDBRANCH   1  17
TORSDOF 7
