REMARK  Name = ZINCrD0000073nJY.0
REMARK                            x       y       z     vdW  Elec       q    Type
REMARK                         _______ _______ _______ _____ _____    ______ ____
ROOT
ATOM      1  N   LIG    1        0.141   5.860  -1.327  0.00  0.00    -0.570 N 
ATOM      2  C   LIG    1       -0.844   6.108  -2.212  0.00  0.00    +0.530 C 
ATOM      3  C   LIG    1       -0.152   6.602  -3.467  0.00  0.00    +0.220 C 
ATOM      4  N   LIG    1        1.276   6.572  -3.110  0.00  0.00    -0.560 N 
ATOM      5  C   LIG    1       -0.595   8.028  -3.800  0.00  0.00    +0.090 C 
ATOM      6  O   LIG    1       -2.036   5.966  -2.041  0.00  0.00    -0.450 OA
ATOM      7  C   LIG    1        1.346   6.130  -1.841  0.00  0.00    +0.700 C 
ATOM      8  O   LIG    1        2.388   5.990  -1.231  0.00  0.00    -0.500 OA
ENDROOT
BRANCH   4   9
ATOM      9  C   LIG    1        2.352   6.938  -3.929  0.00  0.00    +0.180 A 
ATOM     10  C   LIG    1        2.120   7.378  -5.225  0.00  0.00    +0.010 A 
ATOM     11  C   LIG    1        3.182   7.744  -6.029  0.00  0.00    +0.020 A 
ATOM     12  C   LIG    1        4.477   7.661  -5.548  0.00  0.00    +0.070 A 
ATOM     13  C   LIG    1        4.711   7.217  -4.257  0.00  0.00    +0.020 A 
ATOM     14  F   LIG    1        5.515   8.013  -6.338  0.00  0.00    -0.140 F 
ATOM     15  C   LIG    1        3.652   6.855  -3.447  0.00  0.00    +0.040 A 
ENDBRANCH   4   9
BRANCH   1  16
ATOM     16  C   LIG    1       -0.081   5.361   0.033  0.00  0.00    +0.390 C 
BRANCH  16  22
ATOM     17  C   LIG    1        1.147   3.173   0.008  0.00  0.00    +0.180 A 
ATOM     18  C   LIG    1        1.169   1.783   0.001  0.00  0.00    -0.090 A 
ATOM     19  C   LIG    1       -0.013   1.076   0.008  0.00  0.00    +0.120 A 
ATOM     20  C   LIG    1       -1.233   1.762   0.018  0.00  0.00    -0.220 A 
ATOM     21  C   LIG    1       -1.244   3.162   0.032  0.00  0.00    +0.140 A 
ATOM     22  C   LIG    1       -0.066   3.854   0.024  0.00  0.00    -0.170 A 
BRANCH  20  23
ATOM     23  C   LIG    1       -2.498   1.016   0.019  0.00  0.00    +0.400 C 
ATOM     24  O   LIG    1       -3.554   1.612   0.027  0.00  0.00    -0.460 OA
ATOM     25  C   LIG    1       -2.484  -0.491   0.010  0.00  0.00    +0.070 C 
ENDBRANCH  20  23
BRANCH  17  27
ATOM     26  C   LIG    1        3.521   3.106  -0.015  0.00  0.00    +0.260 C 
ATOM     27  O   LIG    1        2.312   3.868   0.001  0.00  0.00    -0.280 OA
ENDBRANCH  17  27
ENDBRANCH  16  22
ENDBRANCH   1  16
TORSDOF 5
