REMARK  Name = ZINCqH00000363qN.0
REMARK                            x       y       z     vdW  Elec       q    Type
REMARK                         _______ _______ _______ _____ _____    ______ ____
ROOT
ATOM      1  C   LIG    1        1.276  -0.460  -0.579  0.00  0.00    +0.290 C 
ATOM      2  C   LIG    1        2.120   0.798  -0.875  0.00  0.00    +0.050 C 
ATOM      3  C   LIG    1        1.531   1.850   0.101  0.00  0.00    +0.040 C 
ATOM      4  C   LIG    1        0.030   1.466   0.104  0.00  0.00    +0.250 C 
ATOM      5  N   LIG    1        0.017  -0.007   0.032  0.00  0.00    -0.620 N 
ATOM      6  C   LIG    1       -0.983  -0.805   0.455  0.00  0.00    +0.610 C 
ATOM      7  O   LIG    1       -0.911  -2.010   0.289  0.00  0.00    -0.520 OA
ENDROOT
BRANCH   1  12
ATOM      8  C   LIG    1       -0.455  -1.637  -3.725  0.00  0.00    +0.090 A 
ATOM      9  C   LIG    1        0.460  -2.555  -4.219  0.00  0.00    -0.040 A 
ATOM     10  C   LIG    1        1.637  -2.793  -3.535  0.00  0.00    -0.040 A 
ATOM     11  C   LIG    1        1.905  -2.110  -2.358  0.00  0.00    +0.100 A 
ATOM     12  C   LIG    1        0.987  -1.197  -1.861  0.00  0.00    -0.080 A 
ATOM     13  C   LIG    1       -0.190  -0.959  -2.545  0.00  0.00    +0.040 A 
BRANCH   8  15
ATOM     14  C   LIG    1       -1.821  -2.137  -5.607  0.00  0.00    +0.230 C 
ATOM     15  O   LIG    1       -1.613  -1.403  -4.399  0.00  0.00    -0.320 OA
ENDBRANCH   8  15
BRANCH  11  16
ATOM     16  O   LIG    1        3.066  -2.340  -1.689  0.00  0.00    -0.310 OA
ATOM     17  C   LIG    1        3.966  -3.293  -2.258  0.00  0.00    +0.230 C 
ENDBRANCH  11  16
ENDBRANCH   1  12
BRANCH   6  18
ATOM     18  C   LIG    1       -2.152  -0.226   1.112  0.00  0.00    -0.330 A 
ATOM     19  C   LIG    1       -3.164  -0.938   1.696  0.00  0.00    +0.130 A 
ATOM     20  C   LIG    1       -4.142  -0.147   2.243  0.00  0.00    -0.070 A 
ATOM     21  C   LIG    1       -3.935   1.188   2.110  0.00  0.00    -0.000 A 
ATOM     22  S   LIG    1       -2.474   1.493   1.283  0.00  0.00    +0.330 S 
BRANCH  21  23
ATOM     23  N   LIG    1       -4.792   2.172   2.587  0.00  0.00    -0.630 N 
ATOM     24  H   LIG    1       -5.606   1.922   3.053  0.00  0.00    +0.420 HD
ATOM     25  C   LIG    1       -4.494   3.473   2.402  0.00  0.00    +0.500 C 
ATOM     26  O   LIG    1       -3.478   3.786   1.820  0.00  0.00    -0.510 OA
ATOM     27  C   LIG    1       -5.425   4.540   2.920  0.00  0.00    +0.120 C 
ENDBRANCH  21  23
ENDBRANCH   6  18
TORSDOF 5
