REMARK  Name = ZINCqH0000036sqD.0
REMARK                            x       y       z     vdW  Elec       q    Type
REMARK                         _______ _______ _______ _____ _____    ______ ____
ROOT
ATOM      1  C   LIG    1       -0.771   0.205   2.993  0.00  0.00    +0.500 C 
ATOM      2  N   LIG    1       -1.303  -0.510   4.004  0.00  0.00    -0.670 N 
ATOM      3  H   LIG    1       -2.264  -0.627   4.062  0.00  0.00    +0.420 HD
ATOM      4  O   LIG    1        0.434   0.283   2.873  0.00  0.00    -0.490 OA
ENDROOT
BRANCH   2   5
ATOM      5  C   LIG    1       -0.468  -1.085   4.969  0.00  0.00    +0.180 A 
ATOM      6  C   LIG    1       -0.806  -2.302   5.546  0.00  0.00    -0.010 A 
ATOM      7  C   LIG    1        0.022  -2.868   6.495  0.00  0.00    +0.090 A 
ATOM      8  C   LIG    1        1.181  -2.220   6.879  0.00  0.00    -0.200 A 
ATOM      9  C   LIG    1        1.518  -1.005   6.310  0.00  0.00    +0.090 A 
ATOM     10  C   LIG    1        0.697  -0.436   5.357  0.00  0.00    +0.030 A 
BRANCH   8  11
ATOM     11  C   LIG    1        2.079  -2.838   7.919  0.00  0.00    +0.510 C 
ATOM     12  F   LIG    1        3.404  -2.456   7.678  0.00  0.00    -0.180 F 
ATOM     13  F   LIG    1        1.977  -4.232   7.854  0.00  0.00    -0.180 F 
ATOM     14  F   LIG    1        1.692  -2.400   9.190  0.00  0.00    -0.180 F 
ENDBRANCH   8  11
ENDBRANCH   2   5
BRANCH   1  15
ATOM     15  C   LIG    1       -1.673   0.909   2.012  0.00  0.00    +0.350 C 
BRANCH  15  16
ATOM     16  N   LIG    1       -0.859   1.611   1.017  0.00  0.00    -0.930 N 
BRANCH  16  17
ATOM     17  C   LIG    1       -0.376   2.894   1.289  0.00  0.00    +0.140 A 
ATOM     18  C   LIG    1       -1.264   3.932   1.541  0.00  0.00    +0.010 A 
ATOM     19  C   LIG    1       -0.784   5.198   1.815  0.00  0.00    +0.040 A 
ATOM     20  C   LIG    1        0.578   5.436   1.826  0.00  0.00    +0.040 A 
ATOM     21  C   LIG    1        1.465   4.405   1.570  0.00  0.00    -0.030 A 
ATOM     22 CL   LIG    1        3.175   4.708   1.587  0.00  0.00    -0.060 Cl
ATOM     23  C   LIG    1        0.992   3.135   1.301  0.00  0.00    +0.070 A 
ENDBRANCH  16  17
BRANCH  16  25
ATOM     24  C   LIG    1       -1.939   1.261  -1.481  0.00  0.00    -0.280 C 
ATOM     25  S   LIG    1       -0.510   0.885  -0.430  0.00  0.00    +2.600 S 
ATOM     26  O   LIG    1        0.645   1.569  -0.896  0.00  0.00    -0.930 OA
ATOM     27  O   LIG    1       -0.467  -0.502  -0.124  0.00  0.00    -0.940 OA
ENDBRANCH  16  25
ENDBRANCH  15  16
ENDBRANCH   1  15
TORSDOF 6
