REMARK  Name = ZINCvU00000009vV.0
REMARK                            x       y       z     vdW  Elec       q    Type
REMARK                         _______ _______ _______ _____ _____    ______ ____
ROOT
ATOM      1  C   LIG    1        6.244  -0.640  -0.214  0.00  0.00    +0.060 C 
ENDROOT
BRANCH   1   2
ATOM      2  C   LIG    1        6.684   0.192  -1.391  0.00  0.00    -0.090 A 
ATOM      3  C   LIG    1        6.674  -0.350  -2.663  0.00  0.00    +0.030 A 
ATOM      4  C   LIG    1        7.074   0.414  -3.743  0.00  0.00    +0.000 A 
ATOM      5  C   LIG    1        7.491   1.718  -3.551  0.00  0.00    +0.010 A 
ATOM      6  C   LIG    1        7.506   2.258  -2.278  0.00  0.00    -0.010 A 
ATOM      7  C   LIG    1        7.102   1.495  -1.198  0.00  0.00    +0.060 A 
ENDBRANCH   1   2
BRANCH   1  10
ATOM      8  N   LIG    1        8.299  -1.783   0.554  0.00  0.00    -0.660 N 
ATOM      9  H   LIG    1        8.614  -0.929   0.888  0.00  0.00    +0.420 HD
ATOM     10  C   LIG    1        7.124  -1.858  -0.103  0.00  0.00    +0.540 C 
ATOM     11  O   LIG    1        6.776  -2.906  -0.604  0.00  0.00    -0.490 OA
BRANCH   8  16
ATOM     12  C   LIG    1        9.200  -5.303   1.137  0.00  0.00    +0.150 A 
ATOM     13  C   LIG    1       10.585  -5.219   1.146  0.00  0.00    -0.090 A 
ATOM     14  C   LIG    1       11.206  -3.999   0.960  0.00  0.00    +0.070 A 
ATOM     15  C   LIG    1       10.451  -2.860   0.757  0.00  0.00    -0.050 A 
ATOM     16  C   LIG    1        9.064  -2.937   0.753  0.00  0.00    +0.180 A 
ATOM     17  C   LIG    1        8.438  -4.162   0.940  0.00  0.00    -0.020 A 
BRANCH  12  19
ATOM     18  C   LIG    1        9.437  -7.638   1.518  0.00  0.00    +0.250 C 
ATOM     19  O   LIG    1        8.591  -6.504   1.321  0.00  0.00    -0.310 OA
ENDBRANCH  12  19
ENDBRANCH   8  16
ENDBRANCH   1  10
BRANCH   1  20
ATOM     20  S   LIG    1        4.525  -1.157  -0.449  0.00  0.00    +0.070 S 
BRANCH  20  21
ATOM     21  C   LIG    1        3.724   0.411  -0.395  0.00  0.00    +0.200 A 
ATOM     22  C   LIG    1        2.316   0.509  -0.540  0.00  0.00    -0.140 A 
ATOM     23  C   LIG    1        1.743   1.776  -0.488  0.00  0.00    +0.100 A 
ATOM     24  S   LIG    1        0.006   1.645  -0.690  0.00  0.00    +0.200 S 
ATOM     25  C   LIG    1        0.079  -0.110  -0.842  0.00  0.00    -0.190 A 
ATOM     26  C   LIG    1       -0.885  -1.274  -1.054  0.00  0.00    +0.130 C 
ATOM     27  C   LIG    1        0.005  -2.445  -1.516  0.00  0.00    +0.050 C 
ATOM     28  C   LIG    1        1.359  -2.074  -0.879  0.00  0.00    +0.110 C 
ATOM     29  N   LIG    1        2.535   2.842  -0.303  0.00  0.00    -0.490 NA
ATOM     30  C   LIG    1        3.834   2.703  -0.174  0.00  0.00    +0.530 A 
ATOM     31  C   LIG    1        1.326  -0.551  -0.745  0.00  0.00    -0.090 A 
ATOM     32  N   LIG    1        4.425   1.523  -0.217  0.00  0.00    -0.520 NA
ENDBRANCH  20  21
ENDBRANCH   1  20
TORSDOF 6
