REMARK  Name = ZINCnE000004Rfaq.0
REMARK                            x       y       z     vdW  Elec       q    Type
REMARK                         _______ _______ _______ _____ _____    ______ ____
ROOT
ATOM      1  O   LIG    1       -2.291   5.555   0.054  0.00  0.00    -0.530 OA
ATOM      2  C   LIG    1       -1.249   6.175   0.047  0.00  0.00    +0.530 C 
ATOM      3  N   LIG    1       -0.073   5.517   0.032  0.00  0.00    -0.720 N 
ATOM      4  H   LIG    1        0.760   6.014   0.027  0.00  0.00    +0.390 HD
ENDROOT
BRANCH   3   5
ATOM      5  C   LIG    1       -0.053   4.053   0.024  0.00  0.00    +0.180 C 
ATOM      6  C   LIG    1        1.396   3.562   0.008  0.00  0.00    +0.000 C 
ATOM      7  C   LIG    1        1.417   2.032  -0.001  0.00  0.00    +0.050 C 
ATOM      8  C   LIG    1       -0.018   1.503   0.010  0.00  0.00    -0.130 C 
ATOM      9  C   LIG    1       -0.735   1.996   1.269  0.00  0.00    +0.040 C 
ATOM     10  C   LIG    1       -0.758   2.010  -1.229  0.00  0.00    +0.030 C 
ATOM     11  C   LIG    1       -0.755   3.526   1.278  0.00  0.00    +0.010 C 
ATOM     12  C   LIG    1       -0.779   3.539  -1.221  0.00  0.00    +0.010 C 
BRANCH   8  13
ATOM     13  C   LIG    1        0.002  -0.004   0.002  0.00  0.00    +0.500 C 
ATOM     14  O   LIG    1        0.920  -0.598  -0.538  0.00  0.00    -0.700 OA
ATOM     15  O   LIG    1       -0.899  -0.629   0.535  0.00  0.00    -0.700 OA
ENDBRANCH   8  13
ENDBRANCH   3   5
BRANCH   2  16
ATOM     16  C   LIG    1       -1.269   7.682   0.055  0.00  0.00    -0.040 C 
ATOM     17  C   LIG    1       -1.081   8.293   1.454  0.00  0.00    +0.040 C 
ATOM     18  C   LIG    1       -2.609   8.218   1.607  0.00  0.00    -0.010 C 
ATOM     19  C   LIG    1       -2.687   8.279   0.072  0.00  0.00    +0.050 C 
BRANCH  18  20
ATOM     20  C   LIG    1       -3.216   9.440   2.300  0.00  0.00    -0.010 C 
ATOM     21  C   LIG    1       -3.142   9.270   3.831  0.00  0.00    +0.010 C 
ATOM     22  C   LIG    1       -4.464   9.893   4.346  0.00  0.00    -0.010 C 
ATOM     23  C   LIG    1       -5.489   9.461   3.268  0.00  0.00    +0.000 C 
ATOM     24  C   LIG    1       -4.708   9.562   1.942  0.00  0.00    +0.010 C 
ENDBRANCH  18  20
ENDBRANCH   2  16
TORSDOF 4
