REMARK  Name = ZINCrH000004oFM1.0
REMARK                            x       y       z     vdW  Elec       q    Type
REMARK                         _______ _______ _______ _____ _____    ______ ____
ROOT
ATOM      1  C   LIG    1        0.845   0.518  -0.066  0.00  0.00    +0.520 C 
ATOM      2  F   LIG    1       -0.145  -0.253  -0.684  0.00  0.00    -0.150 F 
ATOM      3  F   LIG    1        0.996   0.105   1.263  0.00  0.00    -0.140 F 
ENDROOT
BRANCH   1   8
ATOM      4  C   LIG    1       -4.163   3.172   0.105  0.00  0.00    +0.070 C 
ATOM      5  C   LIG    1       -2.820   2.779  -0.515  0.00  0.00    +0.010 C 
ATOM      6  C   LIG    1       -2.129   1.597   0.178  0.00  0.00    +0.270 C 
ATOM      7  N   LIG    1       -0.855   2.313   0.015  0.00  0.00    -0.630 N 
ATOM      8  C   LIG    1        0.444   1.970  -0.098  0.00  0.00    +0.520 C 
ATOM      9  O   LIG    1        1.289   2.830  -0.230  0.00  0.00    -0.440 OA
ATOM     10  C   LIG    1       -1.621   3.568   0.036  0.00  0.00    +0.290 C 
BRANCH  10  11
ATOM     11  C   LIG    1       -1.845   4.111   1.423  0.00  0.00    -0.090 A 
ATOM     12  C   LIG    1       -2.142   5.449   1.602  0.00  0.00    +0.030 A 
ATOM     13  C   LIG    1       -2.353   5.947   2.875  0.00  0.00    +0.020 A 
ATOM     14  C   LIG    1       -2.257   5.107   3.969  0.00  0.00    +0.010 A 
ATOM     15  C   LIG    1       -1.955   3.771   3.791  0.00  0.00    +0.000 A 
ATOM     16  C   LIG    1       -1.749   3.272   2.518  0.00  0.00    +0.010 A 
ENDBRANCH  10  11
ENDBRANCH   1   8
BRANCH   1  17
ATOM     17  N   LIG    1        2.114   0.346  -0.777  0.00  0.00    -0.350 N 
ATOM     18  C   LIG    1        2.772  -0.823  -0.948  0.00  0.00    +0.180 A 
ATOM     19  C   LIG    1        3.896  -0.522  -1.661  0.00  0.00    +0.040 A 
ATOM     20  N   LIG    1        3.857   0.804  -1.882  0.00  0.00    -0.230 NA
ATOM     21  N   LIG    1        2.787   1.281  -1.350  0.00  0.00    -0.010 NA
BRANCH  19  22
ATOM     22  C   LIG    1        4.951  -1.469  -2.104  0.00  0.00    -0.020 A 
ATOM     23  C   LIG    1        4.852  -2.822  -1.790  0.00  0.00    +0.020 A 
ATOM     24  C   LIG    1        5.832  -3.699  -2.209  0.00  0.00    +0.010 A 
ATOM     25  C   LIG    1        6.917  -3.233  -2.930  0.00  0.00    +0.020 A 
ATOM     26  C   LIG    1        7.023  -1.890  -3.240  0.00  0.00    +0.010 A 
ATOM     27  C   LIG    1        6.045  -1.005  -2.830  0.00  0.00    +0.040 A 
ENDBRANCH  19  22
ENDBRANCH   1  17
TORSDOF 4
