REMARK  Name = ZINCpk000000p1n9.0
REMARK                            x       y       z     vdW  Elec       q    Type
REMARK                         _______ _______ _______ _____ _____    ______ ____
ROOT
ATOM      1  C   LIG    1       -0.759   1.596  -1.228  0.00  0.00    +0.020 C 
ATOM      2  C   LIG    1       -0.898   3.118  -1.144  0.00  0.00    +0.050 C 
ATOM      3  C   LIG    1       -1.711   3.490   0.099  0.00  0.00    +0.030 C 
ATOM      4  C   LIG    1       -0.975   3.001   1.350  0.00  0.00    +0.270 C 
ATOM      5  N   LIG    1       -0.706   1.562   1.213  0.00  0.00    -0.620 N 
ATOM      6  C   LIG    1       -1.091   0.697   2.171  0.00  0.00    +0.520 C 
ATOM      7  O   LIG    1       -0.866  -0.488   2.044  0.00  0.00    -0.510 OA
ATOM      8  C   LIG    1       -0.013   1.086   0.008  0.00  0.00    +0.300 C 
ENDROOT
BRANCH   1   9
ATOM      9  C   LIG    1        0.013   1.229  -2.469  0.00  0.00    +0.470 C 
ATOM     10  O   LIG    1        0.410   2.095  -3.212  0.00  0.00    -0.500 OA
BRANCH   9  11
ATOM     11  O   LIG    1        0.260  -0.060  -2.749  0.00  0.00    -0.350 OA
BRANCH  11  13
ATOM     12  C   LIG    1        1.191  -1.852  -4.111  0.00  0.00    +0.070 C 
ATOM     13  C   LIG    1        1.009  -0.340  -3.961  0.00  0.00    +0.200 C 
ENDBRANCH  11  13
ENDBRANCH   9  11
ENDBRANCH   1   9
BRANCH   6  14
ATOM     14  C   LIG    1       -1.801   1.201   3.401  0.00  0.00    +0.210 C 
BRANCH  14  15
ATOM     15  N   LIG    1       -2.112   0.070   4.285  0.00  0.00    -0.480 N 
ATOM     16  C   LIG    1       -3.090  -0.832   3.662  0.00  0.00    +0.210 C 
BRANCH  15  17
ATOM     17  C   LIG    1       -2.564   0.517   5.529  0.00  0.00    +0.090 A 
ATOM     18  C   LIG    1       -3.707   1.301   5.613  0.00  0.00    -0.030 A 
ATOM     19  C   LIG    1       -4.152   1.741   6.845  0.00  0.00    +0.010 A 
ATOM     20  C   LIG    1       -3.461   1.401   7.993  0.00  0.00    +0.000 A 
ATOM     21  C   LIG    1       -2.322   0.620   7.913  0.00  0.00    +0.020 A 
ATOM     22  C   LIG    1       -1.875   0.172   6.685  0.00  0.00    -0.060 A 
BRANCH  22  23
ATOM     23  C   LIG    1       -0.638  -0.684   6.599  0.00  0.00    +0.090 C 
BRANCH  23  24
ATOM     24  C   LIG    1        0.577   0.202   6.315  0.00  0.00    +0.180 C 
BRANCH  24  25
ATOM     25  O   LIG    1        1.750  -0.610   6.234  0.00  0.00    -0.570 OA
ATOM     26  H   LIG    1        2.560  -0.114   6.055  0.00  0.00    +0.380 HD
ENDBRANCH  24  25
ENDBRANCH  23  24
ENDBRANCH  22  23
ENDBRANCH  15  17
ENDBRANCH  14  15
ENDBRANCH   6  14
TORSDOF 9
