REMARK  Name = ZINCpk00000ebcIa.0
REMARK                            x       y       z     vdW  Elec       q    Type
REMARK                         _______ _______ _______ _____ _____    ______ ____
ROOT
ATOM      1  C   LIG    1       -1.044  -2.162   0.001  0.00  0.00    +0.170 C 
ATOM      2  C   LIG    1       -1.758  -2.692  -1.244  0.00  0.00    +0.100 C 
ENDROOT
BRANCH   1   3
ATOM      3  N   LIG    1       -1.100  -0.698   0.009  0.00  0.00    -0.490 NA
ATOM      4  C   LIG    1        0.002  -0.004   0.002  0.00  0.00    +0.400 C 
ATOM      5  N   LIG    1        1.230  -0.614  -0.013  0.00  0.00    -1.050 N 
ATOM      6  H   LIG    1        1.412  -1.567  -0.020  0.00  0.00    +0.450 HD
ATOM      7  S   LIG    1        2.350   0.626  -0.017  0.00  0.00    +2.670 S 
ATOM      8  C   LIG    1        1.265   2.026   0.001  0.00  0.00    -0.630 A 
ATOM      9  C   LIG    1        1.465   3.379   0.006  0.00  0.00    +0.160 A 
ATOM     10  C   LIG    1        0.375   4.236   0.021  0.00  0.00    +0.050 A 
ATOM     11  C   LIG    1       -0.905   3.712   0.031  0.00  0.00    +0.080 A 
ATOM     12  C   LIG    1       -1.110   2.351   0.031  0.00  0.00    +0.100 A 
ATOM     13  O   LIG    1        3.006   0.606  -1.278  0.00  0.00    -0.930 OA
ATOM     14  O   LIG    1        3.027   0.595   1.232  0.00  0.00    -0.930 OA
ATOM     15  C   LIG    1       -0.018   1.468   0.010  0.00  0.00    -0.020 A 
ENDBRANCH   1   3
BRANCH   1  16
ATOM     16  C   LIG    1       -1.723  -2.697   1.235  0.00  0.00    +0.470 C 
ATOM     17  O   LIG    1       -2.204  -1.935   2.039  0.00  0.00    -0.480 OA
BRANCH  16  18
ATOM     18  O   LIG    1       -1.793  -4.022   1.441  0.00  0.00    -0.350 OA
BRANCH  18  19
ATOM     19  C   LIG    1       -2.461  -4.466   2.651  0.00  0.00    +0.330 C 
BRANCH  19  26
ATOM     20  C   LIG    1       -4.678  -6.525   1.480  0.00  0.00    +0.160 C 
ATOM     21  C   LIG    1       -3.404  -6.875   2.204  0.00  0.00    +0.040 A 
ATOM     22  N   LIG    1       -2.970  -8.070   2.484  0.00  0.00    -0.360 NA
ATOM     23  O   LIG    1       -1.917  -8.033   3.078  0.00  0.00    +0.100 OA
ATOM     24  C   LIG    1       -1.503  -6.773   3.269  0.00  0.00    +0.010 A 
ATOM     25  C   LIG    1       -0.242  -6.334   3.968  0.00  0.00    +0.190 C 
ATOM     26  C   LIG    1       -2.442  -5.972   2.712  0.00  0.00    -0.220 A 
ENDBRANCH  19  26
ENDBRANCH  18  19
ENDBRANCH  16  18
ENDBRANCH   1  16
TORSDOF 5
