REMARK  Name = ZINCpk000000pSwj.0
REMARK                            x       y       z     vdW  Elec       q    Type
REMARK                         _______ _______ _______ _____ _____    ______ ____
ROOT
ATOM      1  C   LIG    1       -0.975   1.414  -3.637  0.00  0.00    -0.010 C 
ATOM      2  C   LIG    1       -0.176   2.248  -4.661  0.00  0.00    +0.270 C 
ATOM      3  N   LIG    1        1.244   1.988  -4.330  0.00  0.00    -0.630 N 
ATOM      4  C   LIG    1        1.278   1.964  -2.847  0.00  0.00    +0.270 C 
ATOM      5  C   LIG    1        2.273   1.812  -5.182  0.00  0.00    +0.540 C 
ATOM      6  O   LIG    1        3.388   1.605  -4.752  0.00  0.00    -0.510 OA
ATOM      7  C   LIG    1       -0.017   1.227  -2.442  0.00  0.00    +0.130 C 
ENDROOT
BRANCH   7   8
ATOM      8  N   LIG    1       -0.588   1.829  -1.230  0.00  0.00    -0.520 NA
ATOM      9  C   LIG    1       -1.528   0.907  -0.576  0.00  0.00    +0.150 C 
ATOM     10  C   LIG    1       -2.144   1.594   0.645  0.00  0.00    +0.220 C 
ATOM     11  O   LIG    1       -1.099   2.017   1.525  0.00  0.00    -0.390 OA
ATOM     12  C   LIG    1       -0.166   2.917   0.922  0.00  0.00    +0.220 C 
ATOM     13  C   LIG    1        0.470   2.242  -0.297  0.00  0.00    +0.150 C 
ENDBRANCH   7   8
BRANCH   1  15
ATOM     14  C   LIG    1       -3.198   2.278  -4.378  0.00  0.00    -0.010 C 
ATOM     15  C   LIG    1       -2.231   2.169  -3.198  0.00  0.00    +0.040 C 
ENDBRANCH   1  15
BRANCH   5  16
ATOM     16  C   LIG    1        2.038   1.871  -6.670  0.00  0.00    +0.170 C 
BRANCH  16  17
ATOM     17  C   LIG    1        3.340   1.644  -7.393  0.00  0.00    +0.070 A 
ATOM     18  C   LIG    1        3.566   0.697  -8.330  0.00  0.00    +0.090 A 
ATOM     19  N   LIG    1        4.867   0.831  -8.734  0.00  0.00    -0.360 N 
ATOM     20  C   LIG    1        5.625   0.154  -9.646  0.00  0.00    +0.210 A 
ATOM     21  C   LIG    1        6.915   0.492  -9.853  0.00  0.00    +0.010 A 
ATOM     22  C   LIG    1        7.495   1.548  -9.131  0.00  0.00    +0.040 A 
ATOM     23  C   LIG    1        6.751   2.231  -8.220  0.00  0.00    +0.070 A 
ATOM     24  C   LIG    1        5.406   1.866  -8.015  0.00  0.00    +0.220 A 
ATOM     25  N   LIG    1        4.464   2.341  -7.212  0.00  0.00    -0.460 NA
ENDBRANCH  16  17
ENDBRANCH   5  16
TORSDOF 4
