REMARK  Name = ZINCrH000004mDQr.0
REMARK                            x       y       z     vdW  Elec       q    Type
REMARK                         _______ _______ _______ _____ _____    ______ ____
ROOT
ATOM      1  N   LIG    1        2.899   0.812  -1.406  0.00  0.00    -0.530 NA
ATOM      2  C   LIG    1        3.201   2.081  -2.085  0.00  0.00    +0.150 C 
ATOM      3  C   LIG    1        3.569   1.798  -3.544  0.00  0.00    +0.220 C 
ATOM      4  O   LIG    1        4.670   0.886  -3.584  0.00  0.00    -0.370 OA
ATOM      5  C   LIG    1        4.410  -0.360  -2.933  0.00  0.00    +0.220 C 
ATOM      6  C   LIG    1        4.051  -0.099  -1.468  0.00  0.00    +0.170 C 
ENDROOT
BRANCH   5   7
ATOM      7  C   LIG    1        5.638  -1.231  -3.003  0.00  0.00    -0.050 A 
ATOM      8  C   LIG    1        6.891  -0.673  -2.826  0.00  0.00    +0.020 A 
ATOM      9  C   LIG    1        8.020  -1.469  -2.889  0.00  0.00    +0.050 A 
ATOM     10  C   LIG    1        7.898  -2.824  -3.127  0.00  0.00    -0.050 A 
ATOM     11  C   LIG    1        6.642  -3.387  -3.305  0.00  0.00    +0.100 A 
ATOM     12  C   LIG    1        5.511  -2.587  -3.236  0.00  0.00    +0.020 A 
BRANCH  11  13
ATOM     13  O   LIG    1        6.520  -4.720  -3.539  0.00  0.00    -0.320 OA
BRANCH  13  14
ATOM     14  C   LIG    1        7.728  -5.483  -3.589  0.00  0.00    +0.590 C 
ATOM     15  F   LIG    1        8.398  -5.376  -2.366  0.00  0.00    -0.200 F 
ATOM     16  F   LIG    1        8.545  -4.994  -4.614  0.00  0.00    -0.200 F 
ENDBRANCH  13  14
ENDBRANCH  11  13
ENDBRANCH   5   7
BRANCH   1  17
ATOM     17  C   LIG    1        2.485   1.044  -0.016  0.00  0.00    +0.240 C 
BRANCH  17  21
ATOM     18  C   LIG    1       -1.239   3.161   0.031  0.00  0.00    +0.180 A 
ATOM     19  C   LIG    1       -0.040   3.855   0.023  0.00  0.00    -0.070 A 
ATOM     20  C   LIG    1        1.158   3.167   0.008  0.00  0.00    +0.090 A 
ATOM     21  C   LIG    1        1.171   1.782   0.000  0.00  0.00    -0.120 A 
ATOM     22  C   LIG    1       -0.013   1.076   0.008  0.00  0.00    +0.130 A 
ATOM     23  C   LIG    1       -1.231   1.759   0.017  0.00  0.00    -0.060 A 
BRANCH  18  25
ATOM     24  C   LIG    1       -2.347   5.262   0.052  0.00  0.00    +0.250 C 
ATOM     25  O   LIG    1       -2.417   3.835   0.046  0.00  0.00    -0.310 OA
ENDBRANCH  18  25
BRANCH  23  26
ATOM     26  C   LIG    1       -2.464   1.031   0.019  0.00  0.00    +0.260 C 
ATOM     27  N   LIG    1       -3.443   0.454   0.021  0.00  0.00    -0.410 NA
ENDBRANCH  23  26
ENDBRANCH  17  21
ENDBRANCH   1  17
TORSDOF 7
