REMARK  Name = ZINCrH000004nfif.0
REMARK                            x       y       z     vdW  Elec       q    Type
REMARK                         _______ _______ _______ _____ _____    ______ ____
ROOT
ATOM      1  C   LIG    1        3.167   3.179   0.096  0.00  0.00    +0.570 C 
ATOM      2  N   LIG    1        2.008   3.838  -0.102  0.00  0.00    -0.650 N 
ATOM      3  H   LIG    1        2.009   4.803  -0.200  0.00  0.00    +0.420 HD
ATOM      4  O   LIG    1        3.179   1.964   0.119  0.00  0.00    -0.500 OA
ENDROOT
BRANCH   1   9
ATOM      5  C   LIG    1        6.886   8.010   0.799  0.00  0.00    +0.130 A 
ATOM      6  C   LIG    1        5.680   7.393   0.621  0.00  0.00    +0.000 A 
ATOM      7  C   LIG    1        5.623   5.992   0.538  0.00  0.00    -0.080 A 
ATOM      8  C   LIG    1        4.402   5.323   0.351  0.00  0.00    +0.130 A 
ATOM      9  C   LIG    1        4.422   3.934   0.286  0.00  0.00    -0.180 A 
ATOM     10  C   LIG    1        5.648   3.255   0.396  0.00  0.00    +0.200 A 
ATOM     11  N   LIG    1        6.774   3.899   0.564  0.00  0.00    -0.470 NA
ATOM     12  C   LIG    1        5.665   1.750   0.317  0.00  0.00    +0.140 C 
ATOM     13  C   LIG    1        6.818   5.234   0.641  0.00  0.00    +0.130 A 
ATOM     14  C   LIG    1        8.040   5.904   0.823  0.00  0.00    +0.090 A 
ATOM     15  C   LIG    1        8.063   7.262   0.900  0.00  0.00    -0.020 A 
BRANCH   5  17
ATOM     16  C   LIG    1        8.232   9.952   1.065  0.00  0.00    +0.240 C 
ATOM     17  O   LIG    1        6.942   9.366   0.878  0.00  0.00    -0.310 OA
ENDBRANCH   5  17
ENDBRANCH   1   9
BRANCH   2  18
ATOM     18  C   LIG    1        0.802   3.128  -0.168  0.00  0.00    +0.100 A 
ATOM     19  C   LIG    1        0.682   1.884   0.435  0.00  0.00    +0.090 A 
ATOM     20  C   LIG    1       -0.533   1.218   0.343  0.00  0.00    -0.030 A 
ATOM     21  C   LIG    1       -1.576   1.805  -0.344  0.00  0.00    +0.260 A 
ATOM     22  N   LIG    1       -1.438   2.992  -0.905  0.00  0.00    -0.500 NA
ATOM     23  C   LIG    1       -0.300   3.663  -0.843  0.00  0.00    +0.270 A 
BRANCH  23  24
ATOM     24  N   LIG    1       -0.198   4.909  -1.453  0.00  0.00    -0.470 N 
ATOM     25  C   LIG    1        0.724   4.858  -2.617  0.00  0.00    +0.180 C 
ATOM     26  C   LIG    1        0.317   6.101  -3.447  0.00  0.00    +0.040 C 
ATOM     27  C   LIG    1       -1.219   6.141  -3.279  0.00  0.00    +0.020 C 
ATOM     28  C   LIG    1       -1.504   5.343  -1.993  0.00  0.00    +0.210 C 
ENDBRANCH  23  24
ENDBRANCH   2  18
TORSDOF 4
