REMARK  Name = ZINCrH000004vCa8.0
REMARK                            x       y       z     vdW  Elec       q    Type
REMARK                         _______ _______ _______ _____ _____    ______ ____
ROOT
ATOM      1  C   LIG    1       -1.014   3.979  -0.079  0.00  0.00    -0.090 A 
ATOM      2  C   LIG    1       -1.341   2.622  -0.090  0.00  0.00    -0.020 A 
ATOM      3  C   LIG    1       -2.661   2.231  -0.180  0.00  0.00    +0.050 A 
ATOM      4  C   LIG    1       -3.663   3.178  -0.269  0.00  0.00    -0.040 A 
ATOM      5  C   LIG    1       -3.348   4.532  -0.265  0.00  0.00    +0.210 A 
ATOM      6  C   LIG    1       -2.026   4.936  -0.170  0.00  0.00    +0.010 A 
ENDROOT
BRANCH   1   8
ATOM      7  O   LIG    1        0.673   5.576   0.171  0.00  0.00    -0.510 OA
ATOM      8  C   LIG    1        0.399   4.401   0.022  0.00  0.00    +0.570 C 
ATOM      9  N   LIG    1        1.383   3.483  -0.051  0.00  0.00    -0.550 N 
ATOM     10  C   LIG    1        1.177   2.034  -0.115  0.00  0.00    +0.290 C 
ATOM     11  C   LIG    1        2.588   1.429  -0.186  0.00  0.00    +0.090 C 
ATOM     12  C   LIG    1        3.516   2.622  -0.156  0.00  0.00    -0.140 A 
ATOM     13  C   LIG    1        4.895   2.699  -0.193  0.00  0.00    +0.050 A 
ATOM     14  C   LIG    1        5.523   3.930  -0.152  0.00  0.00    -0.010 A 
ATOM     15  C   LIG    1        4.768   5.085  -0.074  0.00  0.00    +0.040 A 
ATOM     16  C   LIG    1        3.391   5.014  -0.037  0.00  0.00    +0.010 A 
ATOM     17  C   LIG    1        2.750   3.775  -0.078  0.00  0.00    +0.140 A 
ENDBRANCH   1   8
BRANCH   5  18
ATOM     18  N   LIG    1       -4.365   5.487  -0.357  0.00  0.00    -0.750 N 
ATOM     19  H   LIG    1       -4.145   6.431  -0.354  0.00  0.00    +0.410 HD
BRANCH  18  20
ATOM     20  C   LIG    1       -5.763   5.060  -0.457  0.00  0.00    +0.440 C 
BRANCH  20  21
ATOM     21  C   LIG    1       -6.653   6.273  -0.543  0.00  0.00    +0.160 A 
ATOM     22  N   LIG    1       -7.030   6.889  -1.637  0.00  0.00    -0.450 NA
ATOM     23  C   LIG    1       -7.812   7.905  -1.230  0.00  0.00    +0.200 A 
ATOM     24  N   LIG    1       -7.864   7.860   0.068  0.00  0.00    -0.370 NA
ATOM     25  O   LIG    1       -7.205   6.930   0.482  0.00  0.00    +0.090 OA
BRANCH  23  26
ATOM     26  C   LIG    1       -8.498   8.913  -2.115  0.00  0.00    +0.050 C 
ATOM     27  C   LIG    1       -9.171  10.108  -1.437  0.00  0.00    +0.050 C 
ATOM     28  C   LIG    1      -10.024   8.993  -2.044  0.00  0.00    +0.060 C 
ENDBRANCH  23  26
ENDBRANCH  20  21
ENDBRANCH  18  20
ENDBRANCH   5  18
TORSDOF 5
