REMARK  Name = ZINCrD000000A7CP.0
REMARK                            x       y       z     vdW  Elec       q    Type
REMARK                         _______ _______ _______ _____ _____    ______ ____
ROOT
ATOM      1  C   LIG    1        0.693  -6.724   0.772  0.00  0.00    -0.020 C 
ATOM      2  C   LIG    1        1.575  -6.080  -0.301  0.00  0.00    +0.080 C 
ATOM      3  C   LIG    1        1.442  -4.558  -0.218  0.00  0.00    +0.200 C 
ATOM      4  N   LIG    1        0.039  -4.176  -0.419  0.00  0.00    -0.480 N 
ATOM      5  C   LIG    1       -0.821  -4.744   0.627  0.00  0.00    +0.190 C 
ATOM      6  C   LIG    1       -0.756  -6.272   0.569  0.00  0.00    +0.050 C 
ENDROOT
BRANCH   1   8
ATOM      7  O   LIG    1        1.320  -8.731  -0.301  0.00  0.00    -0.510 OA
ATOM      8  C   LIG    1        0.773  -8.225   0.656  0.00  0.00    +0.520 C 
ATOM      9  N   LIG    1        0.238  -9.004   1.616  0.00  0.00    -0.610 N 
ATOM     10  C   LIG    1       -0.524  -8.411   2.724  0.00  0.00    +0.260 C 
ATOM     11  C   LIG    1       -1.897  -9.095   2.795  0.00  0.00    +0.010 C 
ATOM     12  C   LIG    1       -1.702 -10.608   2.907  0.00  0.00    +0.010 C 
ATOM     13  C   LIG    1       -0.971 -11.124   1.665  0.00  0.00    +0.020 C 
ATOM     14  C   LIG    1        0.409 -10.463   1.579  0.00  0.00    +0.230 C 
BRANCH  14  15
ATOM     15  C   LIG    1        1.093 -10.865   0.270  0.00  0.00    +0.180 C 
BRANCH  15  16
ATOM     16  O   LIG    1        0.234 -10.558  -0.830  0.00  0.00    -0.550 OA
ATOM     17  H   LIG    1        0.604 -10.787  -1.694  0.00  0.00    +0.370 HD
ENDBRANCH  15  16
ENDBRANCH  14  15
ENDBRANCH   1   8
BRANCH   4  18
ATOM     18  C   LIG    1       -0.098  -2.794  -0.481  0.00  0.00    +0.340 A 
ATOM     19  N   LIG    1        0.370  -2.044   0.505  0.00  0.00    -0.490 NA
ATOM     20  C   LIG    1        0.261  -0.729   0.486  0.00  0.00    +0.350 A 
ATOM     21  C   LIG    1       -0.350  -0.084  -0.570  0.00  0.00    -0.230 A 
ATOM     22  C   LIG    1       -0.860  -0.834  -1.622  0.00  0.00    +0.150 A 
ATOM     23  C   LIG    1       -0.726  -2.210  -1.578  0.00  0.00    -0.070 A 
ATOM     24 CL   LIG    1       -1.339  -3.196  -2.869  0.00  0.00    -0.010 Cl
BRANCH  21  25
ATOM     25  C   LIG    1       -0.469   1.418  -0.579  0.00  0.00    +0.520 C 
ATOM     26  F   LIG    1       -1.820   1.779  -0.628  0.00  0.00    -0.170 F 
ATOM     27  F   LIG    1        0.193   1.932  -1.700  0.00  0.00    -0.170 F 
ATOM     28  F   LIG    1        0.111   1.938   0.584  0.00  0.00    -0.170 F 
ENDBRANCH  21  25
ENDBRANCH   4  18
TORSDOF 5
