REMARK  Name = ZINCrg00000SjPZW.0
REMARK                            x       y       z     vdW  Elec       q    Type
REMARK                         _______ _______ _______ _____ _____    ______ ____
ROOT
ATOM      1  C   LIG    1       -1.214   3.626   0.028  0.00  0.00    +0.220 C 
ATOM      2  C   LIG    1       -0.534   4.167  -1.248  0.00  0.00    +0.040 C 
ATOM      3  C   LIG    1       -1.414   5.390  -1.619  0.00  0.00    +0.040 C 
ATOM      4  C   LIG    1       -2.823   4.895  -1.207  0.00  0.00    +0.250 C 
ATOM      5  N   LIG    1       -2.604   4.107   0.019  0.00  0.00    -0.610 N 
ATOM      6  C   LIG    1       -3.524   3.866   0.974  0.00  0.00    +0.540 C 
ATOM      7  O   LIG    1       -3.232   3.200   1.944  0.00  0.00    -0.500 OA
ENDROOT
BRANCH   1   9
ATOM      8  O   LIG    1       -2.236   1.498   0.021  0.00  0.00    -0.520 OA
ATOM      9  C   LIG    1       -1.194   2.119   0.019  0.00  0.00    +0.510 C 
ATOM     10  N   LIG    1       -0.018   1.461   0.010  0.00  0.00    -0.700 N 
ATOM     11  H   LIG    1        0.816   1.957   0.005  0.00  0.00    +0.400 HD
BRANCH  10  12
ATOM     12  C   LIG    1        0.002  -0.004   0.002  0.00  0.00    +0.220 C 
ATOM     13  C   LIG    1        1.001  -0.702   0.927  0.00  0.00    +0.010 C 
ATOM     14  C   LIG    1        1.237  -0.691  -0.585  0.00  0.00    +0.010 C 
ENDBRANCH  10  12
ENDBRANCH   1   9
BRANCH   6  15
ATOM     15  C   LIG    1       -4.917   4.425   0.835  0.00  0.00    +0.210 C 
BRANCH  15  16
ATOM     16  N   LIG    1       -5.723   4.024   1.996  0.00  0.00    -0.520 NA
ATOM     17  C   LIG    1       -5.933   2.570   2.015  0.00  0.00    +0.200 C 
ATOM     18  C   LIG    1       -6.707   2.186   3.279  0.00  0.00    +0.180 C 
ATOM     19  N   LIG    1       -7.990   2.901   3.300  0.00  0.00    -0.540 NA
ATOM     20  C   LIG    1       -7.780   4.355   3.281  0.00  0.00    +0.180 C 
ATOM     21  C   LIG    1       -7.007   4.739   2.018  0.00  0.00    +0.180 C 
BRANCH  19  22
ATOM     22  C   LIG    1       -8.796   2.500   4.462  0.00  0.00    +0.210 C 
BRANCH  22  23
ATOM     23  C   LIG    1       -9.197   1.054   4.321  0.00  0.00    -0.080 A 
ATOM     24  C   LIG    1      -10.379   0.724   3.685  0.00  0.00    +0.020 A 
ATOM     25  C   LIG    1      -10.744  -0.603   3.551  0.00  0.00    +0.000 A 
ATOM     26  C   LIG    1       -9.933  -1.598   4.062  0.00  0.00    +0.000 A 
ATOM     27  C   LIG    1       -8.754  -1.267   4.703  0.00  0.00    +0.000 A 
ATOM     28  C   LIG    1       -8.386   0.059   4.832  0.00  0.00    +0.010 A 
ENDBRANCH  22  23
ENDBRANCH  19  22
ENDBRANCH  15  16
ENDBRANCH   6  15
TORSDOF 6
