REMARK  Name = ZINCrH000004qzjw.0
REMARK                            x       y       z     vdW  Elec       q    Type
REMARK                         _______ _______ _______ _____ _____    ______ ____
ROOT
ATOM      1  N   LIG    1       -0.547   3.344  -0.647  0.00  0.00    -0.660 N 
ATOM      2  H   LIG    1       -0.813   2.431  -0.456  0.00  0.00    +0.410 HD
ATOM      3  C   LIG    1       -1.441   4.345  -0.530  0.00  0.00    +0.520 C 
ATOM      4  O   LIG    1       -1.086   5.496  -0.673  0.00  0.00    -0.510 OA
ENDROOT
BRANCH   1  10
ATOM      5  C   LIG    1        1.506   2.662  -1.736  0.00  0.00    +0.110 A 
ATOM      6  C   LIG    1        2.808   2.942  -2.120  0.00  0.00    +0.030 A 
ATOM      7  C   LIG    1        3.367   4.172  -1.827  0.00  0.00    +0.010 A 
ATOM      8  C   LIG    1        2.635   5.122  -1.140  0.00  0.00    +0.040 A 
ATOM      9  C   LIG    1        1.337   4.851  -0.748  0.00  0.00    +0.040 A 
ATOM     10  C   LIG    1        0.767   3.621  -1.043  0.00  0.00    +0.160 A 
BRANCH   5  17
ATOM     11  C   LIG    1        2.902  -0.036  -1.315  0.00  0.00    +0.140 C 
ATOM     12  C   LIG    1        1.520   0.211  -1.865  0.00  0.00    +0.090 A 
ATOM     13  C   LIG    1        0.644  -0.735  -2.276  0.00  0.00    -0.120 A 
ATOM     14  C   LIG    1       -0.516  -0.086  -2.714  0.00  0.00    +0.080 A 
ATOM     15  N   LIG    1       -0.342   1.204  -2.571  0.00  0.00    -0.290 NA
ATOM     16  C   LIG    1       -1.751  -0.756  -3.257  0.00  0.00    +0.160 C 
ATOM     17  N   LIG    1        0.935   1.417  -2.037  0.00  0.00    -0.330 N 
ENDBRANCH   5  17
ENDBRANCH   1  10
BRANCH   3  18
ATOM     18  C   LIG    1       -2.884   4.035  -0.223  0.00  0.00    -0.010 C 
ATOM     19  C   LIG    1       -3.466   3.155  -1.333  0.00  0.00    +0.050 C 
ATOM     20  C   LIG    1       -4.946   2.894  -1.047  0.00  0.00    +0.190 C 
ATOM     21  N   LIG    1       -5.666   4.172  -0.983  0.00  0.00    -0.530 NA
ATOM     22  C   LIG    1       -5.157   5.014   0.107  0.00  0.00    +0.180 C 
ATOM     23  C   LIG    1       -3.682   5.339  -0.145  0.00  0.00    +0.070 C 
BRANCH  21  24
ATOM     24  C   LIG    1       -7.113   3.954  -0.847  0.00  0.00    +0.220 C 
BRANCH  24  25
ATOM     25  C   LIG    1       -7.862   5.210  -1.299  0.00  0.00    +0.460 C 
ATOM     26  F   LIG    1       -7.587   6.260  -0.416  0.00  0.00    -0.180 F 
ATOM     27  F   LIG    1       -9.237   4.955  -1.308  0.00  0.00    -0.180 F 
ATOM     28  F   LIG    1       -7.445   5.563  -2.587  0.00  0.00    -0.170 F 
ENDBRANCH  24  25
ENDBRANCH  21  24
ENDBRANCH   3  18
TORSDOF 5
