REMARK  Name = ZINCkj00000y7LaD.0
REMARK                            x       y       z     vdW  Elec       q    Type
REMARK                         _______ _______ _______ _____ _____    ______ ____
ROOT
ATOM      1  C   LIG    1       -4.469   4.368   0.773  0.00  0.00    +0.590 C 
ATOM      2  N   LIG    1       -3.939   3.530   1.686  0.00  0.00    -0.600 N 
ATOM      3  C   LIG    1       -3.864   4.024   3.030  0.00  0.00    +0.250 C 
ATOM      4  C   LIG    1       -3.389   3.050   4.076  0.00  0.00    +0.040 C 
ATOM      5  C   LIG    1       -3.293   1.621   3.595  0.00  0.00    +0.050 C 
ATOM      6  C   LIG    1       -2.635   1.513   2.217  0.00  0.00    +0.000 C 
ATOM      7  C   LIG    1       -2.486   0.051   1.880  0.00  0.00    +0.250 C 
ATOM      8  N   LIG    1       -1.410  -0.358   1.045  0.00  0.00    -0.480 N 
ATOM      9  C   LIG    1       -1.058   0.513  -0.051  0.00  0.00    +0.240 C 
ATOM     10  C   LIG    1       -2.218   1.190  -0.710  0.00  0.00    +0.050 C 
ATOM     11  C   LIG    1       -2.674   2.469  -0.068  0.00  0.00    +0.040 C 
ATOM     12  H   LIG    1       -0.593  -0.472   1.626  0.00  0.00    +0.430 HD
ATOM     13  H   LIG    1       -1.642  -1.262   0.661  0.00  0.00    +0.430 HD
ATOM     14  C   LIG    1       -3.512   2.230   1.190  0.00  0.00    +0.240 C 
ATOM     15  O   LIG    1       -4.316   4.152  -0.413  0.00  0.00    -0.510 OA
ENDROOT
BRANCH   1  20
ATOM     16  O   LIG    1       -7.351   8.695   2.354  0.00  0.00    -0.530 OA
ATOM     17  C   LIG    1       -6.693   7.728   2.008  0.00  0.00    +0.510 A 
ATOM     18  C   LIG    1       -5.399   7.541   2.528  0.00  0.00    -0.070 A 
ATOM     19  C   LIG    1       -4.673   6.458   2.143  0.00  0.00    +0.130 A 
ATOM     20  C   LIG    1       -5.235   5.549   1.214  0.00  0.00    -0.260 A 
ATOM     21  C   LIG    1       -6.508   5.773   0.730  0.00  0.00    +0.380 A 
ATOM     22  N   LIG    1       -7.210   6.849   1.130  0.00  0.00    -0.600 N 
ATOM     23  H   LIG    1       -8.104   6.992   0.781  0.00  0.00    +0.430 HD
ENDBRANCH   1  20
TORSDOF 1
