REMARK  Name = ZINCqH00000386bP.0
REMARK                            x       y       z     vdW  Elec       q    Type
REMARK                         _______ _______ _______ _____ _____    ______ ____
ROOT
ATOM      1  C   LIG    1        4.836  -1.901  -5.200  0.00  0.00    +0.290 C 
ENDROOT
BRANCH   1   5
ATOM      2  N   LIG    1        5.528  -2.860  -8.489  0.00  0.00    -0.460 N 
ATOM      3  C   LIG    1        6.070  -1.486  -8.646  0.00  0.00    +0.200 C 
ATOM      4  C   LIG    1        5.717  -0.807  -7.297  0.00  0.00    +0.040 C 
ATOM      5  C   LIG    1        5.924  -1.948  -6.274  0.00  0.00    -0.020 C 
ATOM      6  C   LIG    1        5.814  -3.248  -7.091  0.00  0.00    +0.190 C 
BRANCH   2  14
ATOM      7  C   LIG    1        5.612  -2.128 -11.237  0.00  0.00    +0.100 C 
ATOM      8  C   LIG    1        6.197  -3.425 -10.739  0.00  0.00    -0.100 A 
ATOM      9  C   LIG    1        6.795  -4.299 -11.624  0.00  0.00    +0.050 A 
ATOM     10  C   LIG    1        7.332  -5.489 -11.169  0.00  0.00    +0.000 A 
ATOM     11  C   LIG    1        7.271  -5.809  -9.824  0.00  0.00    -0.010 A 
ATOM     12  C   LIG    1        6.677  -4.935  -8.931  0.00  0.00    -0.020 A 
ATOM     13 CL   LIG    1        7.946  -7.304  -9.256  0.00  0.00    -0.070 Cl
ATOM     14  C   LIG    1        6.133  -3.742  -9.387  0.00  0.00    +0.120 A 
ENDBRANCH   2  14
ENDBRANCH   1   5
BRANCH   1  15
ATOM     15  N   LIG    1        5.010  -0.700  -4.379  0.00  0.00    -0.720 N 
ATOM     16  H   LIG    1        5.737  -0.086  -4.567  0.00  0.00    +0.410 HD
ATOM     17  C   LIG    1        4.161  -0.449  -3.364  0.00  0.00    +0.600 C 
ATOM     18  O   LIG    1        3.251  -1.218  -3.128  0.00  0.00    -0.510 OA
BRANCH  17  19
ATOM     19  C   LIG    1        4.337   0.767  -2.533  0.00  0.00    -0.020 A 
ATOM     20  N   LIG    1        5.266   1.689  -2.662  0.00  0.00    -0.340 NA
ATOM     21  O   LIG    1        5.145   2.563  -1.828  0.00  0.00    +0.130 OA
ATOM     22  C   LIG    1        4.105   2.336  -1.027  0.00  0.00    -0.030 A 
ATOM     23  C   LIG    1        3.586   3.151   0.128  0.00  0.00    +0.160 C 
ATOM     24  C   LIG    1        2.155   2.693   0.436  0.00  0.00    +0.030 C 
ATOM     25  C   LIG    1        2.116   1.167   0.561  0.00  0.00    +0.020 C 
ATOM     26  C   LIG    1        2.338   0.534  -0.820  0.00  0.00    +0.120 C 
ATOM     27  C   LIG    1        3.543   1.176  -1.442  0.00  0.00    -0.150 A 
ENDBRANCH  17  19
ENDBRANCH   1  15
TORSDOF 4
