REMARK  Name = ZINCqH0000005qcA.0
REMARK                            x       y       z     vdW  Elec       q    Type
REMARK                         _______ _______ _______ _____ _____    ______ ____
ROOT
ATOM      1  N   LIG    1        1.023   3.410   0.010  0.00  0.00    -0.680 N 
ATOM      2  H   LIG    1        0.154   3.841   0.020  0.00  0.00    +0.420 HD
ENDROOT
BRANCH   1   3
ATOM      3  C   LIG    1        2.243   4.221   0.003  0.00  0.00    +0.290 C 
ATOM      4  C   LIG    1        1.949   5.556   0.642  0.00  0.00    +0.040 C 
ATOM      5  C   LIG    1        3.181   6.332   0.995  0.00  0.00    +0.090 C 
ATOM      6  C   LIG    1        3.865   7.016  -0.143  0.00  0.00    -0.110 A 
ATOM      7  C   LIG    1        4.431   8.256   0.156  0.00  0.00    +0.080 A 
ATOM      8  C   LIG    1        5.082   8.999  -0.803  0.00  0.00    -0.120 A 
ATOM      9  C   LIG    1        5.180   8.509  -2.093  0.00  0.00    +0.080 A 
ATOM     10  C   LIG    1        4.629   7.288  -2.397  0.00  0.00    -0.020 A 
ATOM     11 BR   LIG    1        5.835  10.677  -0.361  0.00  0.00    -0.040 Br
ATOM     12  C   LIG    1        3.960   6.522  -1.427  0.00  0.00    +0.200 A 
ATOM     13  N   LIG    1        3.470   5.318  -1.877  0.00  0.00    -0.650 N 
ATOM     14  H   LIG    1        3.760   5.126  -2.783  0.00  0.00    +0.400 HD
ATOM     15  C   LIG    1        2.717   4.369  -1.398  0.00  0.00    +0.510 C 
ATOM     16  O   LIG    1        2.363   3.514  -2.182  0.00  0.00    -0.510 OA
ENDBRANCH   1   3
BRANCH   1  19
ATOM     17  C   LIG    1        0.002  -0.004   0.002  0.00  0.00    +0.510 A 
ATOM     18  N   LIG    1       -0.016   1.321   0.009  0.00  0.00    -0.630 NA
ATOM     19  C   LIG    1        1.110   2.030   0.002  0.00  0.00    +0.630 A 
ATOM     20  N   LIG    1        2.305   1.472  -0.012  0.00  0.00    -0.600 NA
ATOM     21  C   LIG    1        2.431   0.136  -0.020  0.00  0.00    +0.230 A 
ATOM     22  C   LIG    1        3.684  -0.490  -0.035  0.00  0.00    +0.000 A 
ATOM     23  C   LIG    1        3.757  -1.851  -0.043  0.00  0.00    +0.070 A 
ATOM     24  C   LIG    1        2.605  -2.631  -0.036  0.00  0.00    -0.030 A 
ATOM     25  C   LIG    1        1.369  -2.054  -0.021  0.00  0.00    +0.070 A 
ATOM     26  C   LIG    1        1.259  -0.659  -0.013  0.00  0.00    -0.240 A 
BRANCH  17  28
ATOM     27  C   LIG    1       -2.461  -0.031   0.026  0.00  0.00    +0.300 C 
ATOM     28  N   LIG    1       -1.172  -0.727   0.010  0.00  0.00    -0.700 N 
ATOM     29  H   LIG    1       -1.144  -1.696   0.004  0.00  0.00    +0.410 HD
ENDBRANCH  17  28
ENDBRANCH   1  19
TORSDOF 3
