REMARK  Name = ZINCpk00000y6w5a.0
REMARK                            x       y       z     vdW  Elec       q    Type
REMARK                         _______ _______ _______ _____ _____    ______ ____
ROOT
ATOM      1  C   LIG    1        3.446   1.192   4.020  0.00  0.00    +0.170 C 
ATOM      2  C   LIG    1        4.367   2.369   3.604  0.00  0.00    +0.090 C 
ATOM      3  C   LIG    1        3.937   2.650   2.149  0.00  0.00    +0.380 C 
ATOM      4  N   LIG    1        3.296   1.429   1.640  0.00  0.00    -1.000 NA
ATOM      5  C   LIG    1        3.338   0.399   2.693  0.00  0.00    +0.270 C 
ENDROOT
BRANCH   3   6
ATOM      6  C   LIG    1        2.958   3.795   2.118  0.00  0.00    +0.160 A 
ATOM      7  N   LIG    1        3.192   5.012   1.690  0.00  0.00    -0.460 NA
ATOM      8  C   LIG    1        2.036   5.681   1.851  0.00  0.00    +0.170 A 
ATOM      9  N   LIG    1        1.176   4.854   2.366  0.00  0.00    -0.380 NA
ATOM     10  C   LIG    1        1.786   7.126   1.503  0.00  0.00    +0.210 C 
ATOM     11  O   LIG    1        1.685   3.765   2.527  0.00  0.00    +0.080 OA
ENDBRANCH   3   6
BRANCH   4  12
ATOM     12  S   LIG    1        2.641   1.240   0.130  0.00  0.00    +2.730 S 
ATOM     13  O   LIG    1        1.605   0.276   0.260  0.00  0.00    -0.950 OA
ATOM     14  O   LIG    1        2.426   2.549  -0.380  0.00  0.00    -0.950 OA
BRANCH  12  15
ATOM     15  C   LIG    1        3.879   0.507  -0.887  0.00  0.00    -0.800 A 
ATOM     16  C   LIG    1        4.582   1.113  -1.881  0.00  0.00    +0.390 A 
ATOM     17  N   LIG    1        5.428   0.242  -2.433  0.00  0.00    -0.540 NA
ATOM     18  C   LIG    1        5.334  -0.938  -1.844  0.00  0.00    +0.280 A 
ATOM     19  N   LIG    1        5.968  -2.140  -2.027  0.00  0.00    -0.490 N 
ATOM     20  H   LIG    1        6.647  -2.225  -2.714  0.00  0.00    +0.430 HD
ATOM     21  C   LIG    1        5.659  -3.201  -1.265  0.00  0.00    +0.340 A 
ATOM     22  C   LIG    1        4.712  -3.131  -0.288  0.00  0.00    -0.040 A 
ATOM     23  C   LIG    1        4.033  -1.941  -0.052  0.00  0.00    +0.170 A 
ATOM     24  C   LIG    1        4.340  -0.828  -0.832  0.00  0.00    -0.090 A 
ENDBRANCH  12  15
ENDBRANCH   4  12
BRANCH   1  26
ATOM     25  C   LIG    1        3.125  -0.337   5.838  0.00  0.00    +0.220 C 
ATOM     26  O   LIG    1        4.055   0.401   5.042  0.00  0.00    -0.370 OA
ENDBRANCH   1  26
TORSDOF 4
