REMARK  Name = ZINCAx0000000bgw.0
REMARK                            x       y       z     vdW  Elec       q    Type
REMARK                         _______ _______ _______ _____ _____    ______ ____
ROOT
ATOM      1  C   LIG    1       -3.023  -1.048   3.461  0.00  0.00    +0.170 A 
ATOM      2  C   LIG    1       -4.314  -1.357   3.049  0.00  0.00    +0.020 A 
ATOM      3  C   LIG    1       -4.624  -1.393   1.704  0.00  0.00    +0.100 A 
ATOM      4  C   LIG    1       -3.644  -1.132   0.759  0.00  0.00    +0.020 A 
ATOM      5  O   LIG    1       -3.652  -1.107  -0.597  0.00  0.00    -0.230 OA
ATOM      6  C   LIG    1       -2.424  -0.795  -1.040  0.00  0.00    +0.650 A 
ATOM      7  N   LIG    1       -1.601  -0.612   0.012  0.00  0.00    -0.530 N 
ATOM      8  O   LIG    1       -2.103  -0.693  -2.208  0.00  0.00    -0.480 OA
ATOM      9  C   LIG    1       -2.347  -0.825   1.171  0.00  0.00    +0.100 A 
ATOM     10  C   LIG    1       -2.038  -0.782   2.520  0.00  0.00    +0.040 A 
ENDROOT
BRANCH   1  12
ATOM     11  C   LIG    1       -1.803  -0.128   5.285  0.00  0.00    +0.610 C 
ATOM     12  N   LIG    1       -2.716  -1.006   4.826  0.00  0.00    -0.660 N 
ATOM     13  H   LIG    1       -3.161  -1.610   5.442  0.00  0.00    +0.420 HD
ATOM     14  O   LIG    1       -1.312   0.689   4.530  0.00  0.00    -0.510 OA
BRANCH  11  18
ATOM     15  N   LIG    1       -0.413   0.314   8.591  0.00  0.00    -0.310 N 
ATOM     16  N   LIG    1       -1.303  -0.755   8.767  0.00  0.00    -0.040 NA
ATOM     17  N   LIG    1       -1.865  -1.006   7.636  0.00  0.00    -0.190 NA
ATOM     18  C   LIG    1       -1.399  -0.157   6.703  0.00  0.00    -0.110 A 
ATOM     19  C   LIG    1       -0.484   0.671   7.290  0.00  0.00    +0.140 A 
ATOM     20  C   LIG    1        0.293   1.772   6.617  0.00  0.00    +0.190 C 
BRANCH  15  25
ATOM     21  C   LIG    1        1.858   0.676  11.468  0.00  0.00    +0.150 A 
ATOM     22  C   LIG    1        1.999   2.055  11.517  0.00  0.00    -0.050 A 
ATOM     23  C   LIG    1        1.341   2.852  10.599  0.00  0.00    +0.080 A 
ATOM     24  C   LIG    1        0.543   2.277   9.629  0.00  0.00    -0.010 A 
ATOM     25  C   LIG    1        0.398   0.897   9.575  0.00  0.00    +0.160 A 
ATOM     26  C   LIG    1        1.053   0.096  10.499  0.00  0.00    +0.020 A 
BRANCH  21  28
ATOM     27  C   LIG    1        3.312   0.558  13.345  0.00  0.00    +0.250 C 
ATOM     28  O   LIG    1        2.504  -0.107  12.372  0.00  0.00    -0.310 OA
ENDBRANCH  21  28
ENDBRANCH  15  25
ENDBRANCH  11  18
ENDBRANCH   1  12
BRANCH   7  29
ATOM     29  C   LIG    1       -0.180  -0.260  -0.051  0.00  0.00    +0.360 C 
BRANCH  29  30
ATOM     30  C   LIG    1       -0.034   1.240  -0.045  0.00  0.00    +0.500 C 
ATOM     31  N   LIG    1        1.192   1.798  -0.098  0.00  0.00    -0.610 N 
ATOM     32  C   LIG    1        2.395   0.957  -0.155  0.00  0.00    +0.260 C 
ATOM     33  C   LIG    1        3.237   1.390  -1.365  0.00  0.00    +0.010 C 
ATOM     34  C   LIG    1        3.523   2.890  -1.269  0.00  0.00    +0.020 C 
ATOM     35  C   LIG    1        2.204   3.666  -1.298  0.00  0.00    +0.010 C 
ATOM     36  C   LIG    1        1.350   3.259  -0.093  0.00  0.00    +0.270 C 
ATOM     37  O   LIG    1       -1.020   1.945   0.001  0.00  0.00    -0.520 OA
ENDBRANCH  29  30
ENDBRANCH   7  29
TORSDOF 6
