REMARK  Name = ZINCpe000000UAvp.0
REMARK                            x       y       z     vdW  Elec       q    Type
REMARK                         _______ _______ _______ _____ _____    ______ ____
ROOT
ATOM      1  C   LIG    1       -1.433  -0.534   0.013  0.00  0.00    +0.020 C 
ENDROOT
BRANCH   1   2
ATOM      2  C   LIG    1       -1.413  -2.063   0.004  0.00  0.00    +0.300 C 
BRANCH   2   4
ATOM      3  C   LIG    1       -3.462  -2.831   1.289  0.00  0.00    +0.320 C 
ATOM      4  N   LIG    1       -2.787  -2.571   0.015  0.00  0.00    -0.580 N 
BRANCH   4   5
ATOM      5  C   LIG    1       -3.451  -2.805  -1.184  0.00  0.00    +0.410 A 
ATOM      6  N   LIG    1       -2.838  -2.569  -2.323  0.00  0.00    -0.290 NA
ATOM      7  N   LIG    1       -3.489  -2.798  -3.535  0.00  0.00    -0.170 N 
ATOM      8  N   LIG    1       -3.130  -2.654  -4.882  0.00  0.00    -0.050 NA
ATOM      9  N   LIG    1       -4.147  -3.023  -5.585  0.00  0.00    -0.030 NA
ATOM     10  N   LIG    1       -5.119  -3.388  -4.826  0.00  0.00    -0.290 NA
ATOM     11  C   LIG    1       -4.772  -3.271  -3.551  0.00  0.00    +0.180 A 
ATOM     12  C   LIG    1       -5.429  -3.524  -2.333  0.00  0.00    +0.180 A 
ATOM     13  C   LIG    1       -4.768  -3.297  -1.166  0.00  0.00    +0.020 A 
ENDBRANCH   4   5
ENDBRANCH   2   4
ENDBRANCH   1   2
BRANCH   1  14
ATOM     14  C   LIG    1        0.002  -0.004   0.002  0.00  0.00    +0.200 C 
BRANCH  14  15
ATOM     15  O   LIG    1       -0.017   1.425   0.010  0.00  0.00    -0.310 OA
BRANCH  15  16
ATOM     16  C   LIG    1        1.185   2.058   0.002  0.00  0.00    +0.190 A 
ATOM     17  C   LIG    1        2.359   1.320  -0.008  0.00  0.00    -0.090 A 
ATOM     18  C   LIG    1        3.580   1.966  -0.021  0.00  0.00    +0.170 A 
ATOM     19  C   LIG    1        3.633   3.348  -0.015  0.00  0.00    -0.700 A 
ATOM     20  C   LIG    1        2.464   4.086   0.000  0.00  0.00    +0.170 A 
ATOM     21  C   LIG    1        1.240   3.444   0.009  0.00  0.00    -0.030 A 
BRANCH  19  22
ATOM     22  S   LIG    1        5.191   4.169  -0.025  0.00  0.00    +2.500 S 
ATOM     23  O   LIG    1        4.919   5.430  -0.621  0.00  0.00    -0.940 OA
ATOM     24  O   LIG    1        6.072   3.241  -0.644  0.00  0.00    -0.940 OA
ATOM     25  C   LIG    1        5.609   4.370   1.728  0.00  0.00    -0.260 C 
ENDBRANCH  19  22
ENDBRANCH  15  16
ENDBRANCH  14  15
ENDBRANCH   1  14
TORSDOF 7
