REMARK  Name = ZINCvU0000000H7M.0
REMARK                            x       y       z     vdW  Elec       q    Type
REMARK                         _______ _______ _______ _____ _____    ______ ____
ROOT
ATOM      1  C   LIG    1       -6.861   0.912   0.700  0.00  0.00    +0.240 A 
ATOM      2  N   LIG    1       -6.157  -0.196   0.684  0.00  0.00    -0.270 NA
ATOM      3  N   LIG    1       -4.964   0.048   0.272  0.00  0.00    -0.290 NA
ATOM      4  C   LIG    1       -4.831   1.328   0.007  0.00  0.00    +0.150 A 
ATOM      5  N   LIG    1       -6.034   1.922   0.266  0.00  0.00    -0.450 N 
ENDROOT
BRANCH   1   9
ATOM      6  C   LIG    1      -10.928   1.303   1.868  0.00  0.00    +0.150 A 
ATOM      7  C   LIG    1      -10.043   2.353   2.077  0.00  0.00    -0.010 A 
ATOM      8  C   LIG    1       -8.723   2.230   1.699  0.00  0.00    +0.060 A 
ATOM      9  C   LIG    1       -8.276   1.048   1.106  0.00  0.00    -0.060 A 
ATOM     10  C   LIG    1       -9.169  -0.003   0.893  0.00  0.00    +0.110 A 
ATOM     11  C   LIG    1      -10.487   0.126   1.278  0.00  0.00    -0.070 A 
BRANCH   6  13
ATOM     12  C   LIG    1      -13.084   0.310   1.996  0.00  0.00    +0.240 C 
ATOM     13  O   LIG    1      -12.228   1.429   2.241  0.00  0.00    -0.310 OA
ENDBRANCH   6  13
ENDBRANCH   1   9
BRANCH   5  14
ATOM     14  C   LIG    1       -6.372   3.340   0.115  0.00  0.00    +0.240 C 
ATOM     15  C   LIG    1       -6.101   3.777  -1.326  0.00  0.00    +0.010 C 
ATOM     16  C   LIG    1       -6.455   5.257  -1.485  0.00  0.00    +0.040 C 
ATOM     17  C   LIG    1       -5.599   6.091  -0.529  0.00  0.00    +0.010 C 
ATOM     18  C   LIG    1       -5.870   5.653   0.911  0.00  0.00    +0.040 C 
ATOM     19  C   LIG    1       -5.516   4.173   1.070  0.00  0.00    +0.010 C 
ENDBRANCH   5  14
BRANCH   4  20
ATOM     20  S   LIG    1       -3.376   2.128  -0.581  0.00  0.00    +0.090 S 
BRANCH  20  21
ATOM     21  C   LIG    1       -2.252   0.711  -0.668  0.00  0.00    +0.010 C 
ATOM     22  C   LIG    1       -2.756  -0.275  -1.724  0.00  0.00    +0.080 C 
BRANCH  21  23
ATOM     23  C   LIG    1       -0.872   1.187  -1.043  0.00  0.00    +0.540 C 
ATOM     24  N   LIG    1        0.201   0.414  -0.784  0.00  0.00    -0.670 N 
ATOM     25  H   LIG    1        0.080  -0.481  -0.428  0.00  0.00    +0.410 HD
ATOM     26  O   LIG    1       -0.727   2.266  -1.578  0.00  0.00    -0.500 OA
BRANCH  24  27
ATOM     27  C   LIG    1        1.490   0.899  -1.033  0.00  0.00    +0.140 A 
ATOM     28  C   LIG    1        2.491   0.031  -1.449  0.00  0.00    -0.010 A 
ATOM     29  C   LIG    1        3.761   0.514  -1.698  0.00  0.00    +0.030 A 
ATOM     30  C   LIG    1        4.038   1.857  -1.524  0.00  0.00    -0.010 A 
ATOM     31  C   LIG    1        3.044   2.723  -1.106  0.00  0.00    +0.030 A 
ATOM     32  C   LIG    1        1.771   2.247  -0.859  0.00  0.00    +0.010 A 
ENDBRANCH  24  27
ENDBRANCH  21  23
ENDBRANCH  20  21
ENDBRANCH   4  20
TORSDOF 7
