REMARK  Name = ZINCtV000002D0xs.0
REMARK                            x       y       z     vdW  Elec       q    Type
REMARK                         _______ _______ _______ _____ _____    ______ ____
ROOT
ATOM      1  C   LIG    1       -0.015   1.209   0.011  0.00  0.00    +0.540 C 
ATOM      2  N   LIG    1        1.143   1.898   0.001  0.00  0.00    -0.660 N 
ATOM      3  H   LIG    1        1.131   2.866  -0.069  0.00  0.00    +0.410 HD
ATOM      4  O   LIG    1        0.002  -0.004  -0.002  0.00  0.00    -0.500 OA
ENDROOT
BRANCH   2   5
ATOM      5  C   LIG    1        2.362   1.220   0.091  0.00  0.00    +0.160 A 
ATOM      6  C   LIG    1        2.420  -0.031   0.689  0.00  0.00    +0.020 A 
ATOM      7  C   LIG    1        3.624  -0.702   0.773  0.00  0.00    +0.040 A 
ATOM      8  C   LIG    1        4.780  -0.129   0.272  0.00  0.00    +0.000 A 
ATOM      9  C   LIG    1        4.738   1.117  -0.321  0.00  0.00    +0.040 A 
ATOM     10  C   LIG    1        3.529   1.801  -0.416  0.00  0.00    -0.080 A 
BRANCH  10  11
ATOM     11  C   LIG    1        3.479   3.140  -1.052  0.00  0.00    -0.050 A 
ATOM     12  C   LIG    1        2.538   3.408  -2.044  0.00  0.00    +0.000 A 
ATOM     13  C   LIG    1        2.492   4.657  -2.629  0.00  0.00    +0.010 A 
ATOM     14  C   LIG    1        3.386   5.639  -2.240  0.00  0.00    +0.000 A 
ATOM     15  C   LIG    1        4.326   5.377  -1.260  0.00  0.00    +0.010 A 
ATOM     16  C   LIG    1        4.378   4.133  -0.665  0.00  0.00    +0.030 A 
ENDBRANCH  10  11
ENDBRANCH   2   5
BRANCH   1  18
ATOM     17  C   LIG    1       -1.728   2.320  -1.396  0.00  0.00    +0.090 C 
ATOM     18  C   LIG    1       -1.329   1.945   0.033  0.00  0.00    +0.010 C 
BRANCH  18  19
ATOM     19  S   LIG    1       -2.607   0.879   0.757  0.00  0.00    +0.070 S 
BRANCH  19  20
ATOM     20  C   LIG    1       -4.010   1.941   0.837  0.00  0.00    +0.140 A 
ATOM     21  N   LIG    1       -3.914   3.190   0.407  0.00  0.00    -0.480 NA
ATOM     22  C   LIG    1       -4.941   4.018   0.448  0.00  0.00    +0.360 A 
ATOM     23  C   LIG    1       -6.162   3.607   0.945  0.00  0.00    -0.240 A 
ATOM     24  C   LIG    1       -6.306   2.305   1.407  0.00  0.00    +0.170 A 
ATOM     25  C   LIG    1       -5.214   1.458   1.345  0.00  0.00    -0.080 A 
ATOM     26 CL   LIG    1       -5.339  -0.182   1.902  0.00  0.00    -0.020 Cl
BRANCH  23  27
ATOM     27  C   LIG    1       -7.327   4.563   0.986  0.00  0.00    +0.520 C 
ATOM     28  F   LIG    1       -7.752   4.723   2.310  0.00  0.00    -0.170 F 
ATOM     29  F   LIG    1       -8.377   4.050   0.218  0.00  0.00    -0.170 F 
ATOM     30  F   LIG    1       -6.932   5.801   0.470  0.00  0.00    -0.170 F 
ENDBRANCH  23  27
ENDBRANCH  19  20
ENDBRANCH  18  19
ENDBRANCH   1  18
TORSDOF 6
