REMARK  Name = ZINCtV00001bB3bG.0
REMARK                            x       y       z     vdW  Elec       q    Type
REMARK                         _______ _______ _______ _____ _____    ______ ____
ROOT
ATOM      1  O   LIG    1       -1.853  -0.107   1.215  0.00  0.00    -0.490 OA
ATOM      2  C   LIG    1       -0.938  -0.695   0.677  0.00  0.00    +0.520 C 
ATOM      3  N   LIG    1        0.002  -0.004   0.002  0.00  0.00    -0.670 N 
ATOM      4  H   LIG    1        0.695  -0.477  -0.484  0.00  0.00    +0.420 HD
ENDROOT
BRANCH   3   5
ATOM      5  C   LIG    1       -0.022   1.392   0.003  0.00  0.00    +0.170 A 
ATOM      6  C   LIG    1       -1.239   2.065   0.003  0.00  0.00    +0.020 A 
ATOM      7  C   LIG    1       -1.267   3.441   0.008  0.00  0.00    +0.070 A 
ATOM      8  C   LIG    1       -0.069   4.163   0.003  0.00  0.00    +0.030 A 
ATOM      9  C   LIG    1        1.153   3.482  -0.002  0.00  0.00    +0.110 A 
ATOM     10  C   LIG    1        1.172   2.106  -0.002  0.00  0.00    -0.010 A 
BRANCH   8  11
ATOM     11  N   LIG    1       -0.092   5.528   0.004  0.00  0.00    -0.210 NA
ATOM     12  N   LIG    1       -1.220   6.154   0.008  0.00  0.00    -0.210 NA
BRANCH  12  13
ATOM     13  C   LIG    1       -1.243   7.520   0.009  0.00  0.00    +0.040 A 
ATOM     14  C   LIG    1       -0.047   8.243   0.010  0.00  0.00    +0.040 A 
ATOM     15  C   LIG    1       -0.078   9.622   0.006  0.00  0.00    +0.000 A 
ATOM     16  C   LIG    1       -1.290  10.290   0.011  0.00  0.00    +0.040 A 
ATOM     17  C   LIG    1       -2.479   9.581   0.015  0.00  0.00    +0.000 A 
ATOM     18  C   LIG    1       -2.463   8.202   0.014  0.00  0.00    +0.080 A 
ENDBRANCH  12  13
ENDBRANCH   8  11
ENDBRANCH   3   5
BRANCH   2  19
ATOM     19  C   LIG    1       -0.854  -2.197   0.762  0.00  0.00    +0.270 C 
BRANCH  19  20
ATOM     20  O   LIG    1       -1.974  -2.701   1.536  0.00  0.00    -0.330 OA
BRANCH  20  21
ATOM     21  C   LIG    1       -2.047  -4.035   1.709  0.00  0.00    +0.520 C 
ATOM     22  O   LIG    1       -1.198  -4.757   1.226  0.00  0.00    -0.490 OA
BRANCH  21  23
ATOM     23  C   LIG    1       -3.160  -4.620   2.485  0.00  0.00    -0.100 A 
ATOM     24  C   LIG    1       -4.134  -3.792   3.047  0.00  0.00    +0.110 A 
ATOM     25  C   LIG    1       -5.174  -4.345   3.767  0.00  0.00    -0.040 A 
ATOM     26  C   LIG    1       -5.246  -5.717   3.942  0.00  0.00    +0.090 A 
ATOM     27  C   LIG    1       -4.280  -6.542   3.392  0.00  0.00    -0.040 A 
ATOM     28 CL   LIG    1       -4.380  -8.261   3.618  0.00  0.00    -0.040 Cl
ATOM     29 CL   LIG    1       -6.389  -3.318   4.461  0.00  0.00    -0.040 Cl
ATOM     30  C   LIG    1       -3.238  -6.002   2.666  0.00  0.00    +0.120 A 
ENDBRANCH  21  23
ENDBRANCH  20  21
ENDBRANCH  19  20
ENDBRANCH   2  19
TORSDOF 7
