REMARK  Name = ZINCvU00000007w4.0
REMARK                            x       y       z     vdW  Elec       q    Type
REMARK                         _______ _______ _______ _____ _____    ______ ____
ROOT
ATOM      1  O   LIG    1       -0.884  10.166   1.170  0.00  0.00    -0.510 OA
ATOM      2  C   LIG    1        0.030   9.574   0.630  0.00  0.00    +0.560 C 
ATOM      3  N   LIG    1        1.030  10.266   0.048  0.00  0.00    -0.650 N 
ATOM      4  H   LIG    1        1.799   9.796  -0.312  0.00  0.00    +0.420 HD
ENDROOT
BRANCH   2   5
ATOM      5  C   LIG    1        0.044   8.098   0.610  0.00  0.00    -0.140 A 
ATOM      6  C   LIG    1       -0.993   7.380   1.212  0.00  0.00    +0.090 A 
ATOM      7  C   LIG    1       -0.978   6.004   1.194  0.00  0.00    +0.020 A 
ATOM      8  C   LIG    1        0.072   5.325   0.574  0.00  0.00    -0.010 A 
ATOM      9  C   LIG    1        1.110   6.040  -0.023  0.00  0.00    +0.010 A 
ATOM     10  C   LIG    1        1.095   7.417  -0.011  0.00  0.00    +0.050 A 
BRANCH   8  11
ATOM     11  C   LIG    1        0.087   3.843   0.556  0.00  0.00    -0.060 A 
ATOM     12  C   LIG    1        1.134   3.161  -0.062  0.00  0.00    +0.030 A 
ATOM     13  C   LIG    1        1.142   1.781  -0.077  0.00  0.00    +0.010 A 
ATOM     14  C   LIG    1        0.114   1.074   0.520  0.00  0.00    +0.020 A 
ATOM     15  C   LIG    1       -0.930   1.745   1.131  0.00  0.00    +0.010 A 
ATOM     16  C   LIG    1       -0.947   3.125   1.156  0.00  0.00    +0.030 A 
ENDBRANCH   8  11
ENDBRANCH   2   5
BRANCH   3  17
ATOM     17  C   LIG    1        0.960  11.662  -0.035  0.00  0.00    +0.180 A 
ATOM     18  C   LIG    1       -0.272  12.299  -0.018  0.00  0.00    +0.080 A 
ATOM     19  C   LIG    1       -0.339  13.678  -0.095  0.00  0.00    -0.160 A 
ATOM     20  C   LIG    1        0.820  14.425  -0.201  0.00  0.00    +0.060 A 
ATOM     21  C   LIG    1        2.052  13.798  -0.226  0.00  0.00    +0.010 A 
ATOM     22  C   LIG    1        2.129  12.416  -0.143  0.00  0.00    +0.080 A 
BRANCH  22  23
ATOM     23  N   LIG    1        3.374  11.780  -0.167  0.00  0.00    -0.500 N 
ATOM     24  C   LIG    1        4.182  12.159   1.002  0.00  0.00    +0.160 C 
ATOM     25  C   LIG    1        5.509  11.397   0.967  0.00  0.00    +0.220 C 
ATOM     26  O   LIG    1        6.179  11.672  -0.267  0.00  0.00    -0.380 OA
ATOM     27  C   LIG    1        5.421  11.314  -1.425  0.00  0.00    +0.220 C 
ATOM     28  C   LIG    1        4.093  12.076  -1.415  0.00  0.00    +0.160 C 
ENDBRANCH  22  23
BRANCH  19  29
ATOM     29  C   LIG    1       -1.678  14.367  -0.068  0.00  0.00    +0.510 C 
ATOM     30  F   LIG    1       -2.334  14.067   1.130  0.00  0.00    -0.170 F 
ATOM     31  F   LIG    1       -2.452  13.925  -1.147  0.00  0.00    -0.170 F 
ATOM     32  F   LIG    1       -1.492  15.751  -0.164  0.00  0.00    -0.180 F 
ENDBRANCH  19  29
ENDBRANCH   3  17
TORSDOF 5
