REMARK  Name = ZINCvU00000006KE.0
REMARK                            x       y       z     vdW  Elec       q    Type
REMARK                         _______ _______ _______ _____ _____    ______ ____
ROOT
ATOM      1  C   LIG    1        2.711  -2.465   0.211  0.00  0.00    +0.600 C 
ATOM      2  N   LIG    1        1.473  -1.950   0.076  0.00  0.00    -0.650 N 
ATOM      3  H   LIG    1        0.707  -2.542   0.004  0.00  0.00    +0.420 HD
ATOM      4  O   LIG    1        3.661  -1.725   0.387  0.00  0.00    -0.490 OA
ENDROOT
BRANCH   1   6
ATOM      5  C   LIG    1        4.099  -4.527   0.265  0.00  0.00    +0.010 A 
ATOM      6  C   LIG    1        2.914  -3.918   0.148  0.00  0.00    -0.220 A 
ATOM      7  S   LIG    1        1.635  -5.094  -0.099  0.00  0.00    +0.160 S 
ATOM      8  C   LIG    1        2.780  -6.429  -0.027  0.00  0.00    -0.100 A 
ATOM      9  C   LIG    1        2.576  -7.808  -0.142  0.00  0.00    +0.040 A 
ATOM     10  C   LIG    1        3.637  -8.677  -0.052  0.00  0.00    +0.090 A 
ATOM     11  C   LIG    1        4.923  -8.193   0.153  0.00  0.00    -0.010 A 
ATOM     12  C   LIG    1        5.149  -6.844   0.268  0.00  0.00    +0.160 A 
ATOM     13  F   LIG    1        6.405  -6.388   0.468  0.00  0.00    -0.120 F 
ATOM     14  C   LIG    1        4.071  -5.928   0.180  0.00  0.00    -0.110 A 
BRANCH   5  15
ATOM     15  C   LIG    1        5.378  -3.760   0.480  0.00  0.00    +0.250 C 
BRANCH  15  17
ATOM     16  C   LIG    1        6.803  -2.882   2.195  0.00  0.00    +0.210 C 
ATOM     17  O   LIG    1        5.609  -3.600   1.881  0.00  0.00    -0.380 OA
ENDBRANCH  15  17
ENDBRANCH   5  15
ENDBRANCH   1   6
BRANCH   2  18
ATOM     18  C   LIG    1        1.292  -0.564   0.039  0.00  0.00    +0.160 A 
ATOM     19  C   LIG    1        2.139   0.268   0.757  0.00  0.00    +0.110 A 
ATOM     20  C   LIG    1        1.957   1.638   0.719  0.00  0.00    -0.170 A 
ATOM     21  C   LIG    1        0.933   2.183  -0.033  0.00  0.00    +0.090 A 
ATOM     22  C   LIG    1        0.084   1.362  -0.752  0.00  0.00    +0.040 A 
ATOM     23  C   LIG    1        0.259  -0.013  -0.720  0.00  0.00    +0.150 A 
BRANCH  23  24
ATOM     24  N   LIG    1       -0.602  -0.848  -1.447  0.00  0.00    -0.330 N 
ATOM     25  C   LIG    1       -1.697  -0.475  -2.137  0.00  0.00    +0.500 A 
ATOM     26  N   LIG    1       -2.223  -1.547  -2.674  0.00  0.00    -0.530 NA
ATOM     27  C   LIG    1       -1.496  -2.617  -2.352  0.00  0.00    +0.460 A 
ATOM     28  N   LIG    1       -0.489  -2.239  -1.607  0.00  0.00    -0.330 NA
ENDBRANCH  23  24
BRANCH  20  29
ATOM     29  C   LIG    1        2.878   2.539   1.500  0.00  0.00    +0.510 C 
ATOM     30  F   LIG    1        3.335   1.867   2.638  0.00  0.00    -0.170 F 
ATOM     31  F   LIG    1        2.186   3.692   1.885  0.00  0.00    -0.170 F 
ATOM     32  F   LIG    1        3.970   2.896   0.700  0.00  0.00    -0.170 F 
ENDBRANCH  20  29
ENDBRANCH   2  18
TORSDOF 6
