REMARK  Name = ZINCpk00000KfLbn.0
REMARK                            x       y       z     vdW  Elec       q    Type
REMARK                         _______ _______ _______ _____ _____    ______ ____
ROOT
ATOM      1  N   LIG    1        0.017   7.441   1.706  0.00  0.00    -0.730 N 
ATOM      2  H   LIG    1       -0.050   8.075   0.975  0.00  0.00    +0.400 HD
ATOM      3  C   LIG    1        0.018   6.118   1.453  0.00  0.00    +0.510 C 
ATOM      4  O   LIG    1        0.101   5.325   2.367  0.00  0.00    -0.520 OA
ENDROOT
BRANCH   3   5
ATOM      5  C   LIG    1       -0.085   5.622   0.033  0.00  0.00    +0.070 C 
ATOM      6  C   LIG    1        1.096   6.155  -0.779  0.00  0.00    +0.100 C 
ATOM      7  C   LIG    1        2.363   5.460  -0.358  0.00  0.00    +0.520 C 
ATOM      8  N   LIG    1        2.349   4.163   0.003  0.00  0.00    -0.660 N 
ATOM      9  H   LIG    1        3.176   3.727   0.260  0.00  0.00    +0.420 HD
ATOM     10  C   LIG    1        1.151   3.442   0.010  0.00  0.00    +0.210 A 
ATOM     11  C   LIG    1        1.173   2.054   0.002  0.00  0.00    -0.050 A 
ATOM     12  C   LIG    1       -0.016   1.347   0.009  0.00  0.00    +0.140 A 
ATOM     13  C   LIG    1       -1.225   2.022   0.019  0.00  0.00    -0.030 A 
ATOM     14  C   LIG    1       -1.247   3.405   0.032  0.00  0.00    +0.100 A 
ATOM     15  F   LIG    1        0.002  -0.004   0.002  0.00  0.00    -0.130 F 
ATOM     16  O   LIG    1        3.408   6.075  -0.344  0.00  0.00    -0.510 OA
ATOM     17  C   LIG    1       -0.064   4.116   0.025  0.00  0.00    -0.120 A 
ENDBRANCH   3   5
BRANCH   1  18
ATOM     18  C   LIG    1        0.116   7.923   3.086  0.00  0.00    +0.270 C 
BRANCH  18  19
ATOM     19  C   LIG    1        0.093   9.453   3.095  0.00  0.00    +0.160 C 
BRANCH  19  23
ATOM     20  C   LIG    1        0.719  13.362   6.020  0.00  0.00    +0.050 C 
ATOM     21  C   LIG    1        0.569  11.840   5.970  0.00  0.00    +0.160 C 
ATOM     22  C   LIG    1        0.412  11.389   4.515  0.00  0.00    +0.170 C 
ATOM     23  N   LIG    1        0.193   9.936   4.479  0.00  0.00    -0.530 NA
ATOM     24  C   LIG    1       -1.003   9.570   5.253  0.00  0.00    +0.160 C 
ATOM     25  C   LIG    1       -0.831  10.039   6.700  0.00  0.00    +0.200 C 
ATOM     26  C   LIG    1        0.354   9.310   7.337  0.00  0.00    +0.020 C 
ATOM     27  O   LIG    1       -0.588  11.448   6.713  0.00  0.00    -0.380 OA
ENDBRANCH  19  23
ENDBRANCH  18  19
ENDBRANCH   1  18
TORSDOF 4
