REMARK  Name = ZINCpk00000KfLoU.0
REMARK                            x       y       z     vdW  Elec       q    Type
REMARK                         _______ _______ _______ _____ _____    ______ ____
ROOT
ATOM      1  C   LIG    1        3.423  -1.374  -0.533  0.00  0.00    +0.230 C 
ATOM      2  C   LIG    1        2.999  -2.855  -0.620  0.00  0.00    +0.050 C 
ATOM      3  C   LIG    1        1.545  -2.835  -0.078  0.00  0.00    +0.040 C 
ATOM      4  C   LIG    1        1.034  -1.473  -0.611  0.00  0.00    +0.250 C 
ATOM      5  N   LIG    1        2.193  -0.569  -0.509  0.00  0.00    -0.610 N 
ATOM      6  C   LIG    1        2.136   0.774  -0.415  0.00  0.00    +0.570 C 
ATOM      7  O   LIG    1        3.160   1.429  -0.422  0.00  0.00    -0.480 OA
ENDROOT
BRANCH   6   8
ATOM      8  C   LIG    1        0.828   1.451  -0.303  0.00  0.00    -0.110 A 
ATOM      9  C   LIG    1       -0.154   1.244  -1.272  0.00  0.00    +0.070 A 
ATOM     10  C   LIG    1       -1.372   1.883  -1.165  0.00  0.00    +0.030 A 
ATOM     11  C   LIG    1       -1.629   2.721  -0.093  0.00  0.00    +0.080 A 
ATOM     12  C   LIG    1       -0.665   2.935   0.873  0.00  0.00    +0.010 A 
ATOM     13  C   LIG    1        0.567   2.305   0.778  0.00  0.00    +0.180 A 
BRANCH  13  14
ATOM     14  N   LIG    1        1.543   2.520   1.756  0.00  0.00    -0.340 N 
ATOM     15  C   LIG    1        1.429   3.260   2.881  0.00  0.00    +0.460 A 
ATOM     16  N   LIG    1        2.574   3.191   3.508  0.00  0.00    -0.330 NA
ATOM     17  N   LIG    1        3.404   2.458   2.857  0.00  0.00    -0.040 NA
ATOM     18  N   LIG    1        2.852   2.008   1.782  0.00  0.00    -0.030 NA
ENDBRANCH  13  14
ENDBRANCH   6   8
BRANCH   1  19
ATOM     19  C   LIG    1        4.267  -0.999  -1.753  0.00  0.00    +0.320 C 
BRANCH  19  23
ATOM     20  C   LIG    1        8.092  -3.970  -3.042  0.00  0.00    +0.110 C 
ATOM     21  C   LIG    1        7.201  -3.029  -2.272  0.00  0.00    -0.240 A 
ATOM     22  C   LIG    1        6.008  -2.544  -2.688  0.00  0.00    +0.220 A 
ATOM     23  N   LIG    1        5.532  -1.736  -1.717  0.00  0.00    -0.370 N 
ATOM     24  N   LIG    1        6.459  -1.733  -0.666  0.00  0.00    -0.290 NA
ATOM     25  C   LIG    1        7.458  -2.508  -1.000  0.00  0.00    +0.230 A 
ENDBRANCH  19  23
ENDBRANCH   1  19
TORSDOF 4
