REMARK  Name = ZINCpk00000xPz8p.0
REMARK                            x       y       z     vdW  Elec       q    Type
REMARK                         _______ _______ _______ _____ _____    ______ ____
ROOT
ATOM      1  C   LIG    1       -2.868   0.496   1.596  0.00  0.00    +0.140 C 
ATOM      2  C   LIG    1       -4.380   0.692   1.456  0.00  0.00    +0.180 C 
ATOM      3  N   LIG    1       -5.071  -0.520   1.919  0.00  0.00    -0.540 NA
ATOM      4  C   LIG    1       -4.727  -0.814   3.318  0.00  0.00    +0.160 C 
ATOM      5  C   LIG    1       -3.212  -0.996   3.438  0.00  0.00    +0.220 C 
ATOM      6  O   LIG    1       -2.556   0.180   2.955  0.00  0.00    -0.350 OA
ENDROOT
BRANCH   1   7
ATOM      7  C   LIG    1       -2.146   1.783   1.192  0.00  0.00    +0.330 C 
BRANCH   7   9
ATOM      8  C   LIG    1       -0.013   1.086   0.008  0.00  0.00    +0.290 C 
ATOM      9  N   LIG    1       -0.698   1.558   1.213  0.00  0.00    -0.600 N 
BRANCH   9  10
ATOM     10  C   LIG    1        0.025   1.794   2.378  0.00  0.00    +0.340 A 
ATOM     11  C   LIG    1        1.414   1.676   2.375  0.00  0.00    -0.040 A 
ATOM     12  C   LIG    1        2.088   1.926   3.560  0.00  0.00    +0.070 A 
ATOM     13  C   LIG    1        1.339   2.267   4.677  0.00  0.00    +0.150 A 
ATOM     14  N   LIG    1        0.027   2.350   4.591  0.00  0.00    -0.200 NA
ATOM     15  N   LIG    1       -0.604   2.125   3.496  0.00  0.00    -0.280 NA
ENDBRANCH   9  10
ENDBRANCH   7   9
ENDBRANCH   1   7
BRANCH   3  16
ATOM     16  C   LIG    1       -6.525  -0.394   1.750  0.00  0.00    +0.350 C 
BRANCH  16  17
ATOM     17  C   LIG    1       -7.178  -1.728   2.006  0.00  0.00    +0.170 A 
ATOM     18  N   LIG    1       -7.604  -2.169   3.155  0.00  0.00    -0.280 NA
ATOM     19  N   LIG    1       -8.108  -3.343   3.002  0.00  0.00    -0.280 NA
ATOM     20  C   LIG    1       -8.011  -3.695   1.751  0.00  0.00    +0.180 A 
ATOM     21  O   LIG    1       -7.421  -2.683   1.093  0.00  0.00    -0.220 OA
BRANCH  20  22
ATOM     22  C   LIG    1       -8.476  -4.997   1.152  0.00  0.00    +0.090 C 
ATOM     23  C   LIG    1       -9.811  -5.498   1.728  0.00  0.00    +0.060 C 
ATOM     24  C   LIG    1       -9.202  -6.912   1.697  0.00  0.00    +0.030 C 
ATOM     25  C   LIG    1       -7.824  -6.236   1.790  0.00  0.00    +0.050 C 
ENDBRANCH  20  22
ENDBRANCH  16  17
ENDBRANCH   3  16
TORSDOF 6
