REMARK  Name = ZINCtV00000L6kyK.0
REMARK                            x       y       z     vdW  Elec       q    Type
REMARK                         _______ _______ _______ _____ _____    ______ ____
ROOT
ATOM      1  C   LIG    1        3.247   4.375  -1.359  0.00  0.00    +0.040 C 
ATOM      2  C   LIG    1        3.583   3.295  -0.329  0.00  0.00    -0.090 C 
ATOM      3  C   LIG    1        3.761   3.940   1.047  0.00  0.00    +0.040 C 
ENDROOT
BRANCH   2   4
ATOM      4  C   LIG    1        4.879   2.590  -0.734  0.00  0.00    +0.340 C 
BRANCH   4   5
ATOM      5  N   LIG    1        5.969   3.567  -0.790  0.00  0.00    -0.670 N 
ATOM      6  H   LIG    1        5.796   4.500  -0.585  0.00  0.00    +0.400 HD
BRANCH   5   7
ATOM      7  C   LIG    1        7.213   3.172  -1.128  0.00  0.00    +0.550 C 
ATOM      8  S   LIG    1        7.518   1.527  -1.491  0.00  0.00    -0.590 S 
BRANCH   7   9
ATOM      9  N   LIG    1        8.215   4.071  -1.180  0.00  0.00    -0.630 N 
ATOM     10  H   LIG    1        8.062   4.985  -0.895  0.00  0.00    +0.410 HD
BRANCH   9  11
ATOM     11  C   LIG    1        9.478   3.685  -1.645  0.00  0.00    +0.140 A 
ATOM     12  C   LIG    1        9.587   2.819  -2.724  0.00  0.00    +0.120 A 
ATOM     13  C   LIG    1       10.835   2.443  -3.184  0.00  0.00    +0.060 A 
ATOM     14  C   LIG    1       11.975   2.921  -2.563  0.00  0.00    -0.020 A 
ATOM     15  C   LIG    1       11.870   3.780  -1.484  0.00  0.00    +0.050 A 
ATOM     16 CL   LIG    1       13.541   2.441  -3.140  0.00  0.00    -0.050 Cl
ATOM     17  C   LIG    1       10.626   4.163  -1.023  0.00  0.00    -0.030 A 
ATOM     18 CL   LIG    1       10.494   5.241   0.332  0.00  0.00    -0.050 Cl
ENDBRANCH   9  11
ENDBRANCH   7   9
ENDBRANCH   5   7
ENDBRANCH   4   5
ENDBRANCH   2   4
BRANCH   2  19
ATOM     19  C   LIG    1        2.445   2.274  -0.270  0.00  0.00    +0.340 C 
BRANCH  19  20
ATOM     20  N   LIG    1        1.204   2.949   0.117  0.00  0.00    -0.670 N 
ATOM     21  H   LIG    1        1.204   3.904   0.290  0.00  0.00    +0.400 HD
BRANCH  20  22
ATOM     22  C   LIG    1        0.061   2.244   0.234  0.00  0.00    +0.550 C 
ATOM     23  S   LIG    1        0.060   0.559  -0.070  0.00  0.00    -0.590 S 
BRANCH  22  24
ATOM     24  N   LIG    1       -1.082   2.865   0.585  0.00  0.00    -0.630 N 
ATOM     25  H   LIG    1       -1.067   3.802   0.839  0.00  0.00    +0.410 HD
BRANCH  24  26
ATOM     26  C   LIG    1       -2.291   2.160   0.584  0.00  0.00    +0.140 A 
ATOM     27  C   LIG    1       -2.342   0.866   1.084  0.00  0.00    +0.130 A 
ATOM     28  C   LIG    1       -3.538   0.174   1.087  0.00  0.00    +0.050 A 
ATOM     29  C   LIG    1       -4.682   0.765   0.582  0.00  0.00    -0.020 A 
ATOM     30  C   LIG    1       -4.634   2.053   0.078  0.00  0.00    +0.050 A 
ATOM     31 CL   LIG    1       -6.181  -0.111   0.580  0.00  0.00    -0.050 Cl
ATOM     32  C   LIG    1       -3.442   2.752   0.077  0.00  0.00    -0.030 A 
ATOM     33 CL   LIG    1       -3.382   4.367  -0.555  0.00  0.00    -0.050 Cl
ENDBRANCH  24  26
ENDBRANCH  22  24
ENDBRANCH  20  22
ENDBRANCH  19  20
ENDBRANCH   2  19
TORSDOF 10
