REMARK  Name = ZINCnE00000f9dnw.0
REMARK                            x       y       z     vdW  Elec       q    Type
REMARK                         _______ _______ _______ _____ _____    ______ ____
ROOT
ATOM      1  O   LIG    1        3.876   2.922  -1.269  0.00  0.00    -1.000 OA
ATOM      2  S   LIG    1        3.824   2.242  -0.022  0.00  0.00    +2.620 S 
ATOM      3  O   LIG    1        3.900   2.909   1.230  0.00  0.00    -1.010 OA
ENDROOT
BRANCH   2   4
ATOM      4  C   LIG    1        5.136   1.067  -0.040  0.00  0.00    -0.530 A 
ATOM      5  C   LIG    1        5.717   0.536  -1.132  0.00  0.00    +0.270 A 
ATOM      6  N   LIG    1        6.671  -0.311  -0.719  0.00  0.00    -0.480 NA
ATOM      7  C   LIG    1        6.686  -0.320   0.593  0.00  0.00    +0.240 A 
ATOM      8  O   LIG    1        5.741   0.528   1.037  0.00  0.00    -0.140 OA
BRANCH   7   9
ATOM      9  C   LIG    1        7.589  -1.126   1.441  0.00  0.00    -0.020 A 
ATOM     10  C   LIG    1        7.507  -1.040   2.832  0.00  0.00    +0.060 A 
ATOM     11  C   LIG    1        8.350  -1.799   3.618  0.00  0.00    +0.010 A 
ATOM     12  C   LIG    1        9.281  -2.636   3.030  0.00  0.00    +0.030 A 
ATOM     13  C   LIG    1        9.371  -2.722   1.652  0.00  0.00    +0.010 A 
ATOM     14  C   LIG    1        8.531  -1.973   0.855  0.00  0.00    +0.070 A 
ENDBRANCH   7   9
ENDBRANCH   2   4
BRANCH   2  15
ATOM     15  N   LIG    1        2.403   1.391  -0.013  0.00  0.00    -1.060 NA
BRANCH  15  16
ATOM     16  C   LIG    1        1.180   2.071   0.002  0.00  0.00    +0.260 A 
ATOM     17  C   LIG    1        1.155   3.457   0.010  0.00  0.00    -0.110 A 
ATOM     18  C   LIG    1       -0.055   4.127   0.025  0.00  0.00    -0.040 A 
ATOM     19  C   LIG    1       -1.241   3.417   0.032  0.00  0.00    -0.050 A 
ATOM     20  C   LIG    1       -1.224   2.034   0.019  0.00  0.00    +0.020 A 
ATOM     21  I   LIG    1       -0.091   6.221   0.037  0.00  0.00    -0.080 I 
ATOM     22  C   LIG    1       -0.016   1.356   0.009  0.00  0.00    +0.060 A 
BRANCH  22  23
ATOM     23  O   LIG    1        0.002  -0.004   0.002  0.00  0.00    -0.480 OA
ATOM     24  H   LIG    1        0.016  -0.402   0.883  0.00  0.00    +0.370 HD
ENDBRANCH  22  23
ENDBRANCH  15  16
ENDBRANCH   2  15
TORSDOF 5
