REMARK  Name = ZINCvU0000000FPW.0
REMARK                            x       y       z     vdW  Elec       q    Type
REMARK                         _______ _______ _______ _____ _____    ______ ____
ROOT
ATOM      1  O   LIG    1       -1.224   1.391  -6.244  0.00  0.00    -0.510 OA
ATOM      2  C   LIG    1       -0.127   0.891  -6.377  0.00  0.00    +0.490 C 
ATOM      3  N   LIG    1        0.533   0.417  -5.302  0.00  0.00    -0.730 N 
ATOM      4  H   LIG    1        1.410   0.018  -5.408  0.00  0.00    +0.400 HD
ENDROOT
BRANCH   3   5
ATOM      5  C   LIG    1       -0.076   0.503  -3.972  0.00  0.00    +0.260 C 
BRANCH   5   6
ATOM      6  C   LIG    1        0.873  -0.102  -2.936  0.00  0.00    +0.020 C 
BRANCH   6   7
ATOM      7  C   LIG    1        0.237  -0.012  -1.548  0.00  0.00    -0.050 C 
ATOM      8  C   LIG    1        1.186  -0.618  -0.511  0.00  0.00    +0.020 C 
ATOM      9  C   LIG    1        0.550  -0.527   0.877  0.00  0.00    -0.020 C 
ATOM     10  C   LIG    1        0.287   0.940   1.223  0.00  0.00    +0.010 C 
ATOM     11  C   LIG    1       -0.662   1.546   0.187  0.00  0.00    -0.020 C 
ATOM     12  C   LIG    1       -1.984   0.775   0.194  0.00  0.00    +0.010 C 
ATOM     13  C   LIG    1       -1.721  -0.692  -0.152  0.00  0.00    -0.020 C 
ATOM     14  C   LIG    1       -0.772  -1.298   0.884  0.00  0.00    +0.010 C 
ATOM     15  C   LIG    1       -0.026   1.455  -1.202  0.00  0.00    +0.010 C 
ATOM     16  C   LIG    1       -1.085  -0.782  -1.540  0.00  0.00    +0.010 C 
ENDBRANCH   6   7
ENDBRANCH   5   6
ENDBRANCH   3   5
BRANCH   2  17
ATOM     17  C   LIG    1        0.500   0.802  -7.745  0.00  0.00    +0.330 C 
BRANCH  17  18
ATOM     18  N   LIG    1       -0.409   1.382  -8.737  0.00  0.00    -0.470 N 
ATOM     19  C   LIG    1       -1.425   0.724  -9.401  0.00  0.00    +0.060 A 
ATOM     20  C   LIG    1       -1.915  -0.574  -9.369  0.00  0.00    +0.010 A 
ATOM     21  C   LIG    1       -2.979  -0.924 -10.174  0.00  0.00    +0.030 A 
ATOM     22  C   LIG    1       -3.566   0.015 -11.010  0.00  0.00    +0.000 A 
ATOM     23  C   LIG    1       -3.102   1.299 -11.052  0.00  0.00    +0.070 A 
ATOM     24  C   LIG    1       -2.025   1.677 -10.245  0.00  0.00    +0.050 A 
ATOM     25  N   LIG    1       -1.357   2.843 -10.068  0.00  0.00    -0.470 NA
ATOM     26  C   LIG    1       -0.406   2.676  -9.183  0.00  0.00    +0.330 A 
BRANCH  26  27
ATOM     27  C   LIG    1        0.531   3.729  -8.732  0.00  0.00    -0.030 A 
ATOM     28  C   LIG    1        1.175   3.613  -7.500  0.00  0.00    +0.010 A 
ATOM     29  C   LIG    1        2.052   4.596  -7.088  0.00  0.00    +0.010 A 
ATOM     30  C   LIG    1        2.285   5.699  -7.889  0.00  0.00    +0.030 A 
ATOM     31  C   LIG    1        1.645   5.822  -9.110  0.00  0.00    +0.010 A 
ATOM     32  C   LIG    1        0.770   4.844  -9.536  0.00  0.00    +0.070 A 
ENDBRANCH  26  27
ENDBRANCH  17  18
ENDBRANCH   2  17
TORSDOF 6
