REMARK  Name = ZINCvU0000000Eq3.0
REMARK                            x       y       z     vdW  Elec       q    Type
REMARK                         _______ _______ _______ _____ _____    ______ ____
ROOT
ATOM      1  N   LIG    1       -2.533   3.934  -1.336  0.00  0.00    -0.740 N 
ATOM      2  H   LIG    1       -3.144   3.383  -1.850  0.00  0.00    +0.400 HD
ATOM      3  C   LIG    1       -1.486   3.370  -0.702  0.00  0.00    +0.520 C 
ATOM      4  O   LIG    1       -0.723   4.059  -0.060  0.00  0.00    -0.510 OA
ENDROOT
BRANCH   1   5
ATOM      5  C   LIG    1       -2.749   5.381  -1.249  0.00  0.00    +0.360 C 
BRANCH   5   6
ATOM      6  C   LIG    1       -4.207   5.686  -1.474  0.00  0.00    +0.280 A 
ATOM      7  N   LIG    1       -4.715   6.881  -1.553  0.00  0.00    -0.470 NA
ATOM      8  C   LIG    1       -6.055   6.795  -1.759  0.00  0.00    +0.050 A 
ATOM      9  C   LIG    1       -7.068   7.744  -1.917  0.00  0.00    +0.070 A 
ATOM     10  C   LIG    1       -8.357   7.336  -2.115  0.00  0.00    +0.000 A 
ATOM     11  C   LIG    1       -8.674   5.986  -2.161  0.00  0.00    +0.030 A 
ATOM     12  C   LIG    1       -7.690   5.032  -2.008  0.00  0.00    +0.010 A 
ATOM     13  C   LIG    1       -6.375   5.427  -1.806  0.00  0.00    +0.050 A 
ATOM     14  N   LIG    1       -5.184   4.752  -1.628  0.00  0.00    -0.600 N 
ATOM     15  H   LIG    1       -5.066   3.789  -1.614  0.00  0.00    +0.420 HD
ENDBRANCH   5   6
BRANCH   5  16
ATOM     16  C   LIG    1       -1.910   6.087  -2.316  0.00  0.00    +0.070 C 
BRANCH  16  17
ATOM     17  C   LIG    1       -0.424   5.880  -2.016  0.00  0.00    +0.110 C 
BRANCH  17  19
ATOM     18  C   LIG    1        2.272   6.364  -2.762  0.00  0.00    +0.130 C 
ATOM     19  S   LIG    1        0.570   6.717  -3.281  0.00  0.00    -0.270 S 
ENDBRANCH  17  19
ENDBRANCH  16  17
ENDBRANCH   5  16
ENDBRANCH   1   5
BRANCH   3  20
ATOM     20  C   LIG    1       -1.265   1.882  -0.792  0.00  0.00    +0.070 C 
BRANCH  20  21
ATOM     21  C   LIG    1       -0.018   1.503   0.010  0.00  0.00    +0.110 C 
BRANCH  21  22
ATOM     22  C   LIG    1        1.197   2.126  -0.625  0.00  0.00    -0.060 A 
ATOM     23  C   LIG    1        1.443   1.943  -1.973  0.00  0.00    +0.000 A 
ATOM     24  C   LIG    1        2.556   2.518  -2.558  0.00  0.00    +0.000 A 
ATOM     25  C   LIG    1        3.428   3.269  -1.792  0.00  0.00    +0.000 A 
ATOM     26  C   LIG    1        3.185   3.448  -0.443  0.00  0.00    +0.000 A 
ATOM     27  C   LIG    1        2.070   2.877   0.140  0.00  0.00    +0.030 A 
ENDBRANCH  21  22
BRANCH  21  28
ATOM     28  C   LIG    1        0.134   0.004   0.023  0.00  0.00    -0.080 A 
ATOM     29  C   LIG    1        0.300  -0.664   1.222  0.00  0.00    +0.010 A 
ATOM     30  C   LIG    1        0.435  -2.040   1.233  0.00  0.00    +0.000 A 
ATOM     31  C   LIG    1        0.415  -2.747   0.045  0.00  0.00    +0.000 A 
ATOM     32  C   LIG    1        0.255  -2.078  -1.154  0.00  0.00    +0.000 A 
ATOM     33  C   LIG    1        0.114  -0.703  -1.165  0.00  0.00    +0.010 A 
ENDBRANCH  21  28
ENDBRANCH  20  21
ENDBRANCH   3  20
TORSDOF 9
