REMARK  Name = ZINCvU0000000ApQ.0
REMARK                            x       y       z     vdW  Elec       q    Type
REMARK                         _______ _______ _______ _____ _____    ______ ____
ROOT
ATOM      1  C   LIG    1        5.990   3.326   0.282  0.00  0.00    +0.300 C 
ATOM      2  C   LIG    1        4.786   3.994   0.192  0.00  0.00    -0.130 C 
ENDROOT
BRANCH   1   9
ATOM      3  C   LIG    1        8.269   2.849   2.437  0.00  0.00    +0.190 C 
ATOM      4  C   LIG    1        8.267   3.882   1.339  0.00  0.00    +0.130 A 
ATOM      5  N   LIG    1        9.211   4.748   1.101  0.00  0.00    -0.260 NA
ATOM      6  N   LIG    1        8.847   5.534   0.003  0.00  0.00    -0.290 N 
ATOM      7  C   LIG    1        7.644   5.123  -0.439  0.00  0.00    +0.160 A 
ATOM      8 CL   LIG    1        6.763   5.775  -1.785  0.00  0.00    +0.030 Cl
ATOM      9  C   LIG    1        7.238   4.080   0.384  0.00  0.00    -0.230 A 
BRANCH   6  10
ATOM     10  C   LIG    1        9.609   6.573  -0.548  0.00  0.00    +0.120 A 
ATOM     11  C   LIG    1        9.598   6.792  -1.919  0.00  0.00    +0.050 A 
ATOM     12  C   LIG    1       10.346   7.820  -2.460  0.00  0.00    +0.020 A 
ATOM     13  C   LIG    1       11.116   8.624  -1.637  0.00  0.00    +0.110 A 
ATOM     14  C   LIG    1       11.133   8.404  -0.270  0.00  0.00    +0.020 A 
ATOM     15  F   LIG    1       11.851   9.625  -2.168  0.00  0.00    -0.130 F 
ATOM     16  C   LIG    1       10.382   7.381   0.275  0.00  0.00    +0.080 A 
ENDBRANCH   6  10
ENDBRANCH   1   9
BRANCH   2  17
ATOM     17  C   LIG    1        3.531   3.236   0.088  0.00  0.00    +0.580 C 
ATOM     18  N   LIG    1        2.355   3.888   0.001  0.00  0.00    -0.670 N 
ATOM     19  H   LIG    1        2.341   4.856  -0.072  0.00  0.00    +0.410 HD
ATOM     20  O   LIG    1        3.554   2.019   0.082  0.00  0.00    -0.500 OA
BRANCH  18  21
ATOM     21  C   LIG    1        1.155   3.171   0.013  0.00  0.00    +0.150 A 
ATOM     22  C   LIG    1        1.050   2.004   0.759  0.00  0.00    +0.060 A 
ATOM     23  C   LIG    1       -0.138   1.298   0.770  0.00  0.00    +0.040 A 
ATOM     24  C   LIG    1       -1.219   1.749   0.036  0.00  0.00    +0.060 A 
ATOM     25  C   LIG    1       -1.119   2.913  -0.704  0.00  0.00    -0.160 A 
ATOM     26  C   LIG    1        0.065   3.624  -0.719  0.00  0.00    +0.040 A 
BRANCH  25  27
ATOM     27  C   LIG    1       -2.302   3.404  -1.498  0.00  0.00    +0.510 C 
ATOM     28  F   LIG    1       -2.258   4.800  -1.586  0.00  0.00    -0.180 F 
ATOM     29  F   LIG    1       -3.485   3.014  -0.863  0.00  0.00    -0.170 F 
ATOM     30  F   LIG    1       -2.260   2.854  -2.784  0.00  0.00    -0.170 F 
ENDBRANCH  25  27
ENDBRANCH  18  21
ENDBRANCH   2  17
BRANCH   2  31
ATOM     31  C   LIG    1        4.759   5.426   0.199  0.00  0.00    +0.230 C 
ATOM     32  N   LIG    1        4.737   6.561   0.205  0.00  0.00    -0.390 NA
ENDBRANCH   2  31
TORSDOF 6
