REMARK  Name = ZINCrg000000oGqp.0
REMARK                            x       y       z     vdW  Elec       q    Type
REMARK                         _______ _______ _______ _____ _____    ______ ____
ROOT
ATOM      1  C   LIG    1       -0.513   1.424  -4.808  0.00  0.00    +0.600 C 
ATOM      2  N   LIG    1       -0.966   1.736  -3.578  0.00  0.00    -0.500 N 
ATOM      3  H   LIG    1       -1.761   2.283  -3.479  0.00  0.00    +0.440 HD
ATOM      4  O   LIG    1        0.484   0.739  -4.933  0.00  0.00    -0.520 OA
ENDROOT
BRANCH   1   7
ATOM      5  N   LIG    1       -2.977   3.114  -6.862  0.00  0.00    -0.360 N 
ATOM      6  N   LIG    1       -2.303   2.652  -5.879  0.00  0.00    -0.190 NA
ATOM      7  C   LIG    1       -1.227   1.913  -6.004  0.00  0.00    +0.060 A 
ATOM      8  C   LIG    1       -0.736   1.581  -7.352  0.00  0.00    -0.030 A 
ATOM      9  C   LIG    1        0.392   0.799  -7.571  0.00  0.00    +0.070 A 
ATOM     10  C   LIG    1        0.785   0.527  -8.865  0.00  0.00    +0.060 A 
ATOM     11  C   LIG    1        0.066   1.019  -9.945  0.00  0.00    +0.030 A 
ATOM     12  C   LIG    1       -1.059   1.792  -9.750  0.00  0.00    +0.090 A 
ATOM     13  C   LIG    1       -1.473   2.078  -8.453  0.00  0.00    -0.140 A 
ATOM     14  C   LIG    1       -2.659   2.893  -8.154  0.00  0.00    +0.520 A 
ATOM     15  O   LIG    1       -3.337   3.357  -9.052  0.00  0.00    -0.490 OA
BRANCH   5  17
ATOM     16  C   LIG    1       -5.389   3.021  -6.466  0.00  0.00    +0.040 C 
ATOM     17  C   LIG    1       -4.160   3.927  -6.570  0.00  0.00    +0.320 C 
ENDBRANCH   5  17
ENDBRANCH   1   7
BRANCH   2  18
ATOM     18  N   LIG    1       -0.288   1.272  -2.443  0.00  0.00    -0.520 N 
ATOM     19  H   LIG    1        0.507   0.726  -2.543  0.00  0.00    +0.430 HD
ATOM     20  C   LIG    1       -0.742   1.585  -1.213  0.00  0.00    +0.510 C 
ATOM     21  O   LIG    1       -1.736   2.268  -1.088  0.00  0.00    -0.520 OA
BRANCH  20  22
ATOM     22  C   LIG    1       -0.013   1.086   0.008  0.00  0.00    +0.190 C 
BRANCH  22  23
ATOM     23  C   LIG    1       -0.718   1.572   1.248  0.00  0.00    -0.200 A 
ATOM     24  C   LIG    1       -0.500   2.718   1.937  0.00  0.00    -0.010 A 
ATOM     25  O   LIG    1       -1.366   2.716   2.960  0.00  0.00    +0.100 OA
ATOM     26  N   LIG    1       -2.051   1.720   2.961  0.00  0.00    -0.360 NA
ATOM     27  C   LIG    1        0.514   3.785   1.614  0.00  0.00    +0.190 C 
ATOM     28  C   LIG    1       -1.756   0.934   1.965  0.00  0.00    +0.040 A 
ATOM     29  C   LIG    1       -2.396  -0.391   1.641  0.00  0.00    +0.160 C 
ENDBRANCH  22  23
ENDBRANCH  20  22
ENDBRANCH   2  18
TORSDOF 5
