REMARK  Name = ZINCrg00000SjSFl.0
REMARK                            x       y       z     vdW  Elec       q    Type
REMARK                         _______ _______ _______ _____ _____    ______ ____
ROOT
ATOM      1  C   LIG    1        0.045  -2.211   1.147  0.00  0.00    +0.220 C 
ENDROOT
BRANCH   1   2
ATOM      2  N   LIG    1        0.066  -2.701   2.532  0.00  0.00    -0.520 NA
ATOM      3  C   LIG    1        1.324  -2.341   3.199  0.00  0.00    +0.190 C 
ATOM      4  C   LIG    1        1.252  -2.737   4.675  0.00  0.00    +0.050 C 
ATOM      5  C   LIG    1        1.009  -4.245   4.783  0.00  0.00    -0.020 C 
ATOM      6  C   LIG    1       -0.282  -4.600   4.039  0.00  0.00    +0.060 C 
ATOM      7  C   LIG    1       -0.165  -4.150   2.581  0.00  0.00    +0.180 C 
BRANCH   5   8
ATOM      8  C   LIG    1        0.878  -4.633   6.233  0.00  0.00    +0.520 C 
ATOM      9  N   LIG    1        1.952  -5.083   6.910  0.00  0.00    -0.610 N 
ATOM     10  C   LIG    1        3.281  -5.096   6.282  0.00  0.00    +0.260 C 
ATOM     11  C   LIG    1        4.261  -4.349   7.199  0.00  0.00    +0.010 C 
ATOM     12  C   LIG    1        4.221  -4.972   8.596  0.00  0.00    +0.010 C 
ATOM     13  C   LIG    1        2.813  -4.829   9.179  0.00  0.00    +0.010 C 
ATOM     14  C   LIG    1        1.817  -5.577   8.287  0.00  0.00    +0.270 C 
ATOM     15  O   LIG    1       -0.195  -4.540   6.791  0.00  0.00    -0.540 OA
ENDBRANCH   5   8
ENDBRANCH   1   2
BRANCH   1  18
ATOM     16  C   LIG    1        0.006  -0.762  -1.288  0.00  0.00    +0.280 C 
ATOM     17  N   LIG    1        0.020  -0.030  -0.019  0.00  0.00    -0.600 N 
ATOM     18  C   LIG    1        0.038  -0.704   1.147  0.00  0.00    +0.520 C 
ATOM     19  O   LIG    1        0.050  -0.098   2.198  0.00  0.00    -0.510 OA
BRANCH  17  20
ATOM     20  C   LIG    1        0.013   1.435  -0.019  0.00  0.00    +0.320 C 
BRANCH  20  21
ATOM     21  C   LIG    1        1.431   1.944  -0.038  0.00  0.00    +0.500 C 
ATOM     22  N   LIG    1        1.672   3.270  -0.042  0.00  0.00    -0.720 N 
ATOM     23  H   LIG    1        0.932   3.897  -0.032  0.00  0.00    +0.400 HD
ATOM     24  O   LIG    1        2.357   1.160  -0.051  0.00  0.00    -0.530 OA
BRANCH  22  25
ATOM     25  C   LIG    1        3.051   3.764  -0.060  0.00  0.00    +0.170 C 
ATOM     26  C   LIG    1        3.791   3.257   1.179  0.00  0.00    +0.030 C 
ATOM     27  C   LIG    1        3.044   5.294  -0.060  0.00  0.00    +0.030 C 
ATOM     28  C   LIG    1        3.757   3.258  -1.319  0.00  0.00    +0.030 C 
ENDBRANCH  22  25
ENDBRANCH  20  21
ENDBRANCH  17  20
ENDBRANCH   1  18
TORSDOF 6
