REMARK  Name = ZINCqH0000002IgZ.0
REMARK                            x       y       z     vdW  Elec       q    Type
REMARK                         _______ _______ _______ _____ _____    ______ ____
ROOT
ATOM      1  N   LIG    1       -0.916   1.699  -5.935  0.00  0.00    -0.680 N 
ATOM      2  H   LIG    1       -1.751   2.190  -5.890  0.00  0.00    +0.410 HD
ATOM      3  C   LIG    1       -0.353   1.434  -7.130  0.00  0.00    +0.710 C 
ATOM      4  N   LIG    1       -0.899   1.930  -8.258  0.00  0.00    -0.610 N 
ATOM      5  C   LIG    1       -2.106   2.758  -8.184  0.00  0.00    +0.290 C 
ATOM      6  O   LIG    1        0.648   0.746  -7.191  0.00  0.00    -0.560 OA
ENDROOT
BRANCH   1  11
ATOM      7  C   LIG    1        0.999  -0.371  -3.569  0.00  0.00    +0.150 A 
ATOM      8  C   LIG    1        0.924   0.408  -2.423  0.00  0.00    -0.100 A 
ATOM      9  C   LIG    1        0.250   1.614  -2.447  0.00  0.00    +0.070 A 
ATOM     10  C   LIG    1       -0.362   2.043  -3.609  0.00  0.00    -0.050 A 
ATOM     11  C   LIG    1       -0.296   1.264  -4.758  0.00  0.00    +0.200 A 
ATOM     12  C   LIG    1        0.386   0.056  -4.737  0.00  0.00    +0.000 A 
BRANCH   7  13
ATOM     13  O   LIG    1        1.667  -1.554  -3.545  0.00  0.00    -0.310 OA
BRANCH  13  14
ATOM     14  C   LIG    1        2.275  -1.931  -2.307  0.00  0.00    +0.180 C 
BRANCH  14  16
ATOM     15  C   LIG    1        3.626  -3.684  -1.149  0.00  0.00    +0.040 C 
ATOM     16  C   LIG    1        2.975  -3.281  -2.474  0.00  0.00    +0.020 C 
ENDBRANCH  14  16
ENDBRANCH  13  14
ENDBRANCH   7  13
ENDBRANCH   1  11
BRANCH   4  17
ATOM     17  C   LIG    1       -0.287   1.642  -9.557  0.00  0.00    +0.350 C 
BRANCH  17  18
ATOM     18  C   LIG    1       -0.883   0.380 -10.124  0.00  0.00    +0.500 C 
ATOM     19  N   LIG    1       -0.469  -0.082 -11.321  0.00  0.00    -0.610 N 
ATOM     20  C   LIG    1        0.561   0.642 -12.070  0.00  0.00    +0.280 C 
ATOM     21  O   LIG    1       -1.736  -0.220  -9.504  0.00  0.00    -0.530 OA
BRANCH  19  22
ATOM     22  C   LIG    1       -1.049  -1.310 -11.872  0.00  0.00    +0.240 C 
ATOM     23  C   LIG    1        0.057  -2.347 -12.080  0.00  0.00    +0.010 C 
ATOM     24  C   LIG    1       -0.549  -3.629 -12.656  0.00  0.00    +0.010 C 
ATOM     25  C   LIG    1       -1.216  -3.319 -13.998  0.00  0.00    +0.000 C 
ATOM     26  C   LIG    1       -2.321  -2.282 -13.790  0.00  0.00    +0.010 C 
ATOM     27  C   LIG    1       -1.716  -1.000 -13.214  0.00  0.00    +0.000 C 
ENDBRANCH  19  22
ENDBRANCH  17  18
ENDBRANCH   4  17
TORSDOF 7
