REMARK  Name = ZINCpe000000Yx9p.0
REMARK                            x       y       z     vdW  Elec       q    Type
REMARK                         _______ _______ _______ _____ _____    ______ ____
ROOT
ATOM      1  N   LIG    1       -0.753  -4.737   1.271  0.00  0.00    -0.480 N 
ATOM      2  C   LIG    1       -2.059  -4.067   1.312  0.00  0.00    +0.220 C 
ATOM      3  C   LIG    1       -2.183  -3.124   0.111  0.00  0.00    +0.300 C 
ATOM      4  N   LIG    1       -1.021  -2.222   0.102  0.00  0.00    -0.600 N 
ATOM      5  C   LIG    1        0.321  -2.817   0.191  0.00  0.00    +0.310 C 
ATOM      6  C   LIG    1       -1.182  -0.887   0.009  0.00  0.00    +0.600 C 
ATOM      7  O   LIG    1       -0.209  -0.162  -0.069  0.00  0.00    -0.520 OA
ATOM      8  C   LIG    1        0.347  -3.771   1.396  0.00  0.00    +0.200 C 
ENDROOT
BRANCH   6   9
ATOM      9  C   LIG    1       -2.540  -0.306   0.002  0.00  0.00    +0.060 A 
ATOM     10  N   LIG    1       -3.673  -0.983  -0.042  0.00  0.00    -0.250 NA
ATOM     11  N   LIG    1       -4.725  -0.068  -0.030  0.00  0.00    -0.390 N 
ATOM     12  C   LIG    1       -6.166  -0.341  -0.063  0.00  0.00    +0.320 C 
ATOM     13  C   LIG    1       -6.899   0.929   0.393  0.00  0.00    +0.020 C 
ATOM     14  C   LIG    1       -6.321   2.140  -0.347  0.00  0.00    +0.250 C 
ATOM     15  O   LIG    1       -4.950   2.320   0.038  0.00  0.00    -0.280 OA
ATOM     16  C   LIG    1       -4.195   1.188   0.019  0.00  0.00    +0.270 A 
ATOM     17  C   LIG    1       -2.852   1.072   0.041  0.00  0.00    -0.060 A 
ENDBRANCH   6   9
BRANCH   1  22
ATOM     18  C   LIG    1        0.569  -7.452   3.362  0.00  0.00    +0.050 A 
ATOM     19  C   LIG    1       -0.545  -7.638   4.192  0.00  0.00    -0.010 A 
ATOM     20  C   LIG    1       -1.662  -6.851   4.004  0.00  0.00    +0.310 A 
ATOM     21  N   LIG    1       -1.694  -5.931   3.059  0.00  0.00    -0.500 NA
ATOM     22  C   LIG    1       -0.666  -5.720   2.252  0.00  0.00    +0.320 A 
ATOM     23  C   LIG    1        0.496  -6.473   2.369  0.00  0.00    +0.010 A 
BRANCH  18  25
ATOM     24  N   LIG    1        2.683  -8.880   3.654  0.00  0.00    -0.390 NA
ATOM     25  C   LIG    1        1.748  -8.248   3.525  0.00  0.00    +0.250 C 
ENDBRANCH  18  25
ENDBRANCH   1  22
TORSDOF 3
