REMARK  Name = ZINCpk00000xR7O2.0
REMARK                            x       y       z     vdW  Elec       q    Type
REMARK                         _______ _______ _______ _____ _____    ______ ____
ROOT
ATOM      1  C   LIG    1        3.312   5.282  -2.012  0.00  0.00    +0.530 C 
ATOM      2  N   LIG    1        2.956   4.116  -1.437  0.00  0.00    -0.630 N 
ATOM      3  H   LIG    1        2.055   3.775  -1.548  0.00  0.00    +0.410 HD
ATOM      4  O   LIG    1        4.439   5.708  -1.873  0.00  0.00    -0.500 OA
ENDROOT
BRANCH   1  12
ATOM      5  C   LIG    1       -1.268   8.388  -1.069  0.00  0.00    +0.200 C 
ATOM      6  C   LIG    1       -0.534   8.435  -2.384  0.00  0.00    +0.190 A 
ATOM      7  N   LIG    1       -0.870   9.135  -3.438  0.00  0.00    -0.290 NA
ATOM      8  N   LIG    1       -0.014   8.937  -4.383  0.00  0.00    -0.270 NA
ATOM      9  C   LIG    1        0.897   8.111  -3.975  0.00  0.00    +0.140 A 
ATOM     10  C   LIG    1        2.102   7.579  -4.710  0.00  0.00    +0.370 C 
ATOM     11  N   LIG    1        3.017   6.987  -3.717  0.00  0.00    -0.510 NA
ATOM     12  C   LIG    1        2.309   6.057  -2.827  0.00  0.00    +0.180 C 
ATOM     13  C   LIG    1        1.385   6.843  -1.887  0.00  0.00    +0.290 C 
ATOM     14  C   LIG    1        3.705   8.032  -2.947  0.00  0.00    +0.210 C 
ATOM     15  N   LIG    1        0.591   7.768  -2.695  0.00  0.00    -0.470 N 
ENDBRANCH   1  12
BRANCH   2  16
ATOM     16  C   LIG    1        3.892   3.393  -0.676  0.00  0.00    -0.000 A 
ATOM     17  C   LIG    1        5.177   3.753  -0.438  0.00  0.00    +0.270 A 
ATOM     18  N   LIG    1        5.743   2.786   0.330  0.00  0.00    -0.470 N 
ATOM     19  H   LIG    1        6.659   2.777   0.651  0.00  0.00    +0.450 HD
ATOM     20  N   LIG    1        4.776   1.804   0.578  0.00  0.00    -0.260 NA
ATOM     21  C   LIG    1        3.660   2.164  -0.021  0.00  0.00    +0.110 A 
BRANCH  21  22
ATOM     22  C   LIG    1        2.384   1.407  -0.013  0.00  0.00    -0.020 A 
ATOM     23  C   LIG    1        1.167   2.088   0.002  0.00  0.00    +0.010 A 
ATOM     24  C   LIG    1       -0.017   1.379   0.010  0.00  0.00    +0.020 A 
ATOM     25  C   LIG    1        0.002  -0.004   0.002  0.00  0.00    +0.020 A 
ATOM     26  C   LIG    1        1.206  -0.684  -0.013  0.00  0.00    +0.020 A 
ATOM     27  C   LIG    1        2.397   0.014  -0.021  0.00  0.00    +0.040 A 
ENDBRANCH  21  22
ENDBRANCH   2  16
TORSDOF 3
