REMARK  Name = ZINCfA000000bfLf.0
REMARK                            x       y       z     vdW  Elec       q    Type
REMARK                         _______ _______ _______ _____ _____    ______ ____
ROOT
ATOM      1  C   LIG    1        0.140   1.426  -4.874  0.00  0.00    +0.200 C 
ENDROOT
BRANCH   1   2
ATOM      2  C   LIG    1       -0.643   1.813  -3.618  0.00  0.00    +0.050 C 
BRANCH   2   3
ATOM      3  C   LIG    1        0.029   1.201  -2.388  0.00  0.00    +0.250 C 
BRANCH   3   4
ATOM      4  N   LIG    1       -0.723   1.572  -1.182  0.00  0.00    -0.390 N 
ATOM      5  C   LIG    1       -2.061   0.969  -1.234  0.00  0.00    +0.320 C 
ATOM      6  H   LIG    1       -0.809   2.577  -1.135  0.00  0.00    +0.430 HD
BRANCH   4   8
ATOM      7  C   LIG    1       -0.729   1.579   1.267  0.00  0.00    +0.080 C 
ATOM      8  C   LIG    1       -0.013   1.086   0.008  0.00  0.00    +0.250 C 
ENDBRANCH   4   8
ENDBRANCH   3   4
ENDBRANCH   2   3
ENDBRANCH   1   2
BRANCH   1   9
ATOM      9  O   LIG    1       -0.488   1.998  -6.022  0.00  0.00    -0.310 OA
BRANCH   9  10
ATOM     10  C   LIG    1        0.087   1.749  -7.229  0.00  0.00    +0.120 A 
ATOM     11  C   LIG    1        1.235   0.974  -7.304  0.00  0.00    -0.070 A 
ATOM     12  C   LIG    1        1.816   0.718  -8.531  0.00  0.00    +0.070 A 
ATOM     13  C   LIG    1        1.258   1.242  -9.684  0.00  0.00    -0.070 A 
ATOM     14  C   LIG    1        0.116   2.019  -9.610  0.00  0.00    +0.080 A 
ATOM     15 CL   LIG    1        1.992   0.923 -11.224  0.00  0.00    -0.060 Cl
ATOM     16  C   LIG    1       -0.470   2.273  -8.386  0.00  0.00    +0.010 A 
ENDBRANCH   9  10
ENDBRANCH   1   9
TORSDOF 6
