REMARK  Name = ZINCfA000000bfLf.1
REMARK                            x       y       z     vdW  Elec       q    Type
REMARK                         _______ _______ _______ _____ _____    ______ ____
ROOT
ATOM      1  C   LIG    1        3.498   2.100   1.287  0.00  0.00    +0.200 C 
ENDROOT
BRANCH   1   2
ATOM      2  C   LIG    1        2.062   1.571   1.298  0.00  0.00    +0.050 C 
BRANCH   2   3
ATOM      3  C   LIG    1        1.360   1.973  -0.000  0.00  0.00    +0.250 C 
BRANCH   3   4
ATOM      4  N   LIG    1       -0.018   1.465   0.010  0.00  0.00    -0.390 N 
ATOM      5  C   LIG    1        0.002  -0.004   0.002  0.00  0.00    +0.320 C 
ATOM      6  H   LIG    1       -0.490   1.790   0.840  0.00  0.00    +0.430 HD
BRANCH   4   8
ATOM      7  C   LIG    1       -2.196   1.526  -1.107  0.00  0.00    +0.080 C 
ATOM      8  C   LIG    1       -0.728   1.951  -1.180  0.00  0.00    +0.250 C 
ENDBRANCH   4   8
ENDBRANCH   3   4
ENDBRANCH   2   3
ENDBRANCH   1   2
BRANCH   1   9
ATOM      9  O   LIG    1        4.153   1.724   2.500  0.00  0.00    -0.310 OA
BRANCH   9  10
ATOM     10  C   LIG    1        5.445   2.119   2.651  0.00  0.00    +0.120 A 
ATOM     11  C   LIG    1        6.070   2.849   1.650  0.00  0.00    -0.070 A 
ATOM     12  C   LIG    1        7.381   3.253   1.808  0.00  0.00    +0.070 A 
ATOM     13  C   LIG    1        8.075   2.923   2.959  0.00  0.00    -0.070 A 
ATOM     14  C   LIG    1        7.455   2.191   3.956  0.00  0.00    +0.080 A 
ATOM     15 CL   LIG    1        9.725   3.426   3.152  0.00  0.00    -0.060 Cl
ATOM     16  C   LIG    1        6.142   1.789   3.804  0.00  0.00    +0.010 A 
ENDBRANCH   9  10
ENDBRANCH   1   9
TORSDOF 6
