REMARK  Name = ZINCrH000004pzSv.0
REMARK                            x       y       z     vdW  Elec       q    Type
REMARK                         _______ _______ _______ _____ _____    ______ ____
ROOT
ATOM      1  N   LIG    1        2.477  -0.316   0.043  0.00  0.00    -0.610 N 
ATOM      2  C   LIG    1        2.729   0.993   0.241  0.00  0.00    +0.570 C 
ATOM      3  O   LIG    1        3.873   1.375   0.393  0.00  0.00    -0.520 OA
ATOM      4  C   LIG    1        1.112  -0.764  -0.242  0.00  0.00    +0.280 C 
ENDROOT
BRANCH   2   5
ATOM      5  C   LIG    1        1.617   1.962   0.272  0.00  0.00    -0.150 A 
ATOM      6  C   LIG    1        0.583   1.875  -0.663  0.00  0.00    +0.080 A 
ATOM      7  C   LIG    1       -0.451   2.786  -0.631  0.00  0.00    -0.010 A 
ATOM      8  C   LIG    1       -0.475   3.782   0.331  0.00  0.00    +0.080 A 
ATOM      9  C   LIG    1        0.541   3.880   1.262  0.00  0.00    -0.060 A 
ATOM     10  C   LIG    1        1.592   2.974   1.241  0.00  0.00    +0.160 A 
BRANCH  10  11
ATOM     11  O   LIG    1        2.590   3.069   2.155  0.00  0.00    -0.300 OA
BRANCH  11  12
ATOM     12  C   LIG    1        2.497   4.126   3.111  0.00  0.00    +0.600 C 
ATOM     13  F   LIG    1        1.320   3.981   3.854  0.00  0.00    -0.200 F 
ATOM     14  F   LIG    1        2.479   5.357   2.445  0.00  0.00    -0.200 F 
ENDBRANCH  11  12
ENDBRANCH  10  11
ENDBRANCH   2   5
BRANCH   1  16
ATOM     15  C   LIG    1        3.369  -2.359  -0.964  0.00  0.00    +0.050 C 
ATOM     16  C   LIG    1        3.568  -1.291   0.114  0.00  0.00    +0.290 C 
BRANCH  16  17
ATOM     17  C   LIG    1        3.572  -1.944   1.472  0.00  0.00    -0.100 A 
ATOM     18  C   LIG    1        2.387  -2.393   2.025  0.00  0.00    +0.050 A 
ATOM     19  C   LIG    1        2.388  -2.996   3.268  0.00  0.00    +0.000 A 
ATOM     20  C   LIG    1        3.579  -3.140   3.967  0.00  0.00    +0.150 A 
ATOM     21  C   LIG    1        4.766  -2.683   3.412  0.00  0.00    +0.030 A 
ATOM     22  C   LIG    1        4.760  -2.086   2.166  0.00  0.00    +0.060 A 
BRANCH  20  23
ATOM     23  N   LIG    1        3.582  -3.747   5.231  0.00  0.00    -0.330 N 
ATOM     24  C   LIG    1        2.516  -4.232   5.897  0.00  0.00    +0.480 A 
ATOM     25  N   LIG    1        2.938  -4.718   7.037  0.00  0.00    -0.540 NA
ATOM     26  C   LIG    1        4.257  -4.555   7.138  0.00  0.00    +0.430 A 
ATOM     27  N   LIG    1        4.697  -3.966   6.057  0.00  0.00    -0.310 NA
ENDBRANCH  20  23
ENDBRANCH  16  17
ENDBRANCH   1  16
TORSDOF 6
