REMARK  Name = ZINCqH00000034cG.0
REMARK                            x       y       z     vdW  Elec       q    Type
REMARK                         _______ _______ _______ _____ _____    ______ ____
ROOT
ATOM      1  N   LIG    1       -2.962   2.895   1.724  0.00  0.00    -0.670 N 
ATOM      2  H   LIG    1       -3.605   2.782   1.006  0.00  0.00    +0.410 HD
ATOM      3  C   LIG    1       -1.651   3.018   1.440  0.00  0.00    +0.510 C 
ATOM      4  O   LIG    1       -0.858   3.254   2.328  0.00  0.00    -0.500 OA
ENDROOT
BRANCH   3   5
ATOM      5  C   LIG    1       -1.168   2.862   0.021  0.00  0.00    +0.070 C 
ATOM      6  C   LIG    1       -1.525   1.466  -0.502  0.00  0.00    +0.110 C 
ATOM      7  C   LIG    1       -0.664   0.433   0.175  0.00  0.00    +0.520 C 
ATOM      8  N   LIG    1        0.615   0.705   0.494  0.00  0.00    -0.660 N 
ATOM      9  H   LIG    1        1.160   0.025   0.919  0.00  0.00    +0.420 HD
ATOM     10  C   LIG    1        1.163   1.961   0.217  0.00  0.00    +0.210 A 
ATOM     11  C   LIG    1        2.540   2.130   0.182  0.00  0.00    -0.050 A 
ATOM     12  C   LIG    1        3.075   3.375  -0.093  0.00  0.00    +0.140 A 
ATOM     13  C   LIG    1        2.238   4.452  -0.334  0.00  0.00    -0.030 A 
ATOM     14  C   LIG    1        0.866   4.285  -0.299  0.00  0.00    +0.100 A 
ATOM     15  F   LIG    1        4.415   3.541  -0.128  0.00  0.00    -0.130 F 
ATOM     16  O   LIG    1       -1.128  -0.656   0.436  0.00  0.00    -0.510 OA
ATOM     17  C   LIG    1        0.327   3.044  -0.024  0.00  0.00    -0.120 A 
ENDBRANCH   3   5
BRANCH   1  21
ATOM     18  C   LIG    1       -4.258   2.998   5.687  0.00  0.00    +0.210 A 
ATOM     19  C   LIG    1       -5.063   3.514   4.679  0.00  0.00    -0.050 A 
ATOM     20  C   LIG    1       -4.634   3.480   3.367  0.00  0.00    +0.030 A 
ATOM     21  C   LIG    1       -3.398   2.929   3.055  0.00  0.00    +0.080 A 
ATOM     22  C   LIG    1       -2.596   2.409   4.062  0.00  0.00    +0.060 A 
ATOM     23  C   LIG    1       -3.022   2.448   5.374  0.00  0.00    -0.060 A 
BRANCH  18  24
ATOM     24  N   LIG    1       -4.693   3.034   7.016  0.00  0.00    -0.630 N 
BRANCH  24  26
ATOM     25  C   LIG    1       -2.930   3.592   8.616  0.00  0.00    +0.010 C 
ATOM     26  C   LIG    1       -3.844   2.490   8.079  0.00  0.00    +0.260 C 
ENDBRANCH  24  26
BRANCH  24  27
ATOM     27  C   LIG    1       -5.997   3.615   7.345  0.00  0.00    +0.260 C 
ATOM     28  C   LIG    1       -7.069   2.525   7.292  0.00  0.00    +0.010 C 
ENDBRANCH  24  27
ENDBRANCH  18  24
ENDBRANCH   1  21
TORSDOF 5
