REMARK  Name = ZINCrH00000No54K.0
REMARK                            x       y       z     vdW  Elec       q    Type
REMARK                         _______ _______ _______ _____ _____    ______ ____
ROOT
ATOM      1  C   LIG    1        1.250   2.196   0.002  0.00  0.00    +0.110 A 
ATOM      2  C   LIG    1       -0.022   1.758   0.012  0.00  0.00    -0.100 A 
ATOM      3  S   LIG    1        0.002  -0.004   0.002  0.00  0.00    +0.220 S 
ATOM      4  C   LIG    1        1.763   0.019  -0.015  0.00  0.00    +0.280 A 
ATOM      5  N   LIG    1        2.177   1.248  -0.012  0.00  0.00    -0.500 NA
ENDROOT
BRANCH   1   9
ATOM      6  C   LIG    1        2.229   6.333   0.012  0.00  0.00    -0.680 A 
ATOM      7  C   LIG    1        3.237   5.387  -0.001  0.00  0.00    +0.120 A 
ATOM      8  C   LIG    1        2.926   4.042  -0.005  0.00  0.00    +0.030 A 
ATOM      9  C   LIG    1        1.591   3.639   0.006  0.00  0.00    +0.040 A 
ATOM     10  C   LIG    1        0.579   4.597   0.015  0.00  0.00    +0.010 A 
ATOM     11  C   LIG    1        0.903   5.939   0.022  0.00  0.00    +0.120 A 
BRANCH   6  12
ATOM     12  S   LIG    1        2.635   8.048   0.016  0.00  0.00    +2.690 S 
ATOM     13  O   LIG    1        3.948   8.148   0.549  0.00  0.00    -0.950 OA
ATOM     14  O   LIG    1        1.516   8.724   0.574  0.00  0.00    -0.950 OA
BRANCH  12  16
ATOM     15  C   LIG    1        1.542   9.038  -2.251  0.00  0.00    +0.290 C 
ATOM     16  N   LIG    1        2.733   8.532  -1.564  0.00  0.00    -1.010 NA
ATOM     17  C   LIG    1        4.012   8.454  -2.276  0.00  0.00    +0.310 C 
ENDBRANCH  12  16
ENDBRANCH   6  12
ENDBRANCH   1   9
BRANCH   4  18
ATOM     18  N   LIG    1        2.580  -1.103  -0.029  0.00  0.00    -0.620 N 
ATOM     19  H   LIG    1        3.545  -1.000  -0.037  0.00  0.00    +0.430 HD
ATOM     20  C   LIG    1        2.033  -2.334  -0.029  0.00  0.00    +0.560 C 
ATOM     21  O   LIG    1        0.822  -2.463  -0.018  0.00  0.00    -0.510 OA
BRANCH  20  22
ATOM     22  C   LIG    1        2.867  -3.479  -0.043  0.00  0.00    -0.110 C 
ATOM     23  C   LIG    1        2.318  -4.715  -0.044  0.00  0.00    +0.190 C 
BRANCH  23  24
ATOM     24  C   LIG    1        3.181  -5.901  -0.059  0.00  0.00    -0.120 A 
ATOM     25  C   LIG    1        4.543  -5.840  -0.078  0.00  0.00    -0.050 A 
ATOM     26  S   LIG    1        5.219  -7.405  -0.087  0.00  0.00    +0.190 S 
ATOM     27  C   LIG    1        3.639  -8.169  -0.075  0.00  0.00    -0.060 A 
ATOM     28  C   LIG    1        2.677  -7.255  -0.061  0.00  0.00    +0.040 A 
ENDBRANCH  23  24
ENDBRANCH  20  22
ENDBRANCH   4  18
TORSDOF 6
