REMARK  Name = ZINCkj000005ixyz.0
REMARK                            x       y       z     vdW  Elec       q    Type
REMARK                         _______ _______ _______ _____ _____    ______ ____
ROOT
ATOM      1  N   LIG    1       -3.463  -2.362   2.623  0.00  0.00    -0.730 N 
ATOM      2  H   LIG    1       -3.001  -2.181   3.456  0.00  0.00    +0.410 HD
ATOM      3  C   LIG    1       -2.947  -1.923   1.457  0.00  0.00    +0.520 C 
ATOM      4  O   LIG    1       -3.525  -2.149   0.415  0.00  0.00    -0.520 OA
ENDROOT
BRANCH   1  11
ATOM      5  C   LIG    1       -5.406  -2.996   4.012  0.00  0.00    +0.170 C 
ATOM      6  C   LIG    1       -5.974  -4.421   4.236  0.00  0.00    +0.270 C 
ATOM      7  N   LIG    1       -4.926  -5.301   3.659  0.00  0.00    -0.510 N 
ATOM      8  C   LIG    1       -4.450  -4.615   2.439  0.00  0.00    +0.270 C 
ATOM      9  H   LIG    1       -4.166  -5.413   4.314  0.00  0.00    +0.430 HD
ATOM     10  H   LIG    1       -5.317  -6.200   3.422  0.00  0.00    +0.440 HD
ATOM     11  C   LIG    1       -4.722  -3.111   2.631  0.00  0.00    +0.260 C 
BRANCH   5  13
ATOM     12  C   LIG    1       -6.684  -1.369   5.222  0.00  0.00    +0.240 C 
ATOM     13  O   LIG    1       -6.459  -2.030   3.975  0.00  0.00    -0.350 OA
ENDBRANCH   5  13
ENDBRANCH   1  11
BRANCH   3  14
ATOM     14  C   LIG    1       -1.653  -1.152   1.449  0.00  0.00    +0.060 C 
BRANCH  14  15
ATOM     15  C   LIG    1       -1.293  -0.775   0.010  0.00  0.00    +0.100 C 
BRANCH  15  16
ATOM     16  C   LIG    1        0.002  -0.004   0.002  0.00  0.00    -0.100 A 
ATOM     17  C   LIG    1       -0.017   1.378   0.010  0.00  0.00    +0.010 A 
ATOM     18  C   LIG    1        1.171   2.085   0.002  0.00  0.00    +0.000 A 
ATOM     19  C   LIG    1        2.377   1.411  -0.014  0.00  0.00    -0.080 A 
ATOM     20  C   LIG    1        2.396   0.028  -0.022  0.00  0.00    +0.000 A 
ATOM     21  C   LIG    1        3.672   2.182  -0.022  0.00  0.00    +0.090 C 
ATOM     22  C   LIG    1        1.209  -0.679  -0.014  0.00  0.00    -0.080 A 
ATOM     23  C   LIG    1        1.229  -2.186  -0.022  0.00  0.00    +0.080 C 
ENDBRANCH  15  16
ENDBRANCH  14  15
ENDBRANCH   3  14
TORSDOF 5
