REMARK  Name = ZINCrH000004nIWX.0
REMARK                            x       y       z     vdW  Elec       q    Type
REMARK                         _______ _______ _______ _____ _____    ______ ____
ROOT
ATOM      1  C   LIG    1       -1.677  -0.718  -0.113  0.00  0.00    +0.590 C 
ATOM      2  N   LIG    1       -2.291   0.087  -1.002  0.00  0.00    -0.600 N 
ATOM      3  C   LIG    1       -3.151  -0.358  -2.113  0.00  0.00    +0.260 C 
ATOM      4  C   LIG    1       -4.066   0.855  -2.416  0.00  0.00    +0.030 C 
ATOM      5  C   LIG    1       -3.094   2.046  -2.193  0.00  0.00    +0.050 C 
ATOM      6  C   LIG    1       -2.214   1.555  -1.024  0.00  0.00    +0.230 C 
ATOM      7  O   LIG    1       -1.069  -0.238   0.824  0.00  0.00    -0.500 OA
ENDROOT
BRANCH   1  11
ATOM      8  C   LIG    1       -1.925  -4.905  -0.655  0.00  0.00    -0.040 A 
ATOM      9  C   LIG    1       -2.590  -4.034  -1.451  0.00  0.00    +0.180 A 
ATOM     10  O   LIG    1       -2.495  -2.713  -1.258  0.00  0.00    -0.190 OA
ATOM     11  C   LIG    1       -1.743  -2.188  -0.276  0.00  0.00    +0.090 A 
ATOM     12  C   LIG    1       -1.038  -2.989   0.564  0.00  0.00    -0.040 A 
ATOM     13  C   LIG    1       -1.116  -4.399   0.397  0.00  0.00    +0.410 A 
ATOM     14  O   LIG    1       -0.501  -5.153   1.135  0.00  0.00    -0.450 OA
BRANCH   8  16
ATOM     15  C   LIG    1       -2.861  -6.673  -1.941  0.00  0.00    +0.240 C 
ATOM     16  O   LIG    1       -2.029  -6.246  -0.861  0.00  0.00    -0.280 OA
ENDBRANCH   8  16
ENDBRANCH   1  11
BRANCH   6  17
ATOM     17  C   LIG    1       -0.765   1.997  -1.242  0.00  0.00    +0.020 C 
BRANCH  17  18
ATOM     18  C   LIG    1       -0.661   3.513  -1.061  0.00  0.00    +0.040 C 
ATOM     19  C   LIG    1       -1.431   4.208  -2.182  0.00  0.00    +0.020 C 
ATOM     20  C   LIG    1       -1.138   5.711  -2.109  0.00  0.00    +0.020 C 
ATOM     21  C   LIG    1        0.313   5.940  -2.526  0.00  0.00    +0.060 C 
ATOM     22  C   LIG    1        1.236   5.036  -1.751  0.00  0.00    -0.070 A 
ATOM     23  C   LIG    1        2.587   5.358  -1.726  0.00  0.00    +0.000 A 
ATOM     24  C   LIG    1        3.485   4.563  -1.044  0.00  0.00    +0.000 A 
ATOM     25  C   LIG    1        3.037   3.438  -0.378  0.00  0.00    +0.000 A 
ATOM     26  C   LIG    1        1.695   3.118  -0.399  0.00  0.00    +0.000 A 
ATOM     27  C   LIG    1        0.789   3.917  -1.084  0.00  0.00    -0.070 A 
ENDBRANCH  17  18
ENDBRANCH   6  17
TORSDOF 4
