REMARK  Name = ZINCpk000000nFLu.1
REMARK                            x       y       z     vdW  Elec       q    Type
REMARK                         _______ _______ _______ _____ _____    ______ ____
ROOT
ATOM      1  N   LIG    1       -1.725  -1.018  -1.368  0.00  0.00    -0.730 N 
ATOM      2  H   LIG    1       -1.191  -0.691  -2.109  0.00  0.00    +0.400 HD
ATOM      3  C   LIG    1       -2.866  -1.694  -1.607  0.00  0.00    +0.510 C 
ATOM      4  O   LIG    1       -3.534  -2.103  -0.681  0.00  0.00    -0.520 OA
ENDROOT
BRANCH   1   5
ATOM      5  C   LIG    1       -1.293  -0.775   0.010  0.00  0.00    +0.320 C 
BRANCH   5  10
ATOM      6  C   LIG    1        1.171   2.085   0.002  0.00  0.00    -0.090 A 
ATOM      7  C   LIG    1        2.377   1.411  -0.014  0.00  0.00    +0.030 A 
ATOM      8  C   LIG    1        2.396   0.028  -0.022  0.00  0.00    +0.010 A 
ATOM      9  C   LIG    1        1.209  -0.679  -0.014  0.00  0.00    +0.040 A 
ATOM     10  C   LIG    1        0.002  -0.004   0.002  0.00  0.00    -0.110 A 
ATOM     11  C   LIG    1       -0.017   1.378   0.010  0.00  0.00    +0.040 A 
BRANCH   6  12
ATOM     12  C   LIG    1        1.151   3.592   0.010  0.00  0.00    +0.220 C 
BRANCH  12  13
ATOM     13  O   LIG    1        1.157   4.061   1.360  0.00  0.00    -0.380 OA
BRANCH  13  15
ATOM     14  C   LIG    1       -0.310   5.973   1.538  0.00  0.00    +0.010 C 
ATOM     15  C   LIG    1        1.139   5.485   1.481  0.00  0.00    +0.140 C 
ATOM     16  C   LIG    1        1.867   5.898   2.762  0.00  0.00    +0.040 C 
ENDBRANCH  13  15
ENDBRANCH  12  13
ENDBRANCH   6  12
ENDBRANCH   5  10
ENDBRANCH   1   5
BRANCH   3  17
ATOM     17  C   LIG    1       -3.311  -1.944  -3.025  0.00  0.00    +0.210 C 
BRANCH  17  18
ATOM     18  N   LIG    1       -4.573  -2.696  -3.017  0.00  0.00    -0.520 NA
ATOM     19  C   LIG    1       -4.380  -4.042  -2.464  0.00  0.00    +0.180 C 
ATOM     20  C   LIG    1       -5.736  -4.742  -2.336  0.00  0.00    +0.050 C 
ATOM     21  C   LIG    1       -6.393  -4.826  -3.716  0.00  0.00    -0.020 C 
ATOM     22  C   LIG    1       -6.539  -3.414  -4.291  0.00  0.00    +0.060 C 
ATOM     23  C   LIG    1       -5.160  -2.753  -4.362  0.00  0.00    +0.180 C 
BRANCH  21  24
ATOM     24  C   LIG    1       -7.754  -5.460  -3.587  0.00  0.00    +0.520 C 
ATOM     25  O   LIG    1       -8.744  -4.844  -3.922  0.00  0.00    -0.540 OA
ATOM     26  N   LIG    1       -7.872  -6.711  -3.100  0.00  0.00    -0.860 N 
ATOM     27  H   LIG    1       -8.748  -7.120  -3.018  0.00  0.00    +0.400 HD
ATOM     28  H   LIG    1       -7.080  -7.204  -2.833  0.00  0.00    +0.400 HD
ENDBRANCH  21  24
ENDBRANCH  17  18
ENDBRANCH   3  17
TORSDOF 8
