REMARK  Name = ZINCkj000005hsNS.0
REMARK                            x       y       z     vdW  Elec       q    Type
REMARK                         _______ _______ _______ _____ _____    ______ ____
ROOT
ATOM      1  N   LIG    1       -2.994  -4.849   1.087  0.00  0.00    -0.520 NA
ATOM      2  C   LIG    1       -3.770  -4.186   2.143  0.00  0.00    +0.210 C 
ATOM      3  C   LIG    1       -4.328  -2.863   1.614  0.00  0.00    +0.050 C 
ATOM      4  C   LIG    1       -3.168  -1.968   1.169  0.00  0.00    +0.160 C 
ATOM      5  C   LIG    1       -2.346  -2.700   0.104  0.00  0.00    +0.060 C 
ATOM      6  C   LIG    1       -1.847  -4.028   0.677  0.00  0.00    +0.200 C 
ENDROOT
BRANCH   4   7
ATOM      7  N   LIG    1       -3.700  -0.719   0.606  0.00  0.00    -0.500 N 
ATOM      8  H   LIG    1       -4.219  -0.924  -0.235  0.00  0.00    +0.430 HD
ATOM      9  H   LIG    1       -4.310  -0.280   1.279  0.00  0.00    +0.420 HD
BRANCH   7  10
ATOM     10  C   LIG    1       -2.589   0.187   0.287  0.00  0.00    +0.160 C 
ATOM     11  C   LIG    1       -1.870   0.575   1.581  0.00  0.00    +0.030 C 
ATOM     12  C   LIG    1       -0.768   1.600   1.255  0.00  0.00    +0.010 C 
ATOM     13  C   LIG    1       -0.013   1.086   0.008  0.00  0.00    +0.020 C 
ATOM     14  C   LIG    1       -0.788   1.611  -1.214  0.00  0.00    +0.020 C 
ATOM     15  C   LIG    1       -1.981   2.420  -0.653  0.00  0.00    +0.010 C 
ATOM     16  C   LIG    1       -1.487   2.878   0.745  0.00  0.00    +0.030 C 
ATOM     17  C   LIG    1       -3.135   1.433  -0.413  0.00  0.00    +0.040 C 
ENDBRANCH   7  10
ENDBRANCH   4   7
BRANCH   1  18
ATOM     18  C   LIG    1       -2.559  -6.186   1.514  0.00  0.00    +0.210 C 
BRANCH  18  22
ATOM     19  C   LIG    1       -0.960  -8.903  -0.658  0.00  0.00    +0.290 C 
ATOM     20  N   LIG    1       -1.518  -8.182   0.489  0.00  0.00    -0.730 N 
ATOM     21  H   LIG    1       -1.553  -8.608   1.360  0.00  0.00    +0.400 HD
ATOM     22  C   LIG    1       -1.984  -6.927   0.334  0.00  0.00    +0.510 C 
ATOM     23  O   LIG    1       -1.942  -6.394  -0.755  0.00  0.00    -0.520 OA
ENDBRANCH  18  22
ENDBRANCH   1  18
TORSDOF 4
