REMARK  Name = ZINCrD0000044CTH.0
REMARK                            x       y       z     vdW  Elec       q    Type
REMARK                         _______ _______ _______ _____ _____    ______ ____
ROOT
ATOM      1  C   LIG    1        5.142  -3.430  -0.061  0.00  0.00    -0.040 C 
ATOM      2  C   LIG    1        5.654  -4.867  -0.199  0.00  0.00    +0.320 C 
ATOM      3  N   LIG    1        7.119  -4.859  -0.080  0.00  0.00    -0.620 N 
ATOM      4  C   LIG    1        7.730  -4.225   1.096  0.00  0.00    +0.290 C 
ATOM      5  C   LIG    1        7.194  -2.795   1.219  0.00  0.00    +0.030 C 
ATOM      6  C   LIG    1        7.888  -5.424  -1.032  0.00  0.00    +0.530 C 
ATOM      7  O   LIG    1        7.371  -5.945  -1.999  0.00  0.00    -0.520 OA
ATOM      8  C   LIG    1        5.664  -2.829   1.247  0.00  0.00    +0.300 C 
ATOM      9  F   LIG    1        5.234  -3.612   2.324  0.00  0.00    -0.190 F 
ATOM     10  F   LIG    1        5.171  -1.528   1.391  0.00  0.00    -0.190 F 
ENDROOT
BRANCH   6  11
ATOM     11  C   LIG    1        9.388  -5.409  -0.897  0.00  0.00    +0.020 C 
ATOM     12  C   LIG    1        9.991  -6.678  -1.537  0.00  0.00    +0.050 C 
ATOM     13  C   LIG    1       11.305  -6.184  -2.195  0.00  0.00    +0.020 C 
ATOM     14  C   LIG    1       10.914  -4.786  -2.739  0.00  0.00    +0.050 C 
ATOM     15  C   LIG    1        9.975  -4.215  -1.663  0.00  0.00    -0.120 C 
ATOM     16  C   LIG    1       10.308  -2.909  -0.948  0.00  0.00    +0.030 C 
ATOM     17  C   LIG    1        9.140  -2.968  -1.935  0.00  0.00    +0.020 C 
ENDBRANCH   6  11
BRANCH   1  18
ATOM     18  C   LIG    1        3.612  -3.433  -0.046  0.00  0.00    +0.290 C 
BRANCH  18  20
ATOM     19  C   LIG    1        1.795  -1.809  -0.016  0.00  0.00    +0.590 C 
ATOM     20  N   LIG    1        3.121  -2.053  -0.031  0.00  0.00    -0.730 N 
ATOM     21  H   LIG    1        3.749  -1.314  -0.031  0.00  0.00    +0.400 HD
ATOM     22  O   LIG    1        1.007  -2.735  -0.016  0.00  0.00    -0.540 OA
BRANCH  19  25
ATOM     23  C   LIG    1       -1.209  -0.907   0.020  0.00  0.00    +0.200 C 
ATOM     24  C   LIG    1        0.001  -0.008   0.015  0.00  0.00    +0.080 A 
ATOM     25  C   LIG    1        1.301  -0.421  -0.001  0.00  0.00    -0.250 A 
ATOM     26  C   LIG    1        2.107   0.809   0.001  0.00  0.00    -0.030 A 
ATOM     27  C   LIG    1        1.230   1.824   0.017  0.00  0.00    +0.170 A 
ATOM     28  O   LIG    1       -0.018   1.328   0.025  0.00  0.00    -0.170 OA
ENDBRANCH  19  25
ENDBRANCH  18  20
ENDBRANCH   1  18
TORSDOF 4
