REMARK  Name = ZINCrD000000Ak6p.0
REMARK                            x       y       z     vdW  Elec       q    Type
REMARK                         _______ _______ _______ _____ _____    ______ ____
ROOT
ATOM      1  O   LIG    1       -3.536  -2.101  -0.680  0.00  0.00    -0.540 OA
ATOM      2  C   LIG    1       -2.868  -1.693  -1.606  0.00  0.00    +0.520 C 
ATOM      3  N   LIG    1       -1.726  -1.017  -1.368  0.00  0.00    -0.720 N 
ATOM      4  H   LIG    1       -1.192  -0.691  -2.108  0.00  0.00    +0.400 HD
ENDROOT
BRANCH   3   5
ATOM      5  C   LIG    1       -1.293  -0.774   0.011  0.00  0.00    +0.320 C 
BRANCH   5   6
ATOM      6  C   LIG    1        0.002  -0.004   0.002  0.00  0.00    -0.080 A 
ATOM      7  C   LIG    1        1.208  -0.680  -0.013  0.00  0.00    +0.010 A 
ATOM      8  C   LIG    1        2.399   0.023  -0.021  0.00  0.00    +0.040 A 
ATOM      9  C   LIG    1        2.387   1.404  -0.013  0.00  0.00    -0.020 A 
ATOM     10  C   LIG    1        1.177   2.086   0.002  0.00  0.00    +0.180 A 
ATOM     11  C   LIG    1       -0.017   1.377   0.010  0.00  0.00    +0.030 A 
BRANCH  10  12
ATOM     12  N   LIG    1        1.161   3.486   0.009  0.00  0.00    -0.570 N 
ATOM     13  C   LIG    1        2.349   4.354   0.003  0.00  0.00    +0.260 C 
ATOM     14  C   LIG    1        1.761   5.779   0.015  0.00  0.00    +0.260 C 
ATOM     15  O   LIG    1        0.320   5.566   0.027  0.00  0.00    -0.320 OA
ATOM     16  C   LIG    1        0.063   4.253   0.018  0.00  0.00    +0.640 C 
ATOM     17  O   LIG    1       -1.064   3.797   0.020  0.00  0.00    -0.500 OA
ENDBRANCH  10  12
ENDBRANCH   5   6
ENDBRANCH   3   5
BRANCH   2  18
ATOM     18  C   LIG    1       -3.314  -1.942  -3.024  0.00  0.00    +0.040 C 
BRANCH  18  19
ATOM     19  C   LIG    1       -4.628  -2.724  -3.015  0.00  0.00    +0.320 C 
BRANCH  19  20
ATOM     20  N   LIG    1       -5.062  -2.966  -4.393  0.00  0.00    -0.490 N 
ATOM     21  C   LIG    1       -5.948  -2.188  -5.087  0.00  0.00    +0.220 A 
ATOM     22  C   LIG    1       -6.124  -2.684  -6.322  0.00  0.00    -0.050 A 
ATOM     23  C   LIG    1       -5.290  -3.884  -6.424  0.00  0.00    -0.110 A 
ATOM     24  C   LIG    1       -5.052  -4.817  -7.435  0.00  0.00    +0.050 A 
ATOM     25  C   LIG    1       -4.193  -5.856  -7.211  0.00  0.00    -0.030 A 
ATOM     26  C   LIG    1       -3.553  -5.989  -5.987  0.00  0.00    +0.020 A 
ATOM     27  C   LIG    1       -3.772  -5.079  -4.976  0.00  0.00    -0.010 A 
ATOM     28  C   LIG    1       -4.643  -4.014  -5.182  0.00  0.00    +0.100 A 
ENDBRANCH  19  20
ENDBRANCH  18  19
ENDBRANCH   2  18
TORSDOF 6
