REMARK  Name = ZINCrD0000071f3F.0
REMARK                            x       y       z     vdW  Elec       q    Type
REMARK                         _______ _______ _______ _____ _____    ______ ____
ROOT
ATOM      1  C   LIG    1        0.256   0.907   4.905  0.00  0.00    +0.360 C 
ENDROOT
BRANCH   1   6
ATOM      2  C   LIG    1       -1.098   2.610   7.916  0.00  0.00    +0.130 C 
ATOM      3  N   LIG    1       -1.870   1.359   7.814  0.00  0.00    -0.720 N 
ATOM      4  H   LIG    1       -2.574   1.063   8.411  0.00  0.00    +0.440 HD
ATOM      5  C   LIG    1       -1.408   0.710   6.730  0.00  0.00    +0.710 C 
ATOM      6  N   LIG    1       -0.430   1.380   6.110  0.00  0.00    -0.560 N 
ATOM      7  O   LIG    1       -1.833  -0.366   6.355  0.00  0.00    -0.540 OA
ATOM      8  C   LIG    1       -2.022   3.824   7.803  0.00  0.00    +0.080 C 
ATOM      9  C   LIG    1       -0.150   2.541   6.735  0.00  0.00    +0.540 C 
ATOM     10  O   LIG    1        0.686   3.360   6.418  0.00  0.00    -0.460 OA
BRANCH   2  11
ATOM     11  C   LIG    1       -0.313   2.652   9.229  0.00  0.00    +0.050 C 
BRANCH  11  12
ATOM     12  C   LIG    1       -1.278   2.484  10.405  0.00  0.00    +0.020 C 
BRANCH  12  14
ATOM     13  C   LIG    1       -1.468   2.484  12.896  0.00  0.00    +0.020 C 
ATOM     14  C   LIG    1       -0.493   2.527  11.717  0.00  0.00    -0.030 C 
ATOM     15  C   LIG    1        0.447   1.322  11.789  0.00  0.00    +0.020 C 
ENDBRANCH  12  14
ENDBRANCH  11  12
ENDBRANCH   2  11
ENDBRANCH   1   6
BRANCH   1  16
ATOM     16  C   LIG    1       -0.473   1.407   3.684  0.00  0.00    +0.500 C 
ATOM     17  N   LIG    1       -0.020   1.094   2.454  0.00  0.00    -0.730 N 
ATOM     18  H   LIG    1        0.775   0.547   2.354  0.00  0.00    +0.400 HD
ATOM     19  O   LIG    1       -1.468   2.090   3.808  0.00  0.00    -0.520 OA
BRANCH  17  20
ATOM     20  C   LIG    1       -0.729   1.579   1.267  0.00  0.00    +0.270 C 
BRANCH  20  21
ATOM     21  C   LIG    1       -0.013   1.086   0.008  0.00  0.00    +0.080 C 
BRANCH  21  22
ATOM     22  C   LIG    1       -0.742   1.585  -1.213  0.00  0.00    -0.070 A 
ATOM     23  C   LIG    1       -0.270   2.690  -1.896  0.00  0.00    +0.050 A 
ATOM     24  C   LIG    1       -0.937   3.148  -3.016  0.00  0.00    +0.040 A 
ATOM     25  C   LIG    1       -2.079   2.501  -3.454  0.00  0.00    -0.020 A 
ATOM     26  C   LIG    1       -2.552   1.395  -2.771  0.00  0.00    +0.050 A 
ATOM     27 CL   LIG    1       -2.917   3.077  -4.861  0.00  0.00    -0.050 Cl
ATOM     28  C   LIG    1       -1.880   0.933  -1.653  0.00  0.00    -0.020 A 
ATOM     29 CL   LIG    1       -2.469  -0.459  -0.800  0.00  0.00    -0.050 Cl
ENDBRANCH  21  22
ENDBRANCH  20  21
ENDBRANCH  17  20
ENDBRANCH   1  16
TORSDOF 8
