REMARK  Name = ZINCpe00000MJIlM.0
REMARK                            x       y       z     vdW  Elec       q    Type
REMARK                         _______ _______ _______ _____ _____    ______ ____
ROOT
ATOM      1  C   LIG    1        1.384   3.462  -0.231  0.00  0.00    +0.140 C 
ATOM      2  C   LIG    1        0.796   3.794  -1.621  0.00  0.00    +0.040 C 
ATOM      3  C   LIG    1        1.721   4.933  -2.124  0.00  0.00    +0.180 C 
ATOM      4  N   LIG    1        3.061   4.530  -1.624  0.00  0.00    -0.490 NA
ATOM      5  C   LIG    1        2.836   3.972  -0.273  0.00  0.00    +0.190 C 
ENDROOT
BRANCH   1   6
ATOM      6  N   LIG    1        1.360   2.011  -0.000  0.00  0.00    -0.530 NA
ATOM      7  C   LIG    1        2.058   1.664   1.245  0.00  0.00    +0.200 C 
BRANCH   6   8
ATOM      8  C   LIG    1       -0.018   1.503   0.010  0.00  0.00    +0.350 C 
BRANCH   8  13
ATOM      9  C   LIG    1        0.033  -3.307  -1.480  0.00  0.00    +0.240 C 
ATOM     10  C   LIG    1        0.024  -2.059  -0.635  0.00  0.00    +0.170 A 
ATOM     11  N   LIG    1        0.036  -2.010   0.667  0.00  0.00    -0.290 NA
ATOM     12  N   LIG    1        0.028  -0.780   1.048  0.00  0.00    -0.280 NA
ATOM     13  C   LIG    1        0.002  -0.004   0.002  0.00  0.00    +0.170 A 
ATOM     14  O   LIG    1        0.003  -0.793  -1.085  0.00  0.00    -0.220 OA
ENDBRANCH   8  13
ENDBRANCH   6   8
ENDBRANCH   1   6
BRANCH   4  15
ATOM     15  C   LIG    1        3.972   5.681  -1.574  0.00  0.00    +0.210 C 
BRANCH  15  16
ATOM     16  C   LIG    1        3.985   6.371  -2.914  0.00  0.00    +0.510 C 
ATOM     17  N   LIG    1        4.755   7.460  -3.103  0.00  0.00    -0.720 N 
ATOM     18  H   LIG    1        5.301   7.801  -2.377  0.00  0.00    +0.410 HD
ATOM     19  O   LIG    1        3.303   5.945  -3.822  0.00  0.00    -0.500 OA
BRANCH  17  20
ATOM     20  C   LIG    1        4.769   8.130  -4.406  0.00  0.00    +0.280 C 
ATOM     21  C   LIG    1        5.314   7.174  -5.487  0.00  0.00    +0.050 C 
ATOM     22  C   LIG    1        6.146   8.090  -6.419  0.00  0.00    +0.020 C 
ATOM     23  C   LIG    1        6.811   9.076  -5.426  0.00  0.00    +0.040 C 
ATOM     24  C   LIG    1        5.720   9.339  -4.368  0.00  0.00    +0.050 C 
BRANCH  20  25
ATOM     25  C   LIG    1        3.409   8.570  -4.760  0.00  0.00    +0.200 C 
ATOM     26  N   LIG    1        2.360   8.909  -5.034  0.00  0.00    -0.410 NA
ENDBRANCH  20  25
ENDBRANCH  17  20
ENDBRANCH  15  16
ENDBRANCH   4  15
TORSDOF 7
