REMARK  Name = ZINCvU00000006uz.0
REMARK                            x       y       z     vdW  Elec       q    Type
REMARK                         _______ _______ _______ _____ _____    ______ ____
ROOT
ATOM      1  C   LIG    1       -1.298   2.063   0.004  0.00  0.00    +0.050 A 
ATOM      2  C   LIG    1       -1.472   3.425   0.121  0.00  0.00    +0.020 A 
ATOM      3  C   LIG    1       -2.853   3.681   0.104  0.00  0.00    +0.140 A 
ATOM      4  N   LIG    1       -3.490   2.531  -0.009  0.00  0.00    -0.230 NA
ATOM      5  N   LIG    1       -2.545   1.499  -0.074  0.00  0.00    -0.290 N 
ENDROOT
BRANCH   5   6
ATOM      6  C   LIG    1       -2.825   0.134  -0.197  0.00  0.00    +0.130 A 
ATOM      7  C   LIG    1       -3.769  -0.303  -1.118  0.00  0.00    +0.040 A 
ATOM      8  C   LIG    1       -4.038  -1.652  -1.242  0.00  0.00    +0.040 A 
ATOM      9  C   LIG    1       -3.379  -2.567  -0.441  0.00  0.00    +0.030 A 
ATOM     10  C   LIG    1       -2.443  -2.134   0.482  0.00  0.00    +0.020 A 
ATOM     11  C   LIG    1       -2.164  -0.787   0.606  0.00  0.00    +0.040 A 
ENDBRANCH   5   6
BRANCH   3  12
ATOM     12  C   LIG    1       -3.486   5.014   0.202  0.00  0.00    -0.130 A 
ATOM     13  C   LIG    1       -4.813   5.248   0.185  0.00  0.00    +0.050 A 
ATOM     14  C   LIG    1       -5.165   6.578   0.295  0.00  0.00    +0.010 A 
ATOM     15  C   LIG    1       -4.140   7.429   0.392  0.00  0.00    -0.030 A 
ATOM     16  S   LIG    1       -2.624   6.540   0.352  0.00  0.00    +0.150 S 
ENDBRANCH   3  12
BRANCH   1  18
ATOM     17  O   LIG    1        1.022   1.950   0.169  0.00  0.00    -0.470 OA
ATOM     18  C   LIG    1       -0.015   1.347  -0.027  0.00  0.00    +0.540 C 
BRANCH  18  19
ATOM     19  O   LIG    1        0.012   0.022  -0.277  0.00  0.00    -0.340 OA
BRANCH  19  20
ATOM     20  C   LIG    1        1.315  -0.618  -0.297  0.00  0.00    +0.410 C 
BRANCH  20  21
ATOM     21  C   LIG    1        1.149  -2.087  -0.590  0.00  0.00    +0.150 A 
ATOM     22  N   LIG    1        1.144  -2.641  -1.770  0.00  0.00    -0.240 NA
ATOM     23  N   LIG    1        0.980  -3.911  -1.648  0.00  0.00    -0.270 NA
ATOM     24  C   LIG    1        0.874  -4.213  -0.375  0.00  0.00    +0.230 A 
ATOM     25  O   LIG    1        0.984  -3.063   0.319  0.00  0.00    -0.210 OA
BRANCH  24  26
ATOM     26  C   LIG    1        0.675  -5.564   0.192  0.00  0.00    -0.030 A 
ATOM     27  C   LIG    1        0.585  -5.738   1.574  0.00  0.00    +0.050 A 
ATOM     28  C   LIG    1        0.394  -7.001   2.096  0.00  0.00    +0.010 A 
ATOM     29  C   LIG    1        0.305  -8.095   1.254  0.00  0.00    +0.040 A 
ATOM     30  C   LIG    1        0.399  -7.930  -0.117  0.00  0.00    +0.020 A 
ATOM     31  C   LIG    1        0.584  -6.672  -0.652  0.00  0.00    +0.080 A 
ENDBRANCH  24  26
ENDBRANCH  20  21
ENDBRANCH  19  20
ENDBRANCH  18  19
ENDBRANCH   1  18
TORSDOF 7
