REMARK  Name = ZINCrD0000075uKk.0
REMARK                            x       y       z     vdW  Elec       q    Type
REMARK                         _______ _______ _______ _____ _____    ______ ____
ROOT
ATOM      1  C   LIG    1       -0.298   1.288   4.876  0.00  0.00    +0.520 C 
ATOM      2  N   LIG    1       -0.804   1.637   6.076  0.00  0.00    -0.610 N 
ATOM      3  C   LIG    1       -2.009   2.472   6.166  0.00  0.00    +0.260 C 
ATOM      4  C   LIG    1       -3.035   1.755   7.056  0.00  0.00    +0.020 C 
ATOM      5  C   LIG    1       -2.392   1.432   8.407  0.00  0.00    +0.000 C 
ATOM      6  C   LIG    1       -1.201   0.495   8.196  0.00  0.00    +0.020 C 
ATOM      7  C   LIG    1       -0.157   1.194   7.318  0.00  0.00    +0.280 C 
ATOM      8  O   LIG    1        0.700   0.602   4.815  0.00  0.00    -0.520 OA
ENDROOT
BRANCH   1   9
ATOM      9  C   LIG    1       -0.974   1.750   3.611  0.00  0.00    +0.250 C 
BRANCH   9  10
ATOM     10  O   LIG    1       -0.243   1.247   2.461  0.00  0.00    -0.330 OA
BRANCH  10  12
ATOM     11  O   LIG    1       -1.711   2.254   1.150  0.00  0.00    -0.500 OA
ATOM     12  C   LIG    1       -0.718   1.572   1.248  0.00  0.00    +0.460 C 
BRANCH  12  13
ATOM     13  C   LIG    1       -0.013   1.086   0.008  0.00  0.00    +0.170 C 
BRANCH  13  14
ATOM     14  C   LIG    1       -0.742   1.585  -1.213  0.00  0.00    -0.090 A 
ATOM     15  C   LIG    1       -1.750   0.824  -1.775  0.00  0.00    +0.060 A 
ATOM     16  C   LIG    1       -2.423   1.284  -2.891  0.00  0.00    -0.010 A 
ATOM     17  C   LIG    1       -2.079   2.501  -3.454  0.00  0.00    +0.100 A 
ATOM     18  C   LIG    1       -1.065   3.260  -2.893  0.00  0.00    -0.010 A 
ATOM     19  F   LIG    1       -2.732   2.948  -4.549  0.00  0.00    -0.140 F 
ATOM     20  C   LIG    1       -0.398   2.801  -1.774  0.00  0.00    +0.060 A 
ENDBRANCH  13  14
ENDBRANCH  12  13
ENDBRANCH  10  12
ENDBRANCH   9  10
ENDBRANCH   1   9
BRANCH   5  21
ATOM     21  C   LIG    1       -3.421   0.751   9.312  0.00  0.00    +0.070 C 
BRANCH  21  22
ATOM     22  C   LIG    1       -4.536   1.717   9.620  0.00  0.00    -0.080 A 
ATOM     23  C   LIG    1       -4.454   2.537  10.730  0.00  0.00    +0.000 A 
ATOM     24  C   LIG    1       -5.474   3.426  11.010  0.00  0.00    +0.000 A 
ATOM     25  C   LIG    1       -6.582   3.489  10.186  0.00  0.00    +0.000 A 
ATOM     26  C   LIG    1       -6.667   2.665   9.079  0.00  0.00    +0.000 A 
ATOM     27  C   LIG    1       -5.644   1.780   8.796  0.00  0.00    +0.000 A 
ENDBRANCH  21  22
ENDBRANCH   5  21
TORSDOF 7
