REMARK  Name = ZINCvU0000000FUA.0
REMARK                            x       y       z     vdW  Elec       q    Type
REMARK                         _______ _______ _______ _____ _____    ______ ____
ROOT
ATOM      1  C   LIG    1       -1.399  -0.599  -2.668  0.00  0.00    +0.120 C 
ATOM      2  C   LIG    1        0.075  -0.743  -2.393  0.00  0.00    +0.010 A 
ATOM      3  C   LIG    1        0.997  -1.152  -3.282  0.00  0.00    +0.000 A 
ATOM      4  C   LIG    1        2.284  -1.145  -2.575  0.00  0.00    -0.260 A 
ATOM      5  C   LIG    1        2.009  -0.714  -1.291  0.00  0.00    +0.120 A 
ATOM      6  C   LIG    1        3.014  -0.540  -0.182  0.00  0.00    +0.150 C 
ATOM      7  N   LIG    1        0.688  -0.476  -1.203  0.00  0.00    -0.430 N 
ENDROOT
BRANCH   4   8
ATOM      8  C   LIG    1        3.592  -1.517  -3.120  0.00  0.00    +0.450 C 
ATOM      9  O   LIG    1        4.580  -1.462  -2.417  0.00  0.00    -0.460 OA
BRANCH   8  10
ATOM     10  C   LIG    1        3.711  -1.968  -4.553  0.00  0.00    +0.090 C 
BRANCH  10  11
ATOM     11  S   LIG    1        5.444  -2.355  -4.923  0.00  0.00    +0.090 S 
BRANCH  11  12
ATOM     12  C   LIG    1        5.387  -2.854  -6.612  0.00  0.00    +0.240 A 
ATOM     13  N   LIG    1        6.425  -3.236  -7.329  0.00  0.00    -0.310 NA
ATOM     14  N   LIG    1        5.947  -3.546  -8.609  0.00  0.00    -0.330 N 
ATOM     15  C   LIG    1        6.548  -3.984  -9.745  0.00  0.00    +0.210 A 
ATOM     16  C   LIG    1        5.790  -4.196 -10.853  0.00  0.00    -0.050 A 
ATOM     17  C   LIG    1        4.412  -3.960 -10.794  0.00  0.00    +0.240 A 
ATOM     18  N   LIG    1        3.860  -3.536  -9.679  0.00  0.00    -0.470 NA
ATOM     19  C   LIG    1        3.558  -4.191 -12.014  0.00  0.00    +0.180 C 
ATOM     20  C   LIG    1        8.034  -4.230  -9.777  0.00  0.00    +0.170 C 
ATOM     21  C   LIG    1        4.598  -3.324  -8.584  0.00  0.00    +0.460 A 
ATOM     22  N   LIG    1        4.287  -2.911  -7.360  0.00  0.00    -0.530 NA
ENDBRANCH  11  12
ENDBRANCH  10  11
ENDBRANCH   8  10
ENDBRANCH   4   8
BRANCH   7  23
ATOM     23  C   LIG    1        0.002  -0.004   0.002  0.00  0.00    +0.300 C 
BRANCH  23  24
ATOM     24  C   LIG    1       -0.019   1.526   0.010  0.00  0.00    +0.070 C 
BRANCH  24  25
ATOM     25  C   LIG    1       -0.724   2.012   1.250  0.00  0.00    -0.080 A 
ATOM     26  C   LIG    1       -2.089   2.229   1.228  0.00  0.00    +0.030 A 
ATOM     27  C   LIG    1       -2.737   2.670   2.366  0.00  0.00    +0.030 A 
ATOM     28  C   LIG    1       -2.018   2.905   3.525  0.00  0.00    -0.030 A 
ATOM     29  C   LIG    1       -0.651   2.692   3.545  0.00  0.00    +0.030 A 
ATOM     30 CL   LIG    1       -2.830   3.466   4.953  0.00  0.00    -0.070 Cl
ATOM     31  C   LIG    1       -0.005   2.245   2.408  0.00  0.00    +0.030 A 
ENDBRANCH  24  25
ENDBRANCH  23  24
ENDBRANCH   7  23
TORSDOF 7
