REMARK  Name = ZINCqH0000008JJB.0
REMARK                            x       y       z     vdW  Elec       q    Type
REMARK                         _______ _______ _______ _____ _____    ______ ____
ROOT
ATOM      1  C   LIG    1       -0.614  -2.186  -1.077  0.00  0.00    -0.160 A 
ATOM      2  C   LIG    1        0.089  -2.961  -0.152  0.00  0.00    +0.060 A 
ATOM      3  C   LIG    1        0.064  -4.336  -0.247  0.00  0.00    -0.010 A 
ATOM      4  C   LIG    1       -0.655  -4.954  -1.257  0.00  0.00    +0.050 A 
ATOM      5  C   LIG    1       -1.354  -4.201  -2.179  0.00  0.00    +0.020 A 
ATOM      6  C   LIG    1       -1.345  -2.816  -2.095  0.00  0.00    +0.220 A 
ENDROOT
BRANCH   1  13
ATOM      7  C   LIG    1        4.132  -0.961  -1.904  0.00  0.00    +0.030 C 
ATOM      8  C   LIG    1        2.758  -0.295  -2.014  0.00  0.00    -0.030 C 
ATOM      9  C   LIG    1        2.914   1.222  -1.894  0.00  0.00    +0.030 C 
ATOM     10  C   LIG    1        1.544   1.890  -2.037  0.00  0.00    -0.030 C 
ATOM     11  C   LIG    1        0.626   1.409  -0.910  0.00  0.00    +0.270 C 
ATOM     12  N   LIG    1        0.586  -0.060  -0.928  0.00  0.00    -0.600 N 
ATOM     13  C   LIG    1       -0.592  -0.714  -0.981  0.00  0.00    +0.560 C 
ATOM     14  O   LIG    1       -1.635  -0.091  -0.949  0.00  0.00    -0.530 OA
ATOM     15  C   LIG    1        0.933   1.518  -3.389  0.00  0.00    +0.010 C 
ATOM     16  C   LIG    1        1.853  -0.802  -0.886  0.00  0.00    +0.270 C 
ENDBRANCH   1  13
BRANCH   6  17
ATOM     17  N   LIG    1       -2.054  -2.054  -3.021  0.00  0.00    -0.680 N 
ATOM     18  H   LIG    1       -1.724  -1.182  -3.287  0.00  0.00    +0.410 HD
ATOM     19  C   LIG    1       -3.201  -2.529  -3.547  0.00  0.00    +0.710 C 
ATOM     20  N   LIG    1       -3.928  -1.760  -4.382  0.00  0.00    -0.730 N 
ATOM     21  H   LIG    1       -3.626  -0.866  -4.605  0.00  0.00    +0.400 HD
ATOM     22  O   LIG    1       -3.579  -3.650  -3.268  0.00  0.00    -0.570 OA
BRANCH  20  23
ATOM     23  C   LIG    1       -5.174  -2.276  -4.954  0.00  0.00    +0.370 C 
BRANCH  23  24
ATOM     24  C   LIG    1       -5.788  -1.229  -5.847  0.00  0.00    -0.210 A 
ATOM     25  C   LIG    1       -5.566  -1.067  -7.164  0.00  0.00    +0.190 A 
ATOM     26  O   LIG    1       -6.299  -0.028  -7.593  0.00  0.00    -0.170 OA
ATOM     27  C   LIG    1       -6.995   0.485  -6.565  0.00  0.00    +0.170 A 
ATOM     28  C   LIG    1       -6.714  -0.232  -5.463  0.00  0.00    -0.050 A 
ENDBRANCH  23  24
ENDBRANCH  20  23
ENDBRANCH   6  17
TORSDOF 4
