REMARK  Name = ZINCpk000000nlI7.1
REMARK                            x       y       z     vdW  Elec       q    Type
REMARK                         _______ _______ _______ _____ _____    ______ ____
ROOT
ATOM      1  C   LIG    1        0.111  -5.004   2.886  0.00  0.00    +0.530 C 
ATOM      2  N   LIG    1       -0.702  -5.586   3.791  0.00  0.00    -0.620 N 
ATOM      3  C   LIG    1       -2.026  -5.093   4.196  0.00  0.00    +0.230 C 
ATOM      4  C   LIG    1       -2.569  -6.063   5.266  0.00  0.00    +0.060 C 
ATOM      5  C   LIG    1       -1.279  -6.725   5.819  0.00  0.00    -0.010 C 
ATOM      6  C   LIG    1       -0.407  -6.820   4.542  0.00  0.00    +0.260 C 
ATOM      7  O   LIG    1        1.189  -5.498   2.633  0.00  0.00    -0.530 OA
ENDROOT
BRANCH   1   8
ATOM      8  C   LIG    1       -0.320  -3.739   2.191  0.00  0.00    +0.070 C 
BRANCH   8   9
ATOM      9  C   LIG    1        0.776  -3.291   1.222  0.00  0.00    +0.220 C 
BRANCH   9  13
ATOM     10  C   LIG    1        0.002  -0.004   0.002  0.00  0.00    +0.180 A 
ATOM     11  N   LIG    1       -0.525  -0.775  -0.901  0.00  0.00    -0.380 NA
ATOM     12  O   LIG    1       -0.334  -1.940  -0.622  0.00  0.00    +0.080 OA
ATOM     13  C   LIG    1        0.345  -2.025   0.526  0.00  0.00    +0.180 A 
ATOM     14  N   LIG    1        0.564  -0.798   0.931  0.00  0.00    -0.470 NA
BRANCH  10  16
ATOM     15  C   LIG    1        1.417   2.032  -0.001  0.00  0.00    +0.060 C 
ATOM     16  C   LIG    1       -0.018   1.503   0.010  0.00  0.00    +0.020 C 
ATOM     17  C   LIG    1       -0.735   1.996   1.269  0.00  0.00    +0.060 C 
ATOM     18  C   LIG    1       -0.758   2.010  -1.229  0.00  0.00    +0.050 C 
ENDBRANCH  10  16
ENDBRANCH   9  13
ENDBRANCH   8   9
ENDBRANCH   1   8
BRANCH   5  19
ATOM     19  C   LIG    1       -1.575  -8.115   6.385  0.00  0.00    +0.190 C 
BRANCH  19  20
ATOM     20  N   LIG    1       -2.300  -7.982   7.656  0.00  0.00    -0.530 NA
ATOM     21  C   LIG    1       -1.450  -7.365   8.685  0.00  0.00    +0.140 C 
ATOM     22  C   LIG    1       -2.261  -7.191   9.972  0.00  0.00    +0.220 C 
ATOM     23  O   LIG    1       -2.773  -8.461  10.382  0.00  0.00    -0.390 OA
ATOM     24  C   LIG    1       -3.606  -9.090   9.404  0.00  0.00    +0.220 C 
ATOM     25  C   LIG    1       -2.808  -9.284   8.112  0.00  0.00    +0.150 C 
ENDBRANCH  19  20
ENDBRANCH   5  19
TORSDOF 6
