REMARK  Name = ZINCnE00000hdccv.0
REMARK                            x       y       z     vdW  Elec       q    Type
REMARK                         _______ _______ _______ _____ _____    ______ ____
ROOT
ATOM      1  O   LIG    1        3.778  -1.864  -0.044  0.00  0.00    -0.540 OA
ATOM      2  C   LIG    1        3.705  -0.651  -0.037  0.00  0.00    +0.550 A 
ATOM      3  C   LIG    1        2.396   0.028  -0.021  0.00  0.00    -0.240 A 
ATOM      4  C   LIG    1        1.201  -0.686  -0.013  0.00  0.00    +0.090 A 
ATOM      5  C   LIG    1        0.002  -0.004   0.002  0.00  0.00    -0.070 A 
ATOM      6  C   LIG    1       -0.017   1.382   0.010  0.00  0.00    +0.050 A 
ATOM      7  C   LIG    1        1.162   2.102   0.002  0.00  0.00    -0.010 A 
ATOM      8  C   LIG    1        2.376   1.434  -0.013  0.00  0.00    +0.190 A 
ATOM      9  N   LIG    1        3.583   2.119  -0.021  0.00  0.00    -0.570 NA
ATOM     10  C   LIG    1        4.749   1.451  -0.036  0.00  0.00    +0.510 A 
ATOM     11  S   LIG    1        6.207   2.349  -0.046  0.00  0.00    -0.730 S 
ATOM     12  N   LIG    1        4.820   0.111  -0.044  0.00  0.00    -0.530 N 
ENDROOT
BRANCH  12  13
ATOM     13  C   LIG    1        6.133  -0.538  -0.060  0.00  0.00    +0.310 C 
BRANCH  13  14
ATOM     14  C   LIG    1        6.605  -0.772   1.377  0.00  0.00    +0.090 C 
BRANCH  14  15
ATOM     15  C   LIG    1        7.955  -1.440   1.361  0.00  0.00    -0.150 A 
ATOM     16  C   LIG    1        8.196  -2.757   1.452  0.00  0.00    +0.210 A 
ATOM     17  N   LIG    1        9.543  -2.991   1.397  0.00  0.00    -0.600 N 
ATOM     18  H   LIG    1        9.959  -3.866   1.441  0.00  0.00    +0.410 HD
ATOM     19  C   LIG    1       10.220  -1.798   1.277  0.00  0.00    +0.090 A 
ATOM     20  C   LIG    1       11.568  -1.467   1.187  0.00  0.00    -0.030 A 
ATOM     21  C   LIG    1       11.942  -0.146   1.073  0.00  0.00    +0.020 A 
ATOM     22  C   LIG    1       10.986   0.861   1.046  0.00  0.00    -0.040 A 
ATOM     23  C   LIG    1        9.657   0.558   1.132  0.00  0.00    +0.090 A 
ATOM     24  C   LIG    1        9.255  -0.774   1.249  0.00  0.00    -0.100 A 
ENDBRANCH  14  15
ENDBRANCH  13  14
ENDBRANCH  12  13
TORSDOF 3
