REMARK  Name = ZINCvU0000000Gja.0
REMARK                            x       y       z     vdW  Elec       q    Type
REMARK                         _______ _______ _______ _____ _____    ______ ____
ROOT
ATOM      1  C   LIG    1        1.290   4.302  -2.845  0.00  0.00    +0.050 A 
ATOM      2  C   LIG    1        2.575   4.842  -2.794  0.00  0.00    -0.040 A 
ATOM      3  C   LIG    1        3.487   4.392  -1.737  0.00  0.00    +0.330 A 
ATOM      4  N   LIG    1        4.733   4.726  -1.455  0.00  0.00    -0.490 NA
ATOM      5  C   LIG    1        5.156   4.033  -0.371  0.00  0.00    +0.090 A 
ATOM      6  C   LIG    1        6.364   4.003   0.335  0.00  0.00    +0.060 A 
ATOM      7  C   LIG    1        6.498   3.174   1.425  0.00  0.00    +0.030 A 
ATOM      8  C   LIG    1        5.444   2.366   1.830  0.00  0.00    +0.010 A 
ATOM      9  C   LIG    1        4.247   2.383   1.145  0.00  0.00    +0.050 A 
ATOM     10  C   LIG    1        4.092   3.212   0.044  0.00  0.00    +0.020 A 
ATOM     11  N   LIG    1        3.047   3.459  -0.830  0.00  0.00    -0.400 N 
ATOM     12  C   LIG    1        1.782   2.950  -0.918  0.00  0.00    +0.410 A 
ATOM     13  C   LIG    1        0.909   3.359  -1.901  0.00  0.00    -0.020 A 
ENDROOT
BRANCH  12  14
ATOM     14  N   LIG    1        1.369   2.014  -0.000  0.00  0.00    -0.670 N 
ATOM     15  C   LIG    1        0.725   2.423   1.257  0.00  0.00    +0.290 C 
ATOM     16  C   LIG    1       -0.581   1.636   1.413  0.00  0.00    +0.200 C 
ATOM     17  N   LIG    1       -0.299   0.199   1.297  0.00  0.00    -0.480 N 
ATOM     18  C   LIG    1        0.222  -0.137  -0.034  0.00  0.00    +0.200 C 
ATOM     19  C   LIG    1        1.561   0.578  -0.249  0.00  0.00    +0.300 C 
BRANCH  17  20
ATOM     20  C   LIG    1       -1.434  -0.559   1.596  0.00  0.00    +0.120 A 
ATOM     21  C   LIG    1       -1.378  -1.946   1.544  0.00  0.00    -0.010 A 
ATOM     22  C   LIG    1       -2.502  -2.693   1.840  0.00  0.00    +0.060 A 
ATOM     23  C   LIG    1       -3.682  -2.062   2.187  0.00  0.00    -0.010 A 
ATOM     24  C   LIG    1       -3.742  -0.680   2.239  0.00  0.00    -0.010 A 
ATOM     25 CL   LIG    1       -5.226   0.108   2.675  0.00  0.00    -0.070 Cl
ATOM     26  C   LIG    1       -2.620   0.073   1.950  0.00  0.00    -0.020 A 
ENDBRANCH  17  20
ENDBRANCH  12  14
BRANCH   2  27
ATOM     27  C   LIG    1        2.996   5.817  -3.755  0.00  0.00    +0.270 C 
ATOM     28  N   LIG    1        3.330   6.590  -4.517  0.00  0.00    -0.400 NA
ENDBRANCH   2  27
BRANCH   1  29
ATOM     29  C   LIG    1        0.324   4.739  -3.916  0.00  0.00    +0.080 C 
BRANCH  29  31
ATOM     30  C   LIG    1       -0.596   4.203  -6.176  0.00  0.00    +0.030 C 
ATOM     31  C   LIG    1        0.385   3.759  -5.089  0.00  0.00    +0.020 C 
ENDBRANCH  29  31
ENDBRANCH   1  29
TORSDOF 5
