REMARK  Name = ZINCpe000000WYiG.0
REMARK                            x       y       z     vdW  Elec       q    Type
REMARK                         _______ _______ _______ _____ _____    ______ ____
ROOT
ATOM      1  C   LIG    1       -1.423  -0.561   0.074  0.00  0.00    +0.060 C 
ATOM      2  C   LIG    1        0.006  -0.020  -0.005  0.00  0.00    +0.240 C 
ATOM      3  C   LIG    1       -0.035   1.485  -0.146  0.00  0.00    -0.010 C 
ATOM      4  C   LIG    1        1.349   2.123  -0.154  0.00  0.00    +0.220 C 
ATOM      5  N   LIG    1        2.083   1.787  -1.374  0.00  0.00    -0.500 N 
ATOM      6  C   LIG    1        2.786   0.575  -1.225  0.00  0.00    +0.090 A 
ATOM      7  C   LIG    1        4.171   0.580  -1.182  0.00  0.00    +0.060 A 
ATOM      8  C   LIG    1        4.858  -0.618  -1.098  0.00  0.00    +0.020 A 
ATOM      9  C   LIG    1        4.168  -1.815  -1.057  0.00  0.00    +0.020 A 
ATOM     10  C   LIG    1        2.785  -1.825  -1.087  0.00  0.00    +0.010 A 
ATOM     11  C   LIG    1        2.091  -0.628  -1.161  0.00  0.00    +0.090 A 
ATOM     12  C   LIG    1        1.182   1.734  -2.533  0.00  0.00    +0.200 C 
ATOM     13  N   LIG    1        0.688  -0.618  -1.165  0.00  0.00    -0.560 N 
ATOM     14  C   LIG    1       -0.010  -1.138  -2.194  0.00  0.00    +0.510 C 
ATOM     15  O   LIG    1       -1.218  -1.030  -2.223  0.00  0.00    -0.500 OA
ENDROOT
BRANCH  14  16
ATOM     16  C   LIG    1        0.710  -1.853  -3.308  0.00  0.00    +0.350 C 
BRANCH  16  17
ATOM     17  N   LIG    1       -0.264  -2.321  -4.297  0.00  0.00    -0.520 N 
ATOM     18  C   LIG    1       -0.816  -3.567  -4.168  0.00  0.00    +0.360 A 
ATOM     19  C   LIG    1       -1.718  -3.996  -5.076  0.00  0.00    -0.120 A 
ATOM     20  C   LIG    1       -2.066  -3.149  -6.155  0.00  0.00    +0.550 A 
ATOM     21  N   LIG    1       -1.496  -1.931  -6.250  0.00  0.00    -0.550 N 
ATOM     22  C   LIG    1       -1.848  -1.045  -7.363  0.00  0.00    +0.340 C 
ATOM     23  O   LIG    1       -2.873  -3.516  -6.990  0.00  0.00    -0.510 OA
ATOM     24  C   LIG    1       -0.604  -1.526  -5.327  0.00  0.00    +0.700 A 
ATOM     25  O   LIG    1       -0.097  -0.425  -5.426  0.00  0.00    -0.530 OA
ENDBRANCH  16  17
ENDBRANCH  14  16
TORSDOF 2
