REMARK  Name = ZINCc70000001EzW.0
REMARK                            x       y       z     vdW  Elec       q    Type
REMARK                         _______ _______ _______ _____ _____    ______ ____
ROOT
ATOM      1  C   LIG    1        0.077   5.302   0.031  0.00  0.00    +0.350 C 
ENDROOT
BRANCH   1   2
ATOM      2  C   LIG    1        0.033   3.795   0.023  0.00  0.00    +0.110 A 
ATOM      3  C   LIG    1       -1.188   3.148   0.030  0.00  0.00    -0.020 A 
ATOM      4  C   LIG    1       -1.217   1.761   0.017  0.00  0.00    +0.060 A 
ATOM      5  C   LIG    1       -0.013   1.076   0.008  0.00  0.00    -0.030 A 
ATOM      6  C   LIG    1        1.170   1.792   0.001  0.00  0.00    +0.260 A 
ATOM      7  N   LIG    1        1.160   3.110   0.008  0.00  0.00    -0.470 NA
ENDBRANCH   1   2
BRANCH   1   8
ATOM      8  N   LIG    1        0.225   5.778   1.408  0.00  0.00    -1.110 NA
ATOM      9  H   LIG    1        0.061   5.176   2.150  0.00  0.00    +0.420 HD
BRANCH   8  11
ATOM     10  C   LIG    1       -0.710   8.335   1.061  0.00  0.00    -0.280 C 
ATOM     11  S   LIG    1        0.671   7.346   1.698  0.00  0.00    +2.620 S 
ATOM     12  O   LIG    1        1.830   7.535   0.898  0.00  0.00    -0.950 OA
ATOM     13  O   LIG    1        0.736   7.436   3.115  0.00  0.00    -0.960 OA
ENDBRANCH   8  11
ENDBRANCH   1   8
TORSDOF 3
