REMARK  Name = ZINCrH00000No567.0
REMARK                            x       y       z     vdW  Elec       q    Type
REMARK                         _______ _______ _______ _____ _____    ______ ____
ROOT
ATOM      1  C   LIG    1        9.214  -0.086  -2.142  0.00  0.00    -0.140 A 
ATOM      2  C   LIG    1        8.845   1.011  -2.922  0.00  0.00    +0.140 A 
ATOM      3  C   LIG    1        9.742   1.545  -3.824  0.00  0.00    +0.000 A 
ATOM      4  C   LIG    1       11.002   0.989  -3.963  0.00  0.00    +0.160 A 
ATOM      5  C   LIG    1       11.372  -0.102  -3.197  0.00  0.00    -0.690 A 
ATOM      6  C   LIG    1       10.486  -0.643  -2.288  0.00  0.00    +0.190 A 
ENDROOT
BRANCH   5   7
ATOM      7  S   LIG    1       12.978  -0.803  -3.383  0.00  0.00    +2.690 S 
ATOM      8  O   LIG    1       13.264  -1.478  -2.166  0.00  0.00    -0.950 OA
ATOM      9  O   LIG    1       13.804   0.223  -3.915  0.00  0.00    -0.950 OA
BRANCH   7  10
ATOM     10  N   LIG    1       12.871  -1.971  -4.552  0.00  0.00    -1.000 NA
ATOM     11  C   LIG    1       12.556  -3.361  -4.195  0.00  0.00    +0.290 C 
ATOM     12  C   LIG    1       11.352  -3.819  -5.032  0.00  0.00    +0.010 C 
ATOM     13  C   LIG    1       11.659  -3.606  -6.516  0.00  0.00    +0.020 C 
ATOM     14  C   LIG    1       11.892  -2.117  -6.782  0.00  0.00    +0.010 C 
ATOM     15  C   LIG    1       13.096  -1.638  -5.965  0.00  0.00    +0.290 C 
ENDBRANCH   7  10
ENDBRANCH   5   7
BRANCH   1  17
ATOM     16  O   LIG    1        8.582  -1.618  -0.497  0.00  0.00    -0.500 OA
ATOM     17  C   LIG    1        8.260  -0.660  -1.170  0.00  0.00    +0.510 C 
BRANCH  17  18
ATOM     18  O   LIG    1        7.034  -0.121  -1.032  0.00  0.00    -0.350 OA
BRANCH  18  19
ATOM     19  C   LIG    1        6.149  -0.736  -0.058  0.00  0.00    +0.270 C 
BRANCH  19  20
ATOM     20  C   LIG    1        4.832  -0.004  -0.043  0.00  0.00    -0.030 C 
ATOM     21  C   LIG    1        3.695  -0.685  -0.036  0.00  0.00    +0.030 C 
BRANCH  21  22
ATOM     22  C   LIG    1        2.403   0.034  -0.020  0.00  0.00    -0.060 A 
ATOM     23  C   LIG    1        1.204  -0.681  -0.013  0.00  0.00    +0.030 A 
ATOM     24  C   LIG    1        0.002  -0.004   0.002  0.00  0.00    +0.010 A 
ATOM     25  C   LIG    1       -0.017   1.379   0.010  0.00  0.00    +0.000 A 
ATOM     26  C   LIG    1        1.168   2.093   0.002  0.00  0.00    +0.000 A 
ATOM     27  C   LIG    1        2.377   1.429  -0.013  0.00  0.00    +0.020 A 
ENDBRANCH  21  22
ENDBRANCH  19  20
ENDBRANCH  18  19
ENDBRANCH  17  18
ENDBRANCH   1  17
TORSDOF 7
