REMARK  Name = ZINCpk00000e1EOO.0
REMARK                            x       y       z     vdW  Elec       q    Type
REMARK                         _______ _______ _______ _____ _____    ______ ____
ROOT
ATOM      1  C   LIG    1       -1.660   2.418  -0.790  0.00  0.00    -0.010 C 
ATOM      2  C   LIG    1       -1.488   3.371   0.396  0.00  0.00    +0.050 C 
ATOM      3  C   LIG    1       -2.814   4.085   0.667  0.00  0.00    +0.190 C 
ATOM      4  N   LIG    1       -3.857   3.093   0.958  0.00  0.00    -0.540 NA
ATOM      5  C   LIG    1       -4.072   2.198  -0.186  0.00  0.00    +0.200 C 
ATOM      6  C   LIG    1       -2.785   1.426  -0.481  0.00  0.00    +0.060 C 
ENDROOT
BRANCH   1   8
ATOM      7  O   LIG    1       -0.309   0.484  -0.763  0.00  0.00    -0.540 OA
ATOM      8  C   LIG    1       -0.375   1.667  -1.023  0.00  0.00    +0.530 C 
ATOM      9  N   LIG    1        0.699   2.307  -1.526  0.00  0.00    -0.620 N 
ATOM     10  C   LIG    1        0.730   3.708  -1.972  0.00  0.00    +0.240 C 
ATOM     11  C   LIG    1        2.156   3.992  -2.490  0.00  0.00    +0.030 C 
ATOM     12  C   LIG    1        2.685   2.576  -2.839  0.00  0.00    +0.040 C 
ATOM     13  C   LIG    1        2.035   1.718  -1.725  0.00  0.00    +0.250 C 
ENDBRANCH   1   8
BRANCH   4  14
ATOM     14  C   LIG    1       -5.110   3.748   1.358  0.00  0.00    +0.330 C 
BRANCH  14  15
ATOM     15  C   LIG    1       -4.908   4.460   2.671  0.00  0.00    +0.260 A 
ATOM     16  N   LIG    1       -4.478   5.685   2.830  0.00  0.00    -0.330 NA
ATOM     17  N   LIG    1       -4.421   5.986   4.077  0.00  0.00    -0.030 NA
ATOM     18  N   LIG    1       -4.806   4.985   4.795  0.00  0.00    -0.080 NA
ATOM     19  N   LIG    1       -5.143   3.954   3.901  0.00  0.00    -0.320 N 
BRANCH  19  20
ATOM     20  C   LIG    1       -5.619   2.674   4.218  0.00  0.00    +0.110 A 
ATOM     21  C   LIG    1       -6.564   2.512   5.222  0.00  0.00    +0.040 A 
ATOM     22  C   LIG    1       -7.035   1.250   5.528  0.00  0.00    +0.030 A 
ATOM     23  C   LIG    1       -6.558   0.147   4.843  0.00  0.00    +0.030 A 
ATOM     24  C   LIG    1       -5.612   0.305   3.847  0.00  0.00    +0.040 A 
ATOM     25  C   LIG    1       -5.141   1.565   3.532  0.00  0.00    +0.040 A 
ENDBRANCH  19  20
ENDBRANCH  14  15
ENDBRANCH   4  14
TORSDOF 4
