REMARK  Name = ZINCrH00000tj12p.0
REMARK                            x       y       z     vdW  Elec       q    Type
REMARK                         _______ _______ _______ _____ _____    ______ ____
ROOT
ATOM      1  C   LIG    1        1.239  -0.651  -0.229  0.00  0.00    -0.250 A 
ATOM      2  C   LIG    1        0.007   0.020  -0.211  0.00  0.00    +0.240 A 
ATOM      3  N   LIG    1       -0.012   1.320   0.007  0.00  0.00    -0.510 NA
ATOM      4  C   LIG    1        1.115   2.001   0.209  0.00  0.00    +0.430 A 
ATOM      5  N   LIG    1        2.306   1.412   0.201  0.00  0.00    -0.520 NA
ATOM      6  C   LIG    1       -1.278  -0.736  -0.437  0.00  0.00    +0.170 C 
ATOM      7  C   LIG    1        2.416   0.106  -0.011  0.00  0.00    +0.180 A 
ENDROOT
BRANCH   4   8
ATOM      8  C   LIG    1        1.038   3.451   0.448  0.00  0.00    +0.010 A 
ATOM      9  C   LIG    1        2.095   4.282   0.675  0.00  0.00    +0.030 A 
ATOM     10  C   LIG    1        1.565   5.573   0.846  0.00  0.00    -0.060 A 
ATOM     11  C   LIG    1        0.224   5.470   0.726  0.00  0.00    +0.210 A 
ATOM     12  O   LIG    1       -0.090   4.189   0.486  0.00  0.00    -0.150 OA
ENDBRANCH   4   8
BRANCH   1  14
ATOM     13  C   LIG    1        1.321  -2.624  -1.878  0.00  0.00    +0.080 C 
ATOM     14  C   LIG    1        1.306  -2.093  -0.467  0.00  0.00    +0.410 C 
ATOM     15  O   LIG    1        1.351  -2.862   0.471  0.00  0.00    -0.430 OA
ENDBRANCH   1  14
BRANCH   7  16
ATOM     16  S   LIG    1        3.998  -0.671  -0.020  0.00  0.00    +0.070 S 
BRANCH  16  17
ATOM     17  C   LIG    1        5.054   0.763   0.303  0.00  0.00    +0.110 C 
BRANCH  17  18
ATOM     18  C   LIG    1        6.496   0.327   0.341  0.00  0.00    +0.530 C 
ATOM     19  N   LIG    1        7.468   1.232   0.569  0.00  0.00    -0.720 N 
ATOM     20  H   LIG    1        7.240   2.164   0.708  0.00  0.00    +0.410 HD
ATOM     21  O   LIG    1        6.781  -0.839   0.166  0.00  0.00    -0.520 OA
BRANCH  19  22
ATOM     22  C   LIG    1        8.870   0.807   0.605  0.00  0.00    +0.270 C 
BRANCH  22  23
ATOM     23  C   LIG    1        9.763   2.019   0.878  0.00  0.00    +0.110 C 
BRANCH  23  24
ATOM     24  C   LIG    1       11.205   1.583   0.916  0.00  0.00    -0.180 A 
ATOM     25  C   LIG    1       12.023   1.541  -0.137  0.00  0.00    +0.010 A 
ATOM     26  C   LIG    1       13.308   1.106   0.140  0.00  0.00    +0.000 A 
ATOM     27  C   LIG    1       13.533   0.794   1.418  0.00  0.00    -0.040 A 
ATOM     28  S   LIG    1       12.068   1.058   2.356  0.00  0.00    +0.100 S 
ENDBRANCH  23  24
ENDBRANCH  22  23
ENDBRANCH  19  22
ENDBRANCH  17  18
ENDBRANCH  16  17
ENDBRANCH   7  16
TORSDOF 8
