REMARK  Name = ZINCrD000000CRl1.0
REMARK                            x       y       z     vdW  Elec       q    Type
REMARK                         _______ _______ _______ _____ _____    ______ ____
ROOT
ATOM      1  C   LIG    1        1.073   2.878   2.297  0.00  0.00    +0.510 C 
ATOM      2  N   LIG    1        2.093   2.215   2.878  0.00  0.00    -0.620 N 
ATOM      3  H   LIG    1        2.874   1.973   2.356  0.00  0.00    +0.420 HD
ATOM      4  O   LIG    1        0.097   3.181   2.950  0.00  0.00    -0.480 OA
ENDROOT
BRANCH   1   8
ATOM      5  O   LIG    1        0.002  -0.004   0.002  0.00  0.00    -0.510 OA
ATOM      6  C   LIG    1       -0.014   1.209   0.009  0.00  0.00    +0.520 C 
ATOM      7  C   LIG    1        1.284   1.970   0.000  0.00  0.00    +0.110 C 
ATOM      8  C   LIG    1        1.146   3.243   0.837  0.00  0.00    +0.090 C 
ATOM      9  C   LIG    1       -0.110   3.973   0.439  0.00  0.00    -0.130 A 
ATOM     10  C   LIG    1       -0.147   5.353   0.463  0.00  0.00    +0.110 A 
ATOM     11  C   LIG    1       -1.301   6.022   0.098  0.00  0.00    -0.030 A 
ATOM     12  C   LIG    1       -2.422   5.310  -0.294  0.00  0.00    +0.140 A 
ATOM     13  C   LIG    1       -2.390   3.927  -0.320  0.00  0.00    -0.050 A 
ATOM     14  F   LIG    1       -3.548   5.966  -0.650  0.00  0.00    -0.130 F 
ATOM     15  C   LIG    1       -1.232   3.255   0.047  0.00  0.00    +0.210 A 
ATOM     16  N   LIG    1       -1.193   1.858   0.018  0.00  0.00    -0.660 N 
ATOM     17  H   LIG    1       -2.021   1.353   0.007  0.00  0.00    +0.420 HD
ENDBRANCH   1   8
BRANCH   2  18
ATOM     18  C   LIG    1        2.026   1.879   4.225  0.00  0.00    +0.240 A 
ATOM     19  N   LIG    1        2.946   1.240   4.877  0.00  0.00    -0.490 NA
ATOM     20  C   LIG    1        2.719   1.007   6.157  0.00  0.00    +0.110 A 
ATOM     21  C   LIG    1        1.547   1.462   6.604  0.00  0.00    -0.140 A 
ATOM     22  S   LIG    1        0.715   2.242   5.261  0.00  0.00    +0.240 S 
BRANCH  20  23
ATOM     23  C   LIG    1        3.701   0.280   7.039  0.00  0.00    +0.270 C 
BRANCH  23  24
ATOM     24  N   LIG    1        3.502  -1.169   6.902  0.00  0.00    -0.530 NA
ATOM     25  C   LIG    1        2.191  -1.572   7.425  0.00  0.00    +0.160 C 
ATOM     26  C   LIG    1        1.959  -3.057   7.135  0.00  0.00    +0.020 C 
ATOM     27  C   LIG    1        3.067  -3.880   7.797  0.00  0.00    +0.000 C 
ATOM     28  C   LIG    1        4.426  -3.408   7.272  0.00  0.00    +0.020 C 
ATOM     29  C   LIG    1        4.586  -1.913   7.557  0.00  0.00    +0.170 C 
ENDBRANCH  23  24
ENDBRANCH  20  23
ENDBRANCH   2  18
TORSDOF 4
