REMARK  Name = ZINCqH0000034mKL.1
REMARK                            x       y       z     vdW  Elec       q    Type
REMARK                         _______ _______ _______ _____ _____    ______ ____
ROOT
ATOM      1  N   LIG    1        8.003  -3.329  -1.213  0.00  0.00    -0.480 N 
ATOM      2  C   LIG    1        8.380  -3.740  -2.472  0.00  0.00    +0.070 A 
ATOM      3  C   LIG    1        8.646  -4.981  -3.042  0.00  0.00    -0.030 A 
ATOM      4  C   LIG    1        9.015  -5.069  -4.352  0.00  0.00    +0.110 A 
ATOM      5  C   LIG    1        9.130  -3.912  -5.137  0.00  0.00    -0.130 A 
ATOM      6  C   LIG    1        8.867  -2.661  -4.583  0.00  0.00    +0.120 A 
ATOM      7  C   LIG    1        8.490  -2.569  -3.245  0.00  0.00    +0.030 A 
ATOM      8  N   LIG    1        8.174  -1.527  -2.432  0.00  0.00    -0.440 NA
ATOM      9  C   LIG    1        7.886  -1.974  -1.244  0.00  0.00    +0.170 A 
ENDROOT
BRANCH   5  10
ATOM     10  C   LIG    1        9.529  -4.021  -6.551  0.00  0.00    +0.520 C 
ATOM     11  O   LIG    1        9.629  -3.013  -7.237  0.00  0.00    -0.680 OA
ATOM     12  O   LIG    1        9.760  -5.118  -7.039  0.00  0.00    -0.680 OA
ENDBRANCH   5  10
BRANCH   1  14
ATOM     13  C   LIG    1        6.298  -4.622  -0.026  0.00  0.00    +0.040 C 
ATOM     14  C   LIG    1        7.767  -4.193  -0.053  0.00  0.00    +0.290 C 
ENDBRANCH   1  14
BRANCH   9  15
ATOM     15  C   LIG    1        7.489  -1.114  -0.072  0.00  0.00    +0.390 C 
BRANCH  15  16
ATOM     16  N   LIG    1        6.029  -0.952  -0.057  0.00  0.00    -0.390 N 
ATOM     17  C   LIG    1        5.632  -0.216   1.149  0.00  0.00    +0.260 C 
ATOM     18  C   LIG    1        4.107  -0.115   1.211  0.00  0.00    +0.070 C 
ATOM     19  C   LIG    1        3.599   0.625  -0.030  0.00  0.00    +0.110 C 
ATOM     20  C   LIG    1        4.081  -0.110  -1.283  0.00  0.00    +0.070 C 
ATOM     21  C   LIG    1        5.608  -0.212  -1.253  0.00  0.00    +0.270 C 
ATOM     22  H   LIG    1        5.591  -1.861  -0.054  0.00  0.00    +0.420 HD
BRANCH  19  23
ATOM     23  C   LIG    1        2.092   0.660  -0.014  0.00  0.00    -0.030 A 
ATOM     24  C   LIG    1        1.331   1.769  -0.001  0.00  0.00    -0.040 A 
ATOM     25  C   LIG    1       -0.016   1.341   0.009  0.00  0.00    -0.060 A 
ATOM     26  C   LIG    1        0.002  -0.004   0.002  0.00  0.00    +0.180 A 
ATOM     27  O   LIG    1        1.282  -0.411  -0.012  0.00  0.00    -0.180 OA
ENDBRANCH  19  23
ENDBRANCH  15  16
ENDBRANCH   9  15
TORSDOF 5
