REMARK  Name = ZINCrD000000D7if.0
REMARK                            x       y       z     vdW  Elec       q    Type
REMARK                         _______ _______ _______ _____ _____    ______ ____
ROOT
ATOM      1  N   LIG    1       -3.704   5.940  -3.403  0.00  0.00    -1.000 NA
ATOM      2  C   LIG    1       -4.707   5.021  -2.843  0.00  0.00    +0.310 C 
ATOM      3  C   LIG    1       -4.342   4.735  -1.382  0.00  0.00    +0.170 C 
ATOM      4  N   LIG    1       -2.955   4.258  -1.311  0.00  0.00    -0.530 NA
ATOM      5  C   LIG    1       -2.014   5.288  -1.772  0.00  0.00    +0.190 C 
ATOM      6  C   LIG    1       -2.282   5.596  -3.249  0.00  0.00    +0.290 C 
ENDROOT
BRANCH   1   8
ATOM      7  O   LIG    1       -3.090   7.673  -5.049  0.00  0.00    -0.950 OA
ATOM      8  S   LIG    1       -4.164   7.325  -4.186  0.00  0.00    +2.690 S 
ATOM      9  O   LIG    1       -5.490   7.104  -4.646  0.00  0.00    -0.950 OA
BRANCH   8  10
ATOM     10  C   LIG    1       -4.263   8.601  -2.975  0.00  0.00    -0.670 A 
ATOM     11  C   LIG    1       -3.153   9.373  -2.692  0.00  0.00    +0.130 A 
ATOM     12  C   LIG    1       -3.230  10.375  -1.742  0.00  0.00    +0.020 A 
ATOM     13  C   LIG    1       -4.418  10.604  -1.074  0.00  0.00    +0.080 A 
ATOM     14  C   LIG    1       -5.530   9.831  -1.357  0.00  0.00    -0.060 A 
ATOM     15 CL   LIG    1       -7.023  10.118  -0.518  0.00  0.00    -0.060 Cl
ATOM     16  C   LIG    1       -5.454   8.832  -2.311  0.00  0.00    +0.140 A 
ENDBRANCH   8  10
ENDBRANCH   1   8
BRANCH   4  17
ATOM     17  C   LIG    1       -2.621   3.810   0.047  0.00  0.00    +0.230 C 
BRANCH  17  18
ATOM     18  C   LIG    1       -1.288   3.107   0.031  0.00  0.00    -0.060 A 
ATOM     19  C   LIG    1       -1.234   1.747   0.017  0.00  0.00    +0.050 A 
ATOM     20  C   LIG    1       -0.013   1.076   0.008  0.00  0.00    +0.020 A 
ATOM     21  C   LIG    1        1.162   1.764   0.000  0.00  0.00    +0.030 A 
ATOM     22  C   LIG    1        1.144   3.168   0.008  0.00  0.00    -0.100 A 
ATOM     23  C   LIG    1        2.336   3.916  -0.000  0.00  0.00    +0.080 A 
ATOM     24  C   LIG    1        2.242   5.279   0.007  0.00  0.00    -0.040 A 
ATOM     25  C   LIG    1        0.990   5.889   0.022  0.00  0.00    +0.290 A 
ATOM     26  N   LIG    1       -0.118   5.189   0.030  0.00  0.00    -0.470 NA
ATOM     27  C   LIG    1       -0.096   3.852   0.023  0.00  0.00    +0.130 A 
ENDBRANCH  17  18
ENDBRANCH   4  17
TORSDOF 4
