REMARK  Name = ZINCqH0000000eg6.0
REMARK                            x       y       z     vdW  Elec       q    Type
REMARK                         _______ _______ _______ _____ _____    ______ ____
ROOT
ATOM      1  N   LIG    1       -0.800   1.687  -1.348  0.00  0.00    -0.520 N 
ATOM      2  C   LIG    1       -1.567   0.784  -1.990  0.00  0.00    +0.520 C 
ATOM      3  O   LIG    1       -1.913   0.986  -3.135  0.00  0.00    -0.430 OA
ENDROOT
BRANCH   2   4
ATOM      4  C   LIG    1       -1.994  -0.478  -1.286  0.00  0.00    +0.150 C 
ATOM      5  O   LIG    1       -3.300  -0.861  -1.730  0.00  0.00    -0.280 OA
ATOM      6  C   LIG    1       -3.707  -2.122  -1.418  0.00  0.00    +0.050 A 
ATOM      7  C   LIG    1       -5.055  -2.439  -1.490  0.00  0.00    +0.030 A 
ATOM      8  C   LIG    1       -5.482  -3.717  -1.180  0.00  0.00    +0.030 A 
ATOM      9  C   LIG    1       -4.569  -4.681  -0.798  0.00  0.00    +0.030 A 
ATOM     10  C   LIG    1       -3.224  -4.370  -0.723  0.00  0.00    +0.030 A 
ATOM     11  C   LIG    1       -2.788  -3.091  -1.032  0.00  0.00    +0.050 A 
ATOM     12  O   LIG    1       -1.461  -2.799  -0.951  0.00  0.00    -0.300 OA
ATOM     13  C   LIG    1       -1.020  -1.615  -1.624  0.00  0.00    +0.160 C 
ATOM     14  C   LIG    1        0.388  -1.246  -1.152  0.00  0.00    +0.090 C 
ENDBRANCH   2   4
BRANCH   1  15
ATOM     15  C   LIG    1       -0.473   2.887  -1.969  0.00  0.00    +0.270 A 
ATOM     16  N   LIG    1       -0.846   3.232  -3.158  0.00  0.00    -0.470 NA
ATOM     17  C   LIG    1       -0.453   4.417  -3.608  0.00  0.00    +0.100 A 
ATOM     18  C   LIG    1        0.308   5.093  -2.728  0.00  0.00    -0.240 A 
ATOM     19  C   LIG    1        0.903   6.461  -2.963  0.00  0.00    +0.120 C 
ATOM     20  C   LIG    1        0.848   6.768  -4.463  0.00  0.00    +0.030 C 
ATOM     21  C   LIG    1       -0.566   6.481  -4.979  0.00  0.00    +0.030 C 
ATOM     22  C   LIG    1       -0.811   4.971  -4.979  0.00  0.00    +0.130 C 
ATOM     23  S   LIG    1        0.488   4.119  -1.275  0.00  0.00    +0.130 S 
ENDBRANCH   1  15
BRANCH   1  24
ATOM     24  C   LIG    1       -0.311   1.405   0.004  0.00  0.00    +0.320 C 
BRANCH  24  26
ATOM     25  C   LIG    1       -1.774   1.295   1.955  0.00  0.00    +0.060 C 
ATOM     26  C   LIG    1       -1.238   2.031   1.014  0.00  0.00    -0.070 C 
ENDBRANCH  24  26
ENDBRANCH   1  24
TORSDOF 4
