REMARK  Name = ZINCkj000005lc8e.1
REMARK                            x       y       z     vdW  Elec       q    Type
REMARK                         _______ _______ _______ _____ _____    ______ ____
ROOT
ATOM      1  N   LIG    1        1.340   6.291  -5.219  0.00  0.00    -0.660 N 
ATOM      2  H   LIG    1        0.488   6.037  -5.608  0.00  0.00    +0.420 HD
ATOM      3  C   LIG    1        1.765   5.702  -4.084  0.00  0.00    +0.520 C 
ATOM      4  O   LIG    1        2.870   5.949  -3.650  0.00  0.00    -0.510 OA
ENDROOT
BRANCH   1   8
ATOM      5  C   LIG    1        3.680   9.208  -7.056  0.00  0.00    -0.030 A 
ATOM      6  C   LIG    1        2.896   8.349  -7.831  0.00  0.00    +0.090 A 
ATOM      7  C   LIG    1        2.124   7.386  -7.220  0.00  0.00    +0.000 A 
ATOM      8  C   LIG    1        2.124   7.268  -5.834  0.00  0.00    +0.160 A 
ATOM      9  C   LIG    1        2.899   8.125  -5.060  0.00  0.00    +0.020 A 
ATOM     10  C   LIG    1        3.678   9.086  -5.664  0.00  0.00    +0.090 A 
BRANCH   5  12
ATOM     11  N   LIG    1        5.122  11.007  -8.189  0.00  0.00    -0.400 NA
ATOM     12  C   LIG    1        4.484  10.211  -7.688  0.00  0.00    +0.240 C 
ENDBRANCH   5  12
ENDBRANCH   1   8
BRANCH   3  13
ATOM     13  C   LIG    1        0.868   4.735  -3.355  0.00  0.00    +0.070 C 
BRANCH  13  14
ATOM     14  C   LIG    1        1.587   4.213  -2.109  0.00  0.00    +0.280 C 
BRANCH  14  15
ATOM     15  N   LIG    1        0.712   3.271  -1.398  0.00  0.00    -0.390 N 
ATOM     16  C   LIG    1       -0.467   3.991  -0.872  0.00  0.00    +0.260 C 
ATOM     17  C   LIG    1       -0.100   4.333   0.593  0.00  0.00    +0.080 C 
ATOM     18  C   LIG    1        0.688   3.068   1.023  0.00  0.00    +0.090 C 
ATOM     19  C   LIG    1        1.443   2.675  -0.265  0.00  0.00    +0.180 C 
ATOM     20  H   LIG    1        0.412   2.543  -2.029  0.00  0.00    +0.430 HD
BRANCH  19  21
ATOM     21  C   LIG    1        1.471   1.152  -0.407  0.00  0.00    +0.220 C 
BRANCH  21  22
ATOM     22  O   LIG    1        0.141   0.639  -0.305  0.00  0.00    -0.580 OA
ATOM     23  H   LIG    1        0.083  -0.323  -0.386  0.00  0.00    +0.410 HD
ENDBRANCH  21  22
ENDBRANCH  19  21
ENDBRANCH  14  15
ENDBRANCH  13  14
ENDBRANCH   3  13
TORSDOF 7
