REMARK  Name = ZINCkj000005lc8e.0
REMARK                            x       y       z     vdW  Elec       q    Type
REMARK                         _______ _______ _______ _____ _____    ______ ____
ROOT
ATOM      1  N   LIG    1       -1.155  -0.722  -0.532  0.00  0.00    -0.660 N 
ATOM      2  H   LIG    1       -1.996  -0.237  -0.521  0.00  0.00    +0.420 HD
ATOM      3  C   LIG    1       -1.154  -2.068  -0.481  0.00  0.00    +0.520 C 
ATOM      4  O   LIG    1       -0.105  -2.671  -0.399  0.00  0.00    -0.510 OA
ENDROOT
BRANCH   1   8
ATOM      5  C   LIG    1        2.449   1.360  -0.733  0.00  0.00    -0.030 A 
ATOM      6  C   LIG    1        2.325   0.112  -1.351  0.00  0.00    +0.090 A 
ATOM      7  C   LIG    1        1.132  -0.573  -1.282  0.00  0.00    +0.020 A 
ATOM      8  C   LIG    1        0.052  -0.025  -0.599  0.00  0.00    +0.160 A 
ATOM      9  C   LIG    1        0.171   1.217   0.017  0.00  0.00    +0.000 A 
ATOM     10  C   LIG    1        1.361   1.908  -0.048  0.00  0.00    +0.090 A 
BRANCH   5  12
ATOM     11  N   LIG    1        4.670   2.643  -0.858  0.00  0.00    -0.400 NA
ATOM     12  C   LIG    1        3.687   2.075  -0.803  0.00  0.00    +0.240 C 
ENDBRANCH   5  12
ENDBRANCH   1   8
BRANCH   3  13
ATOM     13  C   LIG    1       -2.456  -2.825  -0.528  0.00  0.00    +0.070 C 
BRANCH  13  14
ATOM     14  C   LIG    1       -2.176  -4.328  -0.456  0.00  0.00    +0.300 C 
BRANCH  14  15
ATOM     15  N   LIG    1       -3.445  -5.066  -0.501  0.00  0.00    -0.380 N 
ATOM     16  C   LIG    1       -4.084  -4.876  -1.821  0.00  0.00    +0.250 C 
ATOM     17  C   LIG    1       -4.754  -6.236  -2.136  0.00  0.00    +0.080 C 
ATOM     18  C   LIG    1       -3.719  -7.237  -1.557  0.00  0.00    +0.080 C 
ATOM     19  C   LIG    1       -3.189  -6.505  -0.310  0.00  0.00    +0.180 C 
ATOM     20  H   LIG    1       -4.060  -4.730   0.225  0.00  0.00    +0.420 HD
BRANCH  19  21
ATOM     21  C   LIG    1       -1.687  -6.752  -0.162  0.00  0.00    +0.220 C 
BRANCH  21  22
ATOM     22  O   LIG    1       -1.031  -6.448  -1.395  0.00  0.00    -0.570 OA
ATOM     23  H   LIG    1       -0.073  -6.582  -1.374  0.00  0.00    +0.410 HD
ENDBRANCH  21  22
ENDBRANCH  19  21
ENDBRANCH  14  15
ENDBRANCH  13  14
ENDBRANCH   3  13
TORSDOF 7
