REMARK  Name = ZINCrD00000hQ5Ew.0
REMARK                            x       y       z     vdW  Elec       q    Type
REMARK                         _______ _______ _______ _____ _____    ______ ____
ROOT
ATOM      1  C   LIG    1       -2.478   5.514   1.083  0.00  0.00    +0.300 A 
ATOM      2  N   LIG    1       -2.854   6.771   0.970  0.00  0.00    -0.460 NA
ATOM      3  C   LIG    1       -2.337   7.536  -0.003  0.00  0.00    +0.100 A 
ATOM      4  C   LIG    1       -2.726   8.877  -0.147  0.00  0.00    +0.050 A 
ATOM      5  C   LIG    1       -2.186   9.634  -1.143  0.00  0.00    +0.040 A 
ATOM      6  C   LIG    1       -1.252   9.097  -2.023  0.00  0.00    +0.040 A 
ATOM      7  C   LIG    1       -0.851   7.800  -1.912  0.00  0.00    +0.060 A 
ATOM      8  C   LIG    1       -1.386   6.990  -0.897  0.00  0.00    +0.080 A 
ATOM      9  N   LIG    1       -1.008   5.709  -0.768  0.00  0.00    -0.450 NA
ATOM     10  C   LIG    1       -1.523   4.969   0.191  0.00  0.00    +0.290 A 
ENDROOT
BRANCH  10  11
ATOM     11  N   LIG    1       -1.133   3.645   0.324  0.00  0.00    -0.470 N 
ATOM     12  C   LIG    1       -0.912   3.026  -0.989  0.00  0.00    +0.190 C 
ATOM     13  C   LIG    1       -0.625   1.533  -0.810  0.00  0.00    +0.020 C 
ATOM     14  C   LIG    1        0.614   1.359   0.072  0.00  0.00    +0.010 C 
ATOM     15  C   LIG    1        0.378   2.054   1.416  0.00  0.00    +0.040 C 
ATOM     16  C   LIG    1        0.061   3.531   1.172  0.00  0.00    +0.190 C 
ENDBRANCH  10  11
BRANCH   1  20
ATOM     17  C   LIG    1       -5.013   3.403   2.500  0.00  0.00    +0.120 C 
ATOM     18  C   LIG    1       -4.796   4.428   3.637  0.00  0.00    +0.060 C 
ATOM     19  C   LIG    1       -3.917   5.511   2.963  0.00  0.00    +0.220 C 
ATOM     20  N   LIG    1       -3.017   4.721   2.085  0.00  0.00    -0.440 N 
ATOM     21  C   LIG    1       -3.854   3.643   1.515  0.00  0.00    +0.240 C 
BRANCH  17  26
ATOM     22  C   LIG    1       -6.089  -1.336   3.711  0.00  0.00    +0.210 C 
ATOM     23  C   LIG    1       -5.397  -0.005   3.562  0.00  0.00    +0.170 A 
ATOM     24  N   LIG    1       -4.224   0.308   4.025  0.00  0.00    -0.380 NA
ATOM     25  O   LIG    1       -3.951   1.454   3.738  0.00  0.00    +0.090 OA
ATOM     26  C   LIG    1       -4.955   1.998   3.044  0.00  0.00    +0.190 A 
ATOM     27  N   LIG    1       -5.883   1.079   2.931  0.00  0.00    -0.480 NA
ENDBRANCH  17  26
ENDBRANCH   1  20
TORSDOF 3
