REMARK  Name = ZINCrH000004kZdE.0
REMARK                            x       y       z     vdW  Elec       q    Type
REMARK                         _______ _______ _______ _____ _____    ______ ____
ROOT
ATOM      1  C   LIG    1        1.568   2.296   4.865  0.00  0.00    +0.290 C 
ENDROOT
BRANCH   1   2
ATOM      2  C   LIG    1        0.078   2.511   4.788  0.00  0.00    +0.010 A 
ATOM      3  C   LIG    1       -0.620   2.946   5.868  0.00  0.00    -0.040 A 
ATOM      4  C   LIG    1       -2.015   3.140   5.770  0.00  0.00    +0.510 A 
ATOM      5  O   LIG    1       -2.681   2.904   4.630  0.00  0.00    -0.270 OA
ATOM      6  C   LIG    1       -2.047   2.469   3.520  0.00  0.00    +0.150 A 
ATOM      7  C   LIG    1       -2.752   2.229   2.348  0.00  0.00    +0.020 A 
ATOM      8  C   LIG    1       -2.088   1.789   1.222  0.00  0.00    -0.030 A 
ATOM      9  C   LIG    1       -0.718   1.572   1.248  0.00  0.00    -0.100 A 
ATOM     10  C   LIG    1        0.002   1.804   2.399  0.00  0.00    +0.080 A 
ATOM     11  C   LIG    1       -0.013   1.086   0.008  0.00  0.00    +0.110 C 
ATOM     12  C   LIG    1       -2.859   1.536  -0.048  0.00  0.00    +0.100 C 
ATOM     13  O   LIG    1       -2.629   3.532   6.746  0.00  0.00    -0.450 OA
ATOM     14  C   LIG    1       -0.657   2.255   3.546  0.00  0.00    -0.150 A 
ENDBRANCH   1   2
BRANCH   1  15
ATOM     15  O   LIG    1        2.029   2.618   6.178  0.00  0.00    -0.290 OA
BRANCH  15  19
ATOM     16  C   LIG    1        6.074   2.189   6.902  0.00  0.00    -0.130 A 
ATOM     17  C   LIG    1        5.550   1.894   5.641  0.00  0.00    +0.100 A 
ATOM     18  C   LIG    1        4.200   2.033   5.406  0.00  0.00    -0.040 A 
ATOM     19  C   LIG    1        3.358   2.477   6.417  0.00  0.00    +0.140 A 
ATOM     20  C   LIG    1        3.874   2.774   7.678  0.00  0.00    +0.090 A 
ATOM     21  C   LIG    1        5.226   2.632   7.922  0.00  0.00    +0.040 A 
BRANCH  16  22
ATOM     22  C   LIG    1        7.519   2.036   7.157  0.00  0.00    +0.510 C 
ATOM     23  O   LIG    1        7.973   2.294   8.254  0.00  0.00    -0.500 OA
BRANCH  22  25
ATOM     24  C   LIG    1        9.745   1.482   6.496  0.00  0.00    +0.290 C 
ATOM     25  O   LIG    1        8.335   1.610   6.173  0.00  0.00    -0.350 OA
ENDBRANCH  22  25
ENDBRANCH  16  22
BRANCH  20  26
ATOM     26  O   LIG    1        3.046   3.204   8.667  0.00  0.00    -0.300 OA
ATOM     27  C   LIG    1        3.642   3.490   9.934  0.00  0.00    +0.250 C 
ENDBRANCH  20  26
ENDBRANCH  15  19
ENDBRANCH   1  15
TORSDOF 6
