REMARK  Name = ZINCrH000004n0jk.0
REMARK                            x       y       z     vdW  Elec       q    Type
REMARK                         _______ _______ _______ _____ _____    ______ ____
ROOT
ATOM      1  C   LIG    1        6.063   1.092  -3.050  0.00  0.00    +0.290 C 
ATOM      2  C   LIG    1        7.589   1.218  -2.854  0.00  0.00    +0.050 C 
ATOM      3  C   LIG    1        7.710   1.803  -1.422  0.00  0.00    +0.040 C 
ATOM      4  C   LIG    1        6.525   1.111  -0.703  0.00  0.00    +0.240 C 
ATOM      5  N   LIG    1        5.454   1.052  -1.713  0.00  0.00    -0.620 N 
ATOM      6  C   LIG    1        4.134   0.968  -1.454  0.00  0.00    +0.530 C 
ATOM      7  O   LIG    1        3.338   0.924  -2.368  0.00  0.00    -0.510 OA
ENDROOT
BRANCH   1  11
ATOM      8  C   LIG    1        5.155  -2.508  -5.173  0.00  0.00    +0.170 A 
ATOM      9  C   LIG    1        5.059  -2.471  -3.789  0.00  0.00    -0.110 A 
ATOM     10  C   LIG    1        5.359  -1.308  -3.106  0.00  0.00    +0.100 A 
ATOM     11  C   LIG    1        5.743  -0.176  -3.799  0.00  0.00    -0.150 A 
ATOM     12  C   LIG    1        5.840  -0.208  -5.183  0.00  0.00    +0.180 A 
ATOM     13  C   LIG    1        5.546  -1.375  -5.870  0.00  0.00    -0.100 A 
BRANCH   8  15
ATOM     14  C   LIG    1        4.470  -4.782  -5.061  0.00  0.00    +0.250 C 
ATOM     15  O   LIG    1        4.866  -3.654  -5.844  0.00  0.00    -0.320 OA
ENDBRANCH   8  15
BRANCH  12  16
ATOM     16  O   LIG    1        6.223   0.904  -5.863  0.00  0.00    -0.310 OA
ATOM     17  C   LIG    1        6.301   0.799  -7.286  0.00  0.00    +0.240 C 
ENDBRANCH  12  16
ENDBRANCH   1  11
BRANCH   6  18
ATOM     18  C   LIG    1        3.647   0.928  -0.029  0.00  0.00    +0.170 C 
BRANCH  18  19
ATOM     19  C   LIG    1        2.143   0.834  -0.014  0.00  0.00    +0.150 A 
ATOM     20  N   LIG    1        1.311   1.830  -0.001  0.00  0.00    -0.270 NA
ATOM     21  O   LIG    1       -0.016   1.344   0.009  0.00  0.00    -0.090 OA
ATOM     22  C   LIG    1        0.002  -0.004   0.002  0.00  0.00    +0.090 A 
ATOM     23  C   LIG    1       -0.993  -0.973   0.006  0.00  0.00    +0.020 A 
ATOM     24  C   LIG    1       -0.649  -2.308  -0.005  0.00  0.00    +0.080 A 
ATOM     25  C   LIG    1        0.683  -2.694  -0.020  0.00  0.00    -0.010 A 
ATOM     26  C   LIG    1        1.677  -1.756  -0.024  0.00  0.00    +0.090 A 
ATOM     27  C   LIG    1        1.350  -0.399  -0.013  0.00  0.00    -0.190 A 
ENDBRANCH  18  19
ENDBRANCH   6  18
TORSDOF 5
