REMARK  Name = ZINCrg000000p7ub.0
REMARK                            x       y       z     vdW  Elec       q    Type
REMARK                         _______ _______ _______ _____ _____    ______ ____
ROOT
ATOM      1  C   LIG    1       -2.194  -1.495   5.217  0.00  0.00    +0.250 C 
ENDROOT
BRANCH   1   8
ATOM      2  C   LIG    1       -4.001  -4.368  10.531  0.00  0.00    +0.190 C 
ATOM      3  N   LIG    1       -3.943  -4.153   9.079  0.00  0.00    -0.540 NA
ATOM      4  C   LIG    1       -5.041  -3.286   8.630  0.00  0.00    +0.170 C 
ATOM      5  C   LIG    1       -5.053  -3.234   7.099  0.00  0.00    +0.300 C 
ATOM      6  N   LIG    1       -3.716  -2.834   6.635  0.00  0.00    -0.610 N 
ATOM      7  C   LIG    1       -2.552  -3.575   7.145  0.00  0.00    +0.280 C 
ATOM      8  C   LIG    1       -3.562  -1.820   5.760  0.00  0.00    +0.520 C 
ATOM      9  O   LIG    1       -4.524  -1.170   5.410  0.00  0.00    -0.530 OA
ATOM     10  C   LIG    1       -2.638  -3.610   8.679  0.00  0.00    +0.170 C 
ENDBRANCH   1   8
BRANCH   1  11
ATOM     11  N   LIG    1       -2.193  -0.132   4.679  0.00  0.00    -0.720 N 
ATOM     12  H   LIG    1       -3.022   0.270   4.376  0.00  0.00    +0.410 HD
ATOM     13  C   LIG    1       -1.041   0.563   4.607  0.00  0.00    +0.520 C 
ATOM     14  O   LIG    1       -0.005   0.060   4.986  0.00  0.00    -0.490 OA
BRANCH  13  15
ATOM     15  C   LIG    1       -1.041   1.965   4.054  0.00  0.00    +0.160 C 
ATOM     16  C   LIG    1       -1.435   1.940   2.561  0.00  0.00    +0.060 C 
ATOM     17  C   LIG    1       -0.240   2.602   1.856  0.00  0.00    -0.170 C 
ATOM     18  C   LIG    1        0.458   3.380   2.985  0.00  0.00    +0.250 C 
ATOM     19  C   LIG    1        0.536   1.909   0.751  0.00  0.00    +0.040 C 
ATOM     20  C   LIG    1       -0.327   3.136   0.436  0.00  0.00    +0.040 C 
ATOM     21  O   LIG    1        0.281   2.526   4.138  0.00  0.00    -0.340 OA
ENDBRANCH  13  15
ENDBRANCH   1  11
BRANCH   1  22
ATOM     22  C   LIG    1       -1.839  -2.483   4.104  0.00  0.00    +0.080 C 
BRANCH  22  23
ATOM     23  C   LIG    1       -0.415  -2.257   3.667  0.00  0.00    -0.070 A 
ATOM     24  C   LIG    1       -0.138  -1.370   2.644  0.00  0.00    +0.000 A 
ATOM     25  C   LIG    1        1.169  -1.159   2.247  0.00  0.00    +0.010 A 
ATOM     26  C   LIG    1        2.199  -1.843   2.865  0.00  0.00    +0.000 A 
ATOM     27  C   LIG    1        1.921  -2.735   3.885  0.00  0.00    +0.010 A 
ATOM     28  C   LIG    1        0.615  -2.942   4.286  0.00  0.00    +0.000 A 
ENDBRANCH  22  23
ENDBRANCH   1  22
TORSDOF 5
