REMARK  Name = ZINCrD00000l9bp3.0
REMARK                            x       y       z     vdW  Elec       q    Type
REMARK                         _______ _______ _______ _____ _____    ______ ____
ROOT
ATOM      1  C   LIG    1        5.374  -3.304  -4.501  0.00  0.00    +0.540 C 
ATOM      2  N   LIG    1        4.980  -2.284  -3.714  0.00  0.00    -0.600 N 
ATOM      3  C   LIG    1        5.960  -1.497  -2.950  0.00  0.00    +0.300 C 
ATOM      4  C   LIG    1        5.506  -1.439  -1.488  0.00  0.00    +0.170 C 
ATOM      5  N   LIG    1        4.125  -0.940  -1.427  0.00  0.00    -0.530 NA
ATOM      6  C   LIG    1        3.198  -1.854  -2.107  0.00  0.00    +0.180 C 
ATOM      7  C   LIG    1        3.558  -1.928  -3.594  0.00  0.00    +0.280 C 
ATOM      8  O   LIG    1        6.551  -3.583  -4.588  0.00  0.00    -0.520 OA
ENDROOT
BRANCH   1  10
ATOM      9  C   LIG    1        3.692  -5.119  -4.348  0.00  0.00    +0.090 C 
ATOM     10  C   LIG    1        4.352  -4.097  -5.275  0.00  0.00    +0.030 C 
BRANCH  10  11
ATOM     11  S   LIG    1        5.167  -4.960  -6.641  0.00  0.00    +0.070 S 
BRANCH  11  12
ATOM     12  C   LIG    1        3.762  -5.661  -7.442  0.00  0.00    +0.250 A 
ATOM     13  N   LIG    1        2.522  -5.520  -7.044  0.00  0.00    -0.490 NA
ATOM     14  C   LIG    1        1.693  -6.187  -7.890  0.00  0.00    +0.060 A 
ATOM     15  C   LIG    1        0.308  -6.364  -7.937  0.00  0.00    +0.060 A 
ATOM     16  C   LIG    1       -0.252  -7.120  -8.943  0.00  0.00    +0.010 A 
ATOM     17  C   LIG    1        0.549  -7.708  -9.910  0.00  0.00    +0.030 A 
ATOM     18  C   LIG    1        1.919  -7.543  -9.878  0.00  0.00    +0.010 A 
ATOM     19  C   LIG    1        2.500  -6.785  -8.873  0.00  0.00    +0.060 A 
ATOM     20  N   LIG    1        3.805  -6.436  -8.566  0.00  0.00    -0.580 N 
ATOM     21  H   LIG    1        4.600  -6.694  -9.057  0.00  0.00    +0.430 HD
ENDBRANCH  11  12
ENDBRANCH  10  11
ENDBRANCH   1  10
BRANCH   5  22
ATOM     22  C   LIG    1        3.711  -0.707  -0.037  0.00  0.00    +0.230 C 
BRANCH  22  23
ATOM     23  C   LIG    1        2.396   0.029  -0.021  0.00  0.00    -0.080 A 
ATOM     24  C   LIG    1        1.208  -0.679  -0.013  0.00  0.00    +0.000 A 
ATOM     25  C   LIG    1        0.002  -0.004   0.002  0.00  0.00    +0.000 A 
ATOM     26  C   LIG    1       -0.017   1.378   0.010  0.00  0.00    +0.000 A 
ATOM     27  C   LIG    1        1.171   2.086   0.002  0.00  0.00    +0.000 A 
ATOM     28  C   LIG    1        2.377   1.411  -0.015  0.00  0.00    +0.020 A 
ENDBRANCH  22  23
ENDBRANCH   5  22
TORSDOF 5
