REMARK  Name = ZINCpk00000ebMtk.0
REMARK                            x       y       z     vdW  Elec       q    Type
REMARK                         _______ _______ _______ _____ _____    ______ ____
ROOT
ATOM      1  O   LIG    1       -4.482  -0.263   1.176  0.00  0.00    -0.520 OA
ATOM      2  C   LIG    1       -4.381   0.915   1.443  0.00  0.00    +0.520 C 
ATOM      3  N   LIG    1       -5.492   1.607   1.710  0.00  0.00    -0.710 N 
ATOM      4  H   LIG    1       -6.344   1.145   1.683  0.00  0.00    +0.410 HD
ATOM      5  CA  LIG    1       -5.478   3.026   2.040  0.00  0.00    +0.270 C 
ATOM      6  C   LIG    1       -4.119   3.466   2.494  0.00  0.00    +0.520 C 
ATOM      7  N   LIG    1       -3.008   2.775   2.223  0.00  0.00    -0.710 N 
ATOM      8  H   LIG    1       -2.159   3.115   2.547  0.00  0.00    +0.410 HD
ATOM      9  O   LIG    1       -4.024   4.492   3.134  0.00  0.00    -0.520 OA
ATOM     10  CA  LIG    1       -3.015   1.534   1.460  0.00  0.00    +0.260 C 
ENDROOT
BRANCH   5  11
ATOM     11  C   LIG    1       -5.878   3.831   0.802  0.00  0.00    +0.160 C 
BRANCH  11  12
ATOM     12  C   LIG    1       -7.292   3.483   0.411  0.00  0.00    +0.310 A 
ATOM     13  N   LIG    1       -7.498   2.494  -0.436  0.00  0.00    -0.510 NA
ATOM     14  C   LIG    1       -8.725   2.156  -0.798  0.00  0.00    +0.320 A 
ATOM     15  C   LIG    1       -9.799   2.865  -0.282  0.00  0.00    -0.080 A 
ATOM     16  C   LIG    1       -9.542   3.901   0.602  0.00  0.00    +0.320 A 
ATOM     17  N   LIG    1       -8.288   4.178   0.922  0.00  0.00    -0.510 NA
ENDBRANCH  11  12
ENDBRANCH   5  11
BRANCH  10  18
ATOM     18  C   LIG    1       -2.580   1.826   0.023  0.00  0.00    +0.120 C 
BRANCH  18  19
ATOM     19  C   LIG    1       -1.154   2.313   0.020  0.00  0.00    -0.090 A 
ATOM     20  C   LIG    1       -0.842   3.594   0.029  0.00  0.00    -0.010 A 
ATOM     21  S   LIG    1        0.895   3.830   0.014  0.00  0.00    +0.090 S 
ATOM     22  C   LIG    1        1.198   2.098   0.002  0.00  0.00    -0.140 A 
ATOM     23  C   LIG    1        2.401   1.385  -0.014  0.00  0.00    +0.050 A 
ATOM     24  C   LIG    1        2.390   0.010  -0.021  0.00  0.00    +0.030 A 
ATOM     25  C   LIG    1        1.185  -0.678  -0.013  0.00  0.00    +0.010 A 
ATOM     26  C   LIG    1        0.002  -0.004   0.002  0.00  0.00    +0.050 A 
ATOM     27  C   LIG    1       -0.017   1.407   0.010  0.00  0.00    -0.070 A 
ENDBRANCH  18  19
ENDBRANCH  10  18
TORSDOF 4
