REMARK  Name = ZINCrH000004mu1c.0
REMARK                            x       y       z     vdW  Elec       q    Type
REMARK                         _______ _______ _______ _____ _____    ______ ____
ROOT
ATOM      1  C   LIG    1       -4.936   0.920   0.029  0.00  0.00    +0.330 C 
ATOM      2  C   LIG    1       -6.056   1.796  -0.546  0.00  0.00    +0.020 C 
ATOM      3  C   LIG    1       -7.409   1.117  -0.309  0.00  0.00    +0.040 C 
ATOM      4  C   LIG    1       -7.748   1.161   1.187  0.00  0.00    +0.110 C 
ATOM      5  C   LIG    1       -6.555   0.656   1.960  0.00  0.00    +0.100 A 
ATOM      6  N   LIG    1       -6.512   0.240   3.236  0.00  0.00    -0.360 N 
ATOM      7  N   LIG    1       -5.192  -0.142   3.519  0.00  0.00    -0.300 NA
ATOM      8  C   LIG    1       -4.471   0.044   2.440  0.00  0.00    +0.260 A 
ATOM      9  C   LIG    1       -5.304   0.547   1.444  0.00  0.00    -0.250 A 
ENDROOT
BRANCH   1  11
ATOM     10  C   LIG    1       -2.501   1.006   0.019  0.00  0.00    +0.560 C 
ATOM     11  N   LIG    1       -3.676   1.667   0.028  0.00  0.00    -0.720 N 
ATOM     12  H   LIG    1       -3.687   2.637   0.034  0.00  0.00    +0.400 HD
ATOM     13  O   LIG    1       -2.488  -0.209   0.012  0.00  0.00    -0.530 OA
BRANCH  10  17
ATOM     14  C   LIG    1        1.152   3.171   0.008  0.00  0.00    +0.160 A 
ATOM     15  C   LIG    1        1.170   1.781   0.001  0.00  0.00    -0.020 A 
ATOM     16  C   LIG    1       -0.013   1.076   0.008  0.00  0.00    +0.120 A 
ATOM     17  C   LIG    1       -1.232   1.759   0.017  0.00  0.00    -0.180 A 
ATOM     18  C   LIG    1       -1.245   3.156   0.031  0.00  0.00    +0.090 A 
ATOM     19  C   LIG    1       -0.058   3.854   0.023  0.00  0.00    -0.090 A 
BRANCH  14  21
ATOM     20  C   LIG    1        2.229   5.289   0.009  0.00  0.00    +0.240 C 
ATOM     21  O   LIG    1        2.320   3.863   0.000  0.00  0.00    -0.310 OA
ENDBRANCH  14  21
ENDBRANCH  10  17
ENDBRANCH   1  11
BRANCH   6  22
ATOM     22  C   LIG    1       -7.642   0.193   4.167  0.00  0.00    +0.370 C 
BRANCH  22  23
ATOM     23  C   LIG    1       -7.736   1.502   4.909  0.00  0.00    -0.120 A 
ATOM     24  C   LIG    1       -7.064   1.668   6.105  0.00  0.00    +0.040 A 
ATOM     25  C   LIG    1       -7.147   2.869   6.784  0.00  0.00    +0.010 A 
ATOM     26  C   LIG    1       -7.910   3.901   6.271  0.00  0.00    +0.010 A 
ATOM     27  C   LIG    1       -8.587   3.733   5.077  0.00  0.00    +0.010 A 
ATOM     28  C   LIG    1       -8.500   2.533   4.396  0.00  0.00    +0.020 A 
ENDBRANCH  22  23
ENDBRANCH   6  22
TORSDOF 5
