REMARK  Name = ZINCpe000000YeHA.0
REMARK                            x       y       z     vdW  Elec       q    Type
REMARK                         _______ _______ _______ _____ _____    ______ ____
ROOT
ATOM      1  C   LIG    1       -0.013   1.086   0.008  0.00  0.00    +0.340 C 
ATOM      2  N   LIG    1       -0.698   1.558   1.213  0.00  0.00    -0.510 N 
ATOM      3  C   LIG    1       -2.028   1.770   1.192  0.00  0.00    +0.710 A 
ATOM      4  N   LIG    1       -2.691   2.198   2.279  0.00  0.00    -0.650 N 
ATOM      5  H   LIG    1       -3.650   2.337   2.231  0.00  0.00    +0.440 HD
ATOM      6  C   LIG    1       -2.043   2.443   3.437  0.00  0.00    +0.600 A 
ATOM      7  C   LIG    1       -0.653   2.241   3.503  0.00  0.00    -0.160 A 
ATOM      8  N   LIG    1        0.304   2.388   4.498  0.00  0.00    -0.410 N 
ATOM      9  C   LIG    1        0.074   2.839   5.873  0.00  0.00    +0.350 C 
ATOM     10  C   LIG    1        1.496   2.032   3.950  0.00  0.00    +0.460 A 
ATOM     11  N   LIG    1        1.313   1.682   2.693  0.00  0.00    -0.520 NA
ATOM     12  O   LIG    1       -2.655   2.836   4.415  0.00  0.00    -0.520 OA
ATOM     13  O   LIG    1       -2.644   1.564   0.164  0.00  0.00    -0.530 OA
ATOM     14  C   LIG    1        0.023   1.792   2.373  0.00  0.00    +0.340 A 
ENDROOT
BRANCH  10  15
ATOM     15  N   LIG    1        2.705   2.037   4.606  0.00  0.00    -0.450 N 
ATOM     16  C   LIG    1        3.040   3.421   5.057  0.00  0.00    +0.220 C 
ATOM     17  C   LIG    1        4.258   3.790   4.208  0.00  0.00    +0.020 C 
ATOM     18  C   LIG    1        5.195   4.864   4.729  0.00  0.00    +0.030 C 
ATOM     19  C   LIG    1        6.375   5.018   3.788  0.00  0.00    +0.020 C 
ATOM     20  C   LIG    1        7.524   4.145   4.149  0.00  0.00    -0.020 C 
ATOM     21  C   LIG    1        7.476   2.692   3.639  0.00  0.00    +0.020 C 
ATOM     22  C   LIG    1        6.037   2.513   3.105  0.00  0.00    +0.060 C 
ATOM     23  C   LIG    1        5.014   2.405   4.228  0.00  0.00    +0.010 C 
ATOM     24  C   LIG    1        3.795   1.585   3.687  0.00  0.00    +0.280 C 
BRANCH  23  25
ATOM     25  C   LIG    1        5.479   1.944   5.528  0.00  0.00    +0.250 C 
ATOM     26  N   LIG    1        5.843   1.583   6.543  0.00  0.00    -0.410 NA
ENDBRANCH  23  25
ENDBRANCH  10  15
TORSDOF 2
