REMARK  Name = ZINCyk00000009v5.1
REMARK                            x       y       z     vdW  Elec       q    Type
REMARK                         _______ _______ _______ _____ _____    ______ ____
ROOT
ATOM      1  C   LIG    1       -1.328   3.177  -7.449  0.00  0.00    +0.210 C 
ATOM      2  N   LIG    1       -2.789   3.156  -7.606  0.00  0.00    -0.520 NA
ENDROOT
BRANCH   2   3
ATOM      3  C   LIG    1       -3.439   2.617  -6.404  0.00  0.00    +0.240 C 
BRANCH   3   4
ATOM      4  C   LIG    1       -3.217   3.557  -5.248  0.00  0.00    -0.110 A 
ATOM      5  C   LIG    1       -4.120   4.573  -5.000  0.00  0.00    +0.090 A 
ATOM      6  C   LIG    1       -3.916   5.436  -3.939  0.00  0.00    +0.000 A 
ATOM      7  C   LIG    1       -2.808   5.282  -3.127  0.00  0.00    +0.130 A 
ATOM      8  C   LIG    1       -1.905   4.265  -3.374  0.00  0.00    -0.680 A 
ATOM      9  C   LIG    1       -2.107   3.405  -4.438  0.00  0.00    +0.130 A 
BRANCH   8  10
ATOM     10  S   LIG    1       -0.493   4.069  -2.339  0.00  0.00    +2.690 S 
ATOM     11  O   LIG    1        0.477   3.375  -3.111  0.00  0.00    -0.950 OA
ATOM     12  O   LIG    1       -0.251   5.337  -1.745  0.00  0.00    -0.950 OA
BRANCH  10  13
ATOM     13  N   LIG    1       -0.926   3.051  -1.107  0.00  0.00    -1.000 NA
ATOM     14  C   LIG    1       -0.756   1.595  -1.232  0.00  0.00    +0.260 C 
ATOM     15  C   LIG    1       -0.013   1.086   0.008  0.00  0.00    +0.220 C 
ATOM     16  O   LIG    1       -0.684   1.548   1.183  0.00  0.00    -0.380 OA
ATOM     17  C   LIG    1       -0.712   2.971   1.319  0.00  0.00    +0.220 C 
ATOM     18  C   LIG    1       -1.491   3.576   0.146  0.00  0.00    +0.270 C 
ENDBRANCH  10  13
ENDBRANCH   8  10
ENDBRANCH   3   4
ENDBRANCH   2   3
BRANCH   2  19
ATOM     19  C   LIG    1       -3.179   2.397  -8.802  0.00  0.00    +0.210 C 
BRANCH  19  20
ATOM     20  C   LIG    1       -2.696   3.117 -10.034  0.00  0.00    +0.520 C 
ATOM     21  N   LIG    1       -2.941   2.603 -11.255  0.00  0.00    -0.640 N 
ATOM     22  C   LIG    1       -3.672   1.335 -11.409  0.00  0.00    +0.320 C 
ATOM     23  C   LIG    1       -4.803   1.552 -12.426  0.00  0.00    +0.240 C 
ATOM     24  N   LIG    1       -4.239   2.081 -13.675  0.00  0.00    -0.380 N 
ATOM     25  C   LIG    1       -3.662   3.411 -13.439  0.00  0.00    +0.250 C 
ATOM     26  H   LIG    1       -3.519   1.458 -14.008  0.00  0.00    +0.420 HD
ATOM     27  C   LIG    1       -2.479   3.289 -12.472  0.00  0.00    +0.320 C 
ATOM     28  O   LIG    1       -2.087   4.161  -9.927  0.00  0.00    -0.490 OA
BRANCH  24  29
ATOM     29  C   LIG    1       -5.301   2.183 -14.685  0.00  0.00    +0.320 C 
BRANCH  29  30
ATOM     30  C   LIG    1       -5.811   0.804 -15.018  0.00  0.00    -0.160 A 
ATOM     31  C   LIG    1       -5.230   0.082 -16.044  0.00  0.00    +0.040 A 
ATOM     32  C   LIG    1       -5.694  -1.184 -16.346  0.00  0.00    +0.030 A 
ATOM     33  C   LIG    1       -6.746  -1.724 -15.630  0.00  0.00    +0.060 A 
ATOM     34  C   LIG    1       -7.330  -1.000 -14.608  0.00  0.00    +0.030 A 
ATOM     35  C   LIG    1       -6.862   0.265 -14.302  0.00  0.00    +0.030 A 
ENDBRANCH  29  30
ENDBRANCH  24  29
ENDBRANCH  19  20
ENDBRANCH   2  19
TORSDOF 8
