REMARK  Name = ZINCrH000004kXB0.0
REMARK                            x       y       z     vdW  Elec       q    Type
REMARK                         _______ _______ _______ _____ _____    ______ ____
ROOT
ATOM      1  C   LIG    1        2.900   7.104  -0.168  0.00  0.00    -0.130 A 
ATOM      2  C   LIG    1        4.257   7.423  -0.274  0.00  0.00    +0.090 A 
ATOM      3  C   LIG    1        5.202   6.421  -0.295  0.00  0.00    -0.020 A 
ATOM      4  C   LIG    1        4.810   5.090  -0.211  0.00  0.00    +0.120 A 
ATOM      5  C   LIG    1        3.455   4.763  -0.104  0.00  0.00    +0.120 A 
ATOM      6  C   LIG    1        2.503   5.765  -0.088  0.00  0.00    +0.120 A 
ENDROOT
BRANCH   4   7
ATOM      7  N   LIG    1        5.769   4.081  -0.232  0.00  0.00    -0.470 N 
ATOM      8  C   LIG    1        7.140   4.648  -0.172  0.00  0.00    +0.190 C 
ATOM      9  C   LIG    1        7.997   3.454   0.320  0.00  0.00    +0.040 C 
ATOM     10  C   LIG    1        7.064   2.755   1.336  0.00  0.00    +0.020 C 
ATOM     11  C   LIG    1        5.642   3.205   0.953  0.00  0.00    +0.180 C 
ENDBRANCH   4   7
BRANCH   5  12
ATOM     12  N   LIG    1        3.062   3.421  -0.020  0.00  0.00    -0.650 N 
ATOM     13  H   LIG    1        3.633   2.725  -0.381  0.00  0.00    +0.420 HD
ATOM     14  C   LIG    1        1.891   3.098   0.563  0.00  0.00    +0.610 C 
ATOM     15  O   LIG    1        1.222   3.958   1.105  0.00  0.00    -0.490 OA
BRANCH  14  16
ATOM     16  C   LIG    1        1.421   1.708   0.544  0.00  0.00    -0.140 A 
ATOM     17  C   LIG    1        0.265   1.232   1.088  0.00  0.00    +0.100 A 
ATOM     18  N   LIG    1        0.221  -0.083   0.848  0.00  0.00    -0.490 NA
ATOM     19  C   LIG    1        1.292  -0.430   0.186  0.00  0.00    +0.240 A 
ATOM     20  C   LIG    1       -0.775   2.041   1.819  0.00  0.00    +0.180 C 
ATOM     21  O   LIG    1        2.052   0.650  -0.017  0.00  0.00    -0.190 OA
BRANCH  19  22
ATOM     22  C   LIG    1        1.618  -1.828  -0.275  0.00  0.00    +0.120 C 
ATOM     23  C   LIG    1        2.938  -2.277   0.354  0.00  0.00    +0.050 C 
ATOM     24  C   LIG    1        1.748  -1.844  -1.799  0.00  0.00    +0.050 C 
ENDBRANCH  19  22
ENDBRANCH  14  16
ENDBRANCH   5  12
BRANCH   1  25
ATOM     25  C   LIG    1        1.889   8.176  -0.145  0.00  0.00    +0.510 C 
ATOM     26  O   LIG    1        0.710   7.897  -0.052  0.00  0.00    -0.500 OA
BRANCH  25  28
ATOM     27  C   LIG    1        1.222  10.468  -0.198  0.00  0.00    +0.260 C 
ATOM     28  O   LIG    1        2.272   9.465  -0.227  0.00  0.00    -0.360 OA
ENDBRANCH  25  28
ENDBRANCH   1  25
TORSDOF 6
