REMARK  Name = ZINCrg000000oV4v.0
REMARK                            x       y       z     vdW  Elec       q    Type
REMARK                         _______ _______ _______ _____ _____    ______ ____
ROOT
ATOM      1  C   LIG    1       -2.626   0.768  -2.557  0.00  0.00    +0.510 C 
ATOM      2  N   LIG    1       -2.035   0.883  -1.351  0.00  0.00    -0.720 N 
ATOM      3  H   LIG    1       -2.453   0.493  -0.567  0.00  0.00    +0.400 HD
ATOM      4  O   LIG    1       -2.105   1.256  -3.537  0.00  0.00    -0.490 OA
ENDROOT
BRANCH   2   5
ATOM      5  C   LIG    1       -0.763   1.598  -1.224  0.00  0.00    +0.270 C 
ATOM      6  C   LIG    1       -0.013   1.086   0.008  0.00  0.00    +0.040 C 
ATOM      7  C   LIG    1       -0.741   1.585   1.262  0.00  0.00    +0.040 C 
ATOM      8  C   LIG    1       -0.592   3.105   1.342  0.00  0.00    +0.260 C 
ATOM      9  N   LIG    1       -0.968   3.722   0.076  0.00  0.00    -0.560 N 
ATOM     10  C   LIG    1       -1.029   3.069  -1.085  0.00  0.00    +0.510 C 
ATOM     11  O   LIG    1       -1.315   3.697  -2.083  0.00  0.00    -0.500 OA
BRANCH   9  12
ATOM     12  C   LIG    1       -1.284   5.086   0.079  0.00  0.00    +0.140 A 
ATOM     13  C   LIG    1       -2.594   5.495   0.287  0.00  0.00    +0.030 A 
ATOM     14  C   LIG    1       -2.903   6.842   0.294  0.00  0.00    +0.020 A 
ATOM     15  C   LIG    1       -1.911   7.782   0.085  0.00  0.00    +0.040 A 
ATOM     16  C   LIG    1       -0.605   7.378  -0.127  0.00  0.00    +0.030 A 
ATOM     17  C   LIG    1       -0.289   6.032  -0.131  0.00  0.00    -0.030 A 
ATOM     18 CL   LIG    1        1.350   5.526  -0.397  0.00  0.00    -0.060 Cl
ENDBRANCH   9  12
ENDBRANCH   2   5
BRANCH   1  19
ATOM     19  C   LIG    1       -3.935   0.032  -2.687  0.00  0.00    +0.210 C 
BRANCH  19  21
ATOM     20  C   LIG    1       -3.446  -0.728  -4.933  0.00  0.00    +0.210 C 
ATOM     21  N   LIG    1       -4.367   0.047  -4.091  0.00  0.00    -0.510 NA
BRANCH  21  22
ATOM     22  C   LIG    1       -5.744  -0.449  -4.224  0.00  0.00    +0.160 C 
ATOM     23  C   LIG    1       -6.164  -0.420  -5.704  0.00  0.00    +0.080 C 
ATOM     24  C   LIG    1       -7.700  -0.630  -5.733  0.00  0.00    -0.310 C 
ATOM     25  S   LIG    1       -8.273   0.432  -4.353  0.00  0.00    +2.390 S 
ATOM     26  O   LIG    1       -9.256  -0.265  -3.600  0.00  0.00    -0.940 OA
ATOM     27  O   LIG    1       -8.549   1.736  -4.846  0.00  0.00    -0.930 OA
ATOM     28  C   LIG    1       -6.700   0.456  -3.421  0.00  0.00    -0.310 C 
ENDBRANCH  21  22
ENDBRANCH  19  21
ENDBRANCH   1  19
TORSDOF 5
