REMARK  Name = ZINCrD00000eJhLg.0
REMARK                            x       y       z     vdW  Elec       q    Type
REMARK                         _______ _______ _______ _____ _____    ______ ____
ROOT
ATOM      1  C   LIG    1        6.634   2.298  -1.480  0.00  0.00    +0.040 C 
ATOM      2  C   LIG    1        6.249   1.947  -0.042  0.00  0.00    +0.230 C 
ENDROOT
BRANCH   2   3
ATOM      3  N   LIG    1        4.944   1.282  -0.035  0.00  0.00    -0.730 N 
ATOM      4  H   LIG    1        4.893   0.313  -0.039  0.00  0.00    +0.400 HD
ATOM      5  C   LIG    1        3.814   2.016  -0.021  0.00  0.00    +0.560 C 
ATOM      6  O   LIG    1        3.877   3.231  -0.015  0.00  0.00    -0.510 OA
BRANCH   5   7
ATOM      7  C   LIG    1        2.502   1.349  -0.014  0.00  0.00    -0.130 A 
ATOM      8  C   LIG    1        2.412  -0.035  -0.020  0.00  0.00    +0.110 A 
ATOM      9  C   LIG    1        1.181  -0.679  -0.012  0.00  0.00    -0.050 A 
ATOM     10  C   LIG    1        0.002  -0.004   0.002  0.00  0.00    +0.130 A 
ATOM     11  C   LIG    1       -0.017   1.404   0.010  0.00  0.00    -0.230 A 
ATOM     12  C   LIG    1       -1.011   2.368   0.019  0.00  0.00    +0.290 A 
ATOM     13  N   LIG    1       -0.418   3.568   0.025  0.00  0.00    -0.430 N 
ATOM     14  H   LIG    1       -0.884   4.419   0.033  0.00  0.00    +0.450 HD
ATOM     15  N   LIG    1        0.973   3.414   0.011  0.00  0.00    -0.270 NA
ATOM     16  C   LIG    1        1.262   2.132   0.002  0.00  0.00    +0.140 A 
ENDBRANCH   5   7
ENDBRANCH   2   3
BRANCH   2  17
ATOM     17  C   LIG    1        7.302   1.010   0.554  0.00  0.00    +0.280 C 
BRANCH  17  18
ATOM     18  N   LIG    1        6.873   0.579   1.887  0.00  0.00    -0.730 N 
ATOM     19  H   LIG    1        6.032   0.894   2.251  0.00  0.00    +0.400 HD
ATOM     20  C   LIG    1        7.649  -0.256   2.607  0.00  0.00    +0.590 C 
ATOM     21  O   LIG    1        8.705  -0.652   2.149  0.00  0.00    -0.510 OA
BRANCH  20  22
ATOM     22  C   LIG    1        7.221  -0.687   3.939  0.00  0.00    -0.010 A 
ATOM     23  C   LIG    1        7.907  -1.528   4.761  0.00  0.00    +0.100 A 
ATOM     24  C   LIG    1        7.146  -1.681   5.953  0.00  0.00    -0.150 A 
ATOM     25  C   LIG    1        6.003  -0.920   5.803  0.00  0.00    -0.000 A 
ATOM     26  S   LIG    1        4.999  -1.062   7.241  0.00  0.00    +0.190 S 
ATOM     27  C   LIG    1        6.144  -2.143   8.013  0.00  0.00    -0.160 A 
ATOM     28 CL   LIG    1        5.932  -2.830   9.593  0.00  0.00    -0.010 Cl
ATOM     29  C   LIG    1        7.187  -2.367   7.237  0.00  0.00    +0.110 A 
ATOM     30  N   LIG    1        6.050  -0.313   4.570  0.00  0.00    -0.520 N 
ATOM     31  H   LIG    1        5.375   0.279   4.205  0.00  0.00    +0.420 HD
ENDBRANCH  20  22
ENDBRANCH  17  18
ENDBRANCH   2  17
TORSDOF 5
