REMARK  Name = ZINCpe00000MJIUM.0
REMARK                            x       y       z     vdW  Elec       q    Type
REMARK                         _______ _______ _______ _____ _____    ______ ____
ROOT
ATOM      1  C   LIG    1        4.053   0.252  -1.429  0.00  0.00    -0.010 C 
ATOM      2  C   LIG    1        5.567   0.014  -1.375  0.00  0.00    +0.040 C 
ATOM      3  C   LIG    1        5.830  -1.244  -0.544  0.00  0.00    +0.090 C 
ATOM      4  C   LIG    1        5.067  -1.171   0.748  0.00  0.00    +0.520 C 
ATOM      5  N   LIG    1        4.043  -0.342   0.952  0.00  0.00    -0.590 N 
ATOM      6  C   LIG    1        3.353  -0.408   2.243  0.00  0.00    +0.290 C 
ATOM      7  O   LIG    1        5.400  -1.907   1.653  0.00  0.00    -0.540 OA
ATOM      8  C   LIG    1        3.566   0.625  -0.028  0.00  0.00    +0.340 C 
ENDROOT
BRANCH   8   9
ATOM      9  C   LIG    1        2.059   0.647  -0.014  0.00  0.00    +0.180 A 
ATOM     10  N   LIG    1        1.283  -0.402  -0.012  0.00  0.00    -0.460 NA
ATOM     11  C   LIG    1        0.002  -0.004   0.002  0.00  0.00    +0.140 A 
ATOM     12  C   LIG    1       -0.016   1.343   0.009  0.00  0.00    +0.140 A 
ATOM     13  N   LIG    1        1.288   1.756  -0.001  0.00  0.00    -0.450 N 
ATOM     14  C   LIG    1        1.761   3.143   0.001  0.00  0.00    +0.320 C 
ENDBRANCH   8   9
BRANCH   1  15
ATOM     15  C   LIG    1        3.743   1.392  -2.401  0.00  0.00    +0.280 C 
BRANCH  15  17
ATOM     16  C   LIG    1        3.915   1.835  -4.791  0.00  0.00    +0.570 C 
ATOM     17  N   LIG    1        4.102   0.985  -3.762  0.00  0.00    -0.720 N 
ATOM     18  H   LIG    1        4.473   0.104  -3.922  0.00  0.00    +0.400 HD
ATOM     19  O   LIG    1        3.449   2.939  -4.590  0.00  0.00    -0.520 OA
BRANCH  16  23
ATOM     20  C   LIG    1        4.279   2.721  -9.715  0.00  0.00    +0.160 C 
ATOM     21  C   LIG    1        4.456   1.832  -8.511  0.00  0.00    +0.070 A 
ATOM     22  C   LIG    1        4.088   2.286  -7.255  0.00  0.00    +0.100 A 
ATOM     23  C   LIG    1        4.277   1.423  -6.167  0.00  0.00    -0.130 A 
ATOM     24  C   LIG    1        4.814   0.160  -6.425  0.00  0.00    +0.230 A 
ATOM     25  N   LIG    1        5.127  -0.177  -7.662  0.00  0.00    -0.230 NA
ATOM     26  N   LIG    1        4.956   0.620  -8.653  0.00  0.00    -0.220 NA
ENDBRANCH  16  23
ENDBRANCH  15  17
ENDBRANCH   1  15
TORSDOF 4
