REMARK  Name = ZINCnE000005uicj.0
REMARK                            x       y       z     vdW  Elec       q    Type
REMARK                         _______ _______ _______ _____ _____    ______ ____
ROOT
ATOM      1  C   LIG    1       -0.018   1.503   0.010  0.00  0.00    -0.080 C 
ATOM      2  C   LIG    1       -0.803   2.031   1.229  0.00  0.00    +0.260 C 
ATOM      3  N   LIG    1       -1.584   3.192   0.776  0.00  0.00    -0.610 N 
ATOM      4  C   LIG    1       -1.302   3.422  -0.653  0.00  0.00    +0.270 C 
ATOM      5  C   LIG    1       -2.419   3.924   1.540  0.00  0.00    +0.530 C 
ATOM      6  O   LIG    1       -3.015   4.864   1.058  0.00  0.00    -0.550 OA
ATOM      7  C   LIG    1       -0.831   2.047  -1.194  0.00  0.00    +0.040 C 
ENDROOT
BRANCH   7   8
ATOM      8  C   LIG    1        0.048   2.213  -2.408  0.00  0.00    -0.020 A 
ATOM      9  C   LIG    1        1.136   3.063  -2.362  0.00  0.00    +0.020 A 
ATOM     10  C   LIG    1        1.945   3.212  -3.473  0.00  0.00    +0.040 A 
ATOM     11  C   LIG    1        1.659   2.516  -4.634  0.00  0.00    -0.100 A 
ATOM     12  C   LIG    1        0.566   1.669  -4.681  0.00  0.00    +0.040 A 
ATOM     13 BR   LIG    1        2.761   2.724  -6.157  0.00  0.00    -0.070 Br
ATOM     14  C   LIG    1       -0.239   1.517  -3.568  0.00  0.00    +0.040 A 
ENDBRANCH   7   8
BRANCH   1  16
ATOM     15  O   LIG    1       -0.497  -0.626   0.924  0.00  0.00    -0.690 OA
ATOM     16  C   LIG    1        0.002  -0.004   0.002  0.00  0.00    +0.500 C 
ATOM     17  O   LIG    1        0.518  -0.602  -0.927  0.00  0.00    -0.680 OA
ENDBRANCH   1  16
BRANCH   5  18
ATOM     18  C   LIG    1       -2.614   3.573   2.993  0.00  0.00    +0.080 C 
BRANCH  18  19
ATOM     19  C   LIG    1       -3.604   4.552   3.625  0.00  0.00    +0.090 C 
BRANCH  19  20
ATOM     20  C   LIG    1       -3.802   4.197   5.100  0.00  0.00    +0.450 C 
ATOM     21  F   LIG    1       -4.303   2.894   5.203  0.00  0.00    -0.180 F 
ATOM     22  F   LIG    1       -4.708   5.092   5.679  0.00  0.00    -0.190 F 
ATOM     23  F   LIG    1       -2.575   4.278   5.768  0.00  0.00    -0.180 F 
ENDBRANCH  19  20
ENDBRANCH  18  19
ENDBRANCH   5  18
TORSDOF 5
