REMARK  Name = ZINCAx0000000f4P.0
REMARK                            x       y       z     vdW  Elec       q    Type
REMARK                         _______ _______ _______ _____ _____    ______ ____
ROOT
ATOM      1  N   LIG    1        0.754   0.384   3.289  0.00  0.00    -0.600 N 
ATOM      2  C   LIG    1       -0.208   0.917   2.511  0.00  0.00    +0.540 C 
ATOM      3  O   LIG    1       -1.353   0.531   2.613  0.00  0.00    -0.520 OA
ATOM      4  C   LIG    1        2.116   0.924   3.244  0.00  0.00    +0.310 C 
ENDROOT
BRANCH   2   5
ATOM      5  C   LIG    1        0.139   1.991   1.513  0.00  0.00    +0.000 C 
ATOM      6  C   LIG    1        0.414   1.383   0.118  0.00  0.00    +0.110 C 
ATOM      7  C   LIG    1       -0.165   2.392  -0.850  0.00  0.00    +0.520 C 
ATOM      8  N   LIG    1       -0.994   3.229  -0.204  0.00  0.00    -0.550 N 
ATOM      9  O   LIG    1        0.084   2.438  -2.037  0.00  0.00    -0.500 OA
ATOM     10  C   LIG    1       -1.083   2.897   1.222  0.00  0.00    +0.310 C 
BRANCH   8  11
ATOM     11  C   LIG    1       -1.685   4.284  -0.815  0.00  0.00    +0.170 A 
ATOM     12  C   LIG    1       -1.444   4.594  -2.146  0.00  0.00    +0.010 A 
ATOM     13  C   LIG    1       -2.124   5.635  -2.748  0.00  0.00    +0.060 A 
ATOM     14  C   LIG    1       -3.050   6.373  -2.026  0.00  0.00    +0.030 A 
ATOM     15  O   LIG    1       -3.708   7.398  -2.635  0.00  0.00    -0.310 OA
ATOM     16  C   LIG    1       -4.894   7.874  -1.991  0.00  0.00    +0.220 C 
ATOM     17  C   LIG    1       -4.594   8.046  -0.496  0.00  0.00    +0.220 C 
ATOM     18  O   LIG    1       -4.203   6.773   0.032  0.00  0.00    -0.310 OA
ATOM     19  C   LIG    1       -3.295   6.064  -0.692  0.00  0.00    +0.080 A 
ATOM     20  C   LIG    1       -2.615   5.017  -0.090  0.00  0.00    -0.010 A 
ENDBRANCH   8  11
ENDBRANCH   2   5
BRANCH   1  21
ATOM     21  C   LIG    1        0.439  -0.734   4.182  0.00  0.00    +0.340 C 
BRANCH  21  24
ATOM     22  N   LIG    1        0.432  -3.206   4.082  0.00  0.00    -0.670 N 
ATOM     23  H   LIG    1        0.063  -3.211   4.979  0.00  0.00    +0.410 HD
ATOM     24  C   LIG    1        0.660  -2.035   3.454  0.00  0.00    +0.500 C 
ATOM     25  O   LIG    1        1.043  -2.029   2.303  0.00  0.00    -0.510 OA
BRANCH  22  29
ATOM     26  C   LIG    1        1.310  -6.805   2.161  0.00  0.00    +0.090 A 
ATOM     27  C   LIG    1        0.827  -5.730   1.433  0.00  0.00    -0.020 A 
ATOM     28  C   LIG    1        0.531  -4.539   2.070  0.00  0.00    +0.030 A 
ATOM     29  C   LIG    1        0.728  -4.415   3.439  0.00  0.00    +0.140 A 
ATOM     30  C   LIG    1        1.212  -5.490   4.171  0.00  0.00    -0.060 A 
ATOM     31  C   LIG    1        1.503  -6.685   3.534  0.00  0.00    +0.120 A 
BRANCH  26  32
ATOM     32  O   LIG    1        1.596  -7.978   1.534  0.00  0.00    -0.300 OA
BRANCH  32  34
ATOM     33  C   LIG    1        1.748  -9.418  -0.401  0.00  0.00    +0.070 C 
ATOM     34  C   LIG    1        1.374  -8.030   0.123  0.00  0.00    +0.170 C 
ENDBRANCH  32  34
ENDBRANCH  26  32
BRANCH  31  35
ATOM     35  O   LIG    1        1.977  -7.740   4.250  0.00  0.00    -0.300 OA
BRANCH  35  36
ATOM     36  C   LIG    1        2.150  -7.545   5.655  0.00  0.00    +0.170 C 
ATOM     37  C   LIG    1        2.687  -8.832   6.285  0.00  0.00    +0.070 C 
ENDBRANCH  35  36
ENDBRANCH  31  35
ENDBRANCH  22  29
ENDBRANCH  21  24
ENDBRANCH   1  21
TORSDOF 9
