REMARK  Name = ZINCrD0000071XzG.0
REMARK                            x       y       z     vdW  Elec       q    Type
REMARK                         _______ _______ _______ _____ _____    ______ ____
ROOT
ATOM      1  S   LIG    1        0.572   6.054   0.176  0.00  0.00    +0.080 S 
ENDROOT
BRANCH   1   5
ATOM      2  C   LIG    1       -0.316   1.698  -0.031  0.00  0.00    -0.330 A 
ATOM      3  C   LIG    1        1.003   2.167  -0.031  0.00  0.00    +0.440 A 
ATOM      4  N   LIG    1        1.222   3.467   0.032  0.00  0.00    -0.570 NA
ATOM      5  C   LIG    1        0.215   4.331   0.094  0.00  0.00    +0.360 A 
ATOM      6  N   LIG    1       -1.051   3.936   0.096  0.00  0.00    -0.570 NA
ATOM      7  C   LIG    1       -1.361   2.647   0.031  0.00  0.00    +0.510 A 
BRANCH   7   8
ATOM      8  N   LIG    1       -2.678   2.242   0.029  0.00  0.00    -0.810 N 
ATOM      9  H   LIG    1       -3.389   2.901  -0.014  0.00  0.00    +0.410 HD
ATOM     10  H   LIG    1       -2.895   1.297   0.069  0.00  0.00    +0.430 HD
ENDBRANCH   7   8
BRANCH   2  11
ATOM     11  C   LIG    1       -0.606   0.259  -0.100  0.00  0.00    +0.540 C 
ATOM     12  O   LIG    1       -1.751  -0.136   0.001  0.00  0.00    -0.520 OA
BRANCH  11  13
ATOM     13  O   LIG    1        0.398  -0.623  -0.275  0.00  0.00    -0.350 OA
BRANCH  13  15
ATOM     14  C   LIG    1        1.300  -2.870  -0.535  0.00  0.00    +0.070 C 
ATOM     15  C   LIG    1        0.038  -2.029  -0.334  0.00  0.00    +0.200 C 
ENDBRANCH  13  15
ENDBRANCH  11  13
ENDBRANCH   2  11
ENDBRANCH   1   5
BRANCH   1  16
ATOM     16  C   LIG    1        2.381   6.003   0.140  0.00  0.00    -0.010 C 
ATOM     17  C   LIG    1        2.896   5.312   1.405  0.00  0.00    +0.090 C 
BRANCH  16  18
ATOM     18  C   LIG    1        2.922   7.407   0.078  0.00  0.00    +0.470 C 
ATOM     19  O   LIG    1        2.272   8.329   0.527  0.00  0.00    -0.430 OA
BRANCH  18  20
ATOM     20  C   LIG    1        4.191   7.653  -0.503  0.00  0.00    -0.270 A 
ATOM     21  C   LIG    1        4.468   7.835  -1.841  0.00  0.00    +0.150 A 
ATOM     22  N   LIG    1        5.787   8.046  -2.006  0.00  0.00    -0.570 N 
ATOM     23  H   LIG    1        6.218   8.202  -2.861  0.00  0.00    +0.420 HD
ATOM     24  C   LIG    1        6.444   8.005  -0.792  0.00  0.00    +0.090 A 
ATOM     25  C   LIG    1        7.778   8.154  -0.429  0.00  0.00    +0.000 A 
ATOM     26  C   LIG    1        8.145   8.060   0.896  0.00  0.00    +0.030 A 
ATOM     27  C   LIG    1        7.195   7.815   1.877  0.00  0.00    +0.000 A 
ATOM     28  C   LIG    1        5.868   7.665   1.536  0.00  0.00    +0.040 A 
ATOM     29  C   LIG    1        3.448   7.806  -2.950  0.00  0.00    +0.150 C 
ATOM     30  C   LIG    1        5.484   7.758   0.202  0.00  0.00    -0.060 A 
ENDBRANCH  18  20
ENDBRANCH  16  18
ENDBRANCH   1  16
TORSDOF 8
