REMARK  Name = ZINCtV00000L6kgd.0
REMARK                            x       y       z     vdW  Elec       q    Type
REMARK                         _______ _______ _______ _____ _____    ______ ____
ROOT
ATOM      1  N   LIG    1        3.442  -0.847   4.485  0.00  0.00    -0.370 N 
ATOM      2  N   LIG    1        4.363  -1.481   3.640  0.00  0.00    -0.240 NA
ATOM      3  C   LIG    1        4.015  -1.249   2.416  0.00  0.00    +0.260 A 
ATOM      4  N   LIG    1        2.886  -0.467   2.418  0.00  0.00    -0.490 N 
ATOM      5  C   LIG    1        2.538  -0.227   3.698  0.00  0.00    +0.470 A 
ATOM      6  S   LIG    1        1.196   0.695   4.227  0.00  0.00    -0.580 S 
ENDROOT
BRANCH   4   7
ATOM      7  C   LIG    1        2.178   0.019   1.231  0.00  0.00    +0.250 C 
ATOM      8  C   LIG    1        0.742  -0.511   1.242  0.00  0.00    +0.020 C 
ATOM      9  C   LIG    1        0.002  -0.004   0.002  0.00  0.00    +0.020 C 
ATOM     10  C   LIG    1       -0.019   1.526   0.010  0.00  0.00    +0.020 C 
ATOM     11  C   LIG    1        1.417   2.055  -0.000  0.00  0.00    +0.020 C 
ATOM     12  C   LIG    1        2.157   1.548   1.239  0.00  0.00    +0.020 C 
ENDBRANCH   4   7
BRANCH   1  13
ATOM     13  C   LIG    1        3.456  -0.857   5.950  0.00  0.00    +0.530 C 
BRANCH  13  15
ATOM     14  C   LIG    1        1.532  -2.249   6.423  0.00  0.00    +0.210 C 
ATOM     15  N   LIG    1        2.999  -2.166   6.435  0.00  0.00    -0.550 NA
BRANCH  15  16
ATOM     16  C   LIG    1        3.531  -2.445   7.775  0.00  0.00    +0.250 C 
BRANCH  16  17
ATOM     17  C   LIG    1        3.250  -3.881   8.138  0.00  0.00    -0.080 A 
ATOM     18  C   LIG    1        2.078  -4.212   8.793  0.00  0.00    +0.030 A 
ATOM     19  C   LIG    1        1.818  -5.529   9.121  0.00  0.00    +0.020 A 
ATOM     20  C   LIG    1        2.736  -6.515   8.805  0.00  0.00    -0.030 A 
ATOM     21  C   LIG    1        3.911  -6.182   8.154  0.00  0.00    +0.020 A 
ATOM     22 CL   LIG    1        2.413  -8.168   9.224  0.00  0.00    -0.070 Cl
ATOM     23  C   LIG    1        4.167  -4.866   7.821  0.00  0.00    +0.050 A 
ENDBRANCH  16  17
ENDBRANCH  15  16
ENDBRANCH  13  15
ENDBRANCH   1  13
BRANCH   3  24
ATOM     24  C   LIG    1        4.732  -1.751   1.190  0.00  0.00    +0.260 C 
BRANCH  24  25
ATOM     25  C   LIG    1        5.923  -2.575   1.606  0.00  0.00    -0.190 A 
ATOM     26  C   LIG    1        5.909  -3.890   1.828  0.00  0.00    +0.030 A 
ATOM     27  C   LIG    1        7.128  -4.432   2.200  0.00  0.00    +0.000 A 
ATOM     28  C   LIG    1        8.129  -3.555   2.288  0.00  0.00    -0.030 A 
ATOM     29  S   LIG    1        7.543  -1.947   1.881  0.00  0.00    +0.120 S 
ENDBRANCH  24  25
ENDBRANCH   3  24
TORSDOF 7
