REMARK  Name = ZINCpe000000SRxF.1
REMARK                            x       y       z     vdW  Elec       q    Type
REMARK                         _______ _______ _______ _____ _____    ______ ____
ROOT
ATOM      1  N   LIG    1       -0.242   1.246   2.466  0.00  0.00    -0.630 N 
ATOM      2  H   LIG    1        0.555   0.699   2.544  0.00  0.00    +0.430 HD
ATOM      3  C   LIG    1       -0.718   1.572   1.248  0.00  0.00    +0.520 C 
ATOM      4  O   LIG    1       -1.715   2.256   1.150  0.00  0.00    -0.460 OA
ENDROOT
BRANCH   1   8
ATOM      5  C   LIG    1       -1.789   2.313   5.799  0.00  0.00    -0.030 A 
ATOM      6  N   LIG    1       -2.429   2.751   4.761  0.00  0.00    -0.210 NA
ATOM      7  N   LIG    1       -1.960   2.434   3.633  0.00  0.00    -0.270 NA
ATOM      8  C   LIG    1       -0.892   1.694   3.610  0.00  0.00    +0.220 A 
ATOM      9  S   LIG    1       -0.415   1.369   5.223  0.00  0.00    +0.130 S 
BRANCH   5  11
ATOM     10  C   LIG    1       -2.138   4.069   7.514  0.00  0.00    +0.100 C 
ATOM     11  C   LIG    1       -2.154   2.564   7.239  0.00  0.00    +0.220 C 
ATOM     12  C   LIG    1       -3.553   2.010   7.516  0.00  0.00    +0.050 C 
BRANCH  11  13
ATOM     13  O   LIG    1       -1.208   1.914   8.090  0.00  0.00    -0.540 OA
ATOM     14  H   LIG    1       -1.164   0.956   7.970  0.00  0.00    +0.380 HD
ENDBRANCH  11  13
ENDBRANCH   5  11
ENDBRANCH   1   8
BRANCH   3  15
ATOM     15  C   LIG    1       -0.013   1.086   0.008  0.00  0.00    +0.070 C 
BRANCH  15  16
ATOM     16  C   LIG    1       -0.753   1.593  -1.232  0.00  0.00    +0.360 C 
BRANCH  16  17
ATOM     17  N   LIG    1       -0.067   1.120  -2.437  0.00  0.00    -0.460 N 
ATOM     18  N   LIG    1        0.941   1.896  -3.015  0.00  0.00    +0.080 NA
ATOM     19  N   LIG    1        1.583   1.535  -4.067  0.00  0.00    -0.190 NA
ATOM     20  C   LIG    1        1.318   0.368  -4.705  0.00  0.00    +0.060 A 
ATOM     21  C   LIG    1        2.020  -0.008  -5.852  0.00  0.00    +0.080 A 
ATOM     22  C   LIG    1        1.724  -1.200  -6.474  0.00  0.00    +0.070 A 
ATOM     23  C   LIG    1        0.733  -2.035  -5.976  0.00  0.00    +0.040 A 
ATOM     24  C   LIG    1        0.026  -1.686  -4.846  0.00  0.00    +0.100 A 
ATOM     25  C   LIG    1        0.311  -0.484  -4.201  0.00  0.00    -0.150 A 
ATOM     26  C   LIG    1       -0.415  -0.065  -2.992  0.00  0.00    +0.530 A 
ATOM     27  O   LIG    1       -1.293  -0.756  -2.510  0.00  0.00    -0.500 OA
ENDBRANCH  16  17
ENDBRANCH  15  16
ENDBRANCH   3  15
TORSDOF 6
