REMARK  Name = ZINCpe00000gMAmf.0
REMARK                            x       y       z     vdW  Elec       q    Type
REMARK                         _______ _______ _______ _____ _____    ______ ____
ROOT
ATOM      1  O   LIG    1        2.421   1.166  -0.015  0.00  0.00    -0.330 OA
ENDROOT
BRANCH   1   2
ATOM      2  C   LIG    1        1.244   1.824   0.000  0.00  0.00    +0.500 C 
ATOM      3  O   LIG    1        1.227   3.040   0.007  0.00  0.00    -0.510 OA
BRANCH   2   5
ATOM      4  C   LIG    1       -1.190   1.734   0.017  0.00  0.00    +0.140 C 
ATOM      5  C   LIG    1       -0.013   1.076   0.008  0.00  0.00    -0.040 C 
BRANCH   4  10
ATOM      6  C   LIG    1       -4.861   0.944   0.030  0.00  0.00    +0.120 A 
ATOM      7  C   LIG    1       -4.834  -0.444   0.022  0.00  0.00    -0.060 A 
ATOM      8  C   LIG    1       -3.626  -1.119   0.013  0.00  0.00    +0.050 A 
ATOM      9  C   LIG    1       -2.439  -0.417   0.005  0.00  0.00    +0.000 A 
ATOM     10  C   LIG    1       -2.454   0.981   0.019  0.00  0.00    -0.050 A 
ATOM     11  C   LIG    1       -3.676   1.660   0.029  0.00  0.00    +0.020 A 
BRANCH   6  13
ATOM     12  C   LIG    1       -7.234   0.799   0.039  0.00  0.00    +0.250 C 
ATOM     13  O   LIG    1       -6.051   1.601   0.038  0.00  0.00    -0.320 OA
ENDBRANCH   6  13
ENDBRANCH   4  10
ENDBRANCH   2   5
ENDBRANCH   1   2
BRANCH   1  14
ATOM     14  C   LIG    1        3.609   1.960  -0.022  0.00  0.00    +0.250 C 
BRANCH  14  15
ATOM     15  C   LIG    1        4.816   1.058  -0.038  0.00  0.00    +0.520 C 
ATOM     16  N   LIG    1        6.054   1.591  -0.047  0.00  0.00    -0.600 N 
ATOM     17  C   LIG    1        6.227   3.045  -0.041  0.00  0.00    +0.290 C 
ATOM     18  O   LIG    1        4.674  -0.146  -0.043  0.00  0.00    -0.510 OA
BRANCH  16  19
ATOM     19  C   LIG    1        7.228   0.714  -0.063  0.00  0.00    +0.280 C 
ATOM     20  C   LIG    1        8.088   0.978   1.185  0.00  0.00    +0.070 C 
ATOM     21  C   LIG    1        9.450   0.278   0.942  0.00  0.00    -0.310 C 
ATOM     22  S   LIG    1        9.804   0.692  -0.808  0.00  0.00    +2.390 S 
ATOM     23  O   LIG    1       10.290  -0.465  -1.476  0.00  0.00    -0.930 OA
ATOM     24  O   LIG    1       10.540   1.906  -0.866  0.00  0.00    -0.930 OA
ATOM     25  C   LIG    1        8.075   1.005  -1.318  0.00  0.00    -0.330 C 
ENDBRANCH  16  19
ENDBRANCH  14  15
ENDBRANCH   1  14
TORSDOF 7
