REMARK  Name = ZINCvU00000006wL.0
REMARK                            x       y       z     vdW  Elec       q    Type
REMARK                         _______ _______ _______ _____ _____    ______ ____
ROOT
ATOM      1  C   LIG    1        2.212  -3.102   0.122  0.00  0.00    +0.070 C 
ENDROOT
BRANCH   1   2
ATOM      2  C   LIG    1        2.916  -3.248  -1.202  0.00  0.00    -0.100 A 
ATOM      3  C   LIG    1        2.182  -3.339  -2.370  0.00  0.00    +0.040 A 
ATOM      4  C   LIG    1        2.828  -3.470  -3.585  0.00  0.00    +0.010 A 
ATOM      5  C   LIG    1        4.209  -3.518  -3.631  0.00  0.00    +0.020 A 
ATOM      6  C   LIG    1        4.943  -3.432  -2.463  0.00  0.00    +0.010 A 
ATOM      7  C   LIG    1        4.297  -3.297  -1.249  0.00  0.00    +0.060 A 
ENDBRANCH   1   2
BRANCH   1  10
ATOM      8  N   LIG    1        1.806  -5.420   0.881  0.00  0.00    -0.660 N 
ATOM      9  H   LIG    1        2.727  -5.451   1.183  0.00  0.00    +0.410 HD
ATOM     10  C   LIG    1        1.310  -4.288   0.345  0.00  0.00    +0.550 C 
ATOM     11  O   LIG    1        0.137  -4.223   0.042  0.00  0.00    -0.500 OA
BRANCH   8  16
ATOM     12  C   LIG    1       -1.493 -10.010   1.372  0.00  0.00    +0.090 C 
ATOM     13  C   LIG    1       -0.616  -8.791   1.242  0.00  0.00    -0.100 A 
ATOM     14  C   LIG    1        0.729  -8.935   0.957  0.00  0.00    +0.030 A 
ATOM     15  C   LIG    1        1.535  -7.820   0.837  0.00  0.00    +0.000 A 
ATOM     16  C   LIG    1        0.992  -6.552   1.002  0.00  0.00    +0.130 A 
ATOM     17  C   LIG    1       -0.358  -6.411   1.292  0.00  0.00    +0.030 A 
ATOM     18  C   LIG    1       -1.160  -7.530   1.406  0.00  0.00    +0.030 A 
ENDBRANCH   8  16
ENDBRANCH   1  10
BRANCH   1  19
ATOM     19  S   LIG    1        1.224  -1.585   0.115  0.00  0.00    +0.130 S 
BRANCH  19  20
ATOM     20  C   LIG    1        2.507  -0.384  -0.006  0.00  0.00    +0.210 A 
ATOM     21  N   LIG    1        3.800  -0.623  -0.072  0.00  0.00    -0.320 NA
ATOM     22  N   LIG    1        4.458   0.477  -0.147  0.00  0.00    -0.030 NA
ATOM     23  N   LIG    1        3.655   1.486  -0.141  0.00  0.00    -0.060 NA
ATOM     24  N   LIG    1        2.351   0.968  -0.053  0.00  0.00    -0.310 N 
BRANCH  24  25
ATOM     25  C   LIG    1        1.149   1.689  -0.016  0.00  0.00    +0.110 A 
ATOM     26  C   LIG    1        0.106   1.347  -0.865  0.00  0.00    +0.040 A 
ATOM     27  C   LIG    1       -1.075   2.062  -0.830  0.00  0.00    -0.070 A 
ATOM     28  C   LIG    1       -1.224   3.111   0.059  0.00  0.00    +0.050 A 
ATOM     29  C   LIG    1       -0.186   3.454   0.907  0.00  0.00    +0.040 A 
ATOM     30  C   LIG    1       -2.206   1.696  -1.756  0.00  0.00    +0.100 C 
ATOM     31  C   LIG    1        0.999   2.747   0.872  0.00  0.00    -0.060 A 
ATOM     32  C   LIG    1        2.129   3.121   1.796  0.00  0.00    +0.100 C 
ENDBRANCH  24  25
ENDBRANCH  19  20
ENDBRANCH   1  19
TORSDOF 6
