REMARK  Name = ZINCqH00000070rV.0
REMARK                            x       y       z     vdW  Elec       q    Type
REMARK                         _______ _______ _______ _____ _____    ______ ____
ROOT
ATOM      1  S   LIG    1        1.680   2.129  -0.003  0.00  0.00    +0.070 S 
ENDROOT
BRANCH   1   6
ATOM      2  N   LIG    1        2.303   4.859   0.012  0.00  0.00    -0.410 N 
ATOM      3  C   LIG    1        1.596   6.032   0.020  0.00  0.00    +0.400 A 
ATOM      4  N   LIG    1        0.331   5.721   0.030  0.00  0.00    -0.280 NA
ATOM      5  N   LIG    1        0.189   4.444   0.025  0.00  0.00    -0.290 NA
ATOM      6  C   LIG    1        1.366   3.863   0.010  0.00  0.00    +0.150 A 
BRANCH   2  10
ATOM      7  C   LIG    1        6.452   4.417  -0.012  0.00  0.00    +0.150 A 
ATOM      8  C   LIG    1        5.840   5.265  -0.923  0.00  0.00    +0.010 A 
ATOM      9  C   LIG    1        4.467   5.411  -0.916  0.00  0.00    +0.080 A 
ATOM     10  C   LIG    1        3.699   4.710   0.004  0.00  0.00    +0.060 A 
ATOM     11  C   LIG    1        4.313   3.867   0.920  0.00  0.00    +0.080 A 
ATOM     12  C   LIG    1        5.685   3.717   0.908  0.00  0.00    -0.050 A 
BRANCH   7  14
ATOM     13  C   LIG    1        8.367   3.384   0.947  0.00  0.00    +0.250 C 
ATOM     14  O   LIG    1        7.804   4.273  -0.019  0.00  0.00    -0.310 OA
ENDBRANCH   7  14
ENDBRANCH   2  10
ENDBRANCH   1   6
BRANCH   1  15
ATOM     15  C   LIG    1       -0.018   1.503   0.010  0.00  0.00    +0.090 C 
BRANCH  15  16
ATOM     16  C   LIG    1        0.002  -0.004   0.002  0.00  0.00    +0.450 C 
ATOM     17  O   LIG    1        1.062  -0.597  -0.011  0.00  0.00    -0.450 OA
BRANCH  16  18
ATOM     18  C   LIG    1       -1.216  -0.729   0.010  0.00  0.00    -0.270 A 
ATOM     19  C   LIG    1       -2.491  -0.206   0.031  0.00  0.00    +0.340 A 
ATOM     20  N   LIG    1       -3.391  -1.208   0.028  0.00  0.00    -0.570 N 
ATOM     21  H   LIG    1       -4.353  -1.085   0.037  0.00  0.00    +0.420 HD
ATOM     22  C   LIG    1       -2.757  -2.434   0.015  0.00  0.00    +0.070 A 
ATOM     23  C   LIG    1       -3.224  -3.744   0.013  0.00  0.00    +0.000 A 
ATOM     24  C   LIG    1       -2.330  -4.793  -0.001  0.00  0.00    +0.030 A 
ATOM     25  C   LIG    1       -0.963  -4.556  -0.012  0.00  0.00    +0.000 A 
ATOM     26  C   LIG    1       -0.481  -3.265  -0.011  0.00  0.00    +0.060 A 
ATOM     27  C   LIG    1       -1.373  -2.197   0.003  0.00  0.00    -0.060 A 
ENDBRANCH  16  18
ENDBRANCH  15  16
ENDBRANCH   1  15
TORSDOF 6
