REMARK  Name = ZINCLJ0000000pT8.0
REMARK                            x       y       z     vdW  Elec       q    Type
REMARK                         _______ _______ _______ _____ _____    ______ ____
ROOT
ATOM      1  C   LIG    1        2.433   0.861   0.176  0.00  0.00    -0.170 C 
ATOM      2  C   LIG    1        3.589   1.609   0.416  0.00  0.00    +0.220 A 
ATOM      3  S   LIG    1        3.731   3.376   0.390  0.00  0.00    +0.200 S 
ATOM      4  C   LIG    1        5.460   3.389   0.786  0.00  0.00    -0.290 A 
ATOM      5  C   LIG    1        5.818   1.974   0.908  0.00  0.00    +0.560 A 
ATOM      6  O   LIG    1        6.949   1.608   1.173  0.00  0.00    -0.450 OA
ATOM      7  C   LIG    1        6.271   4.469   0.936  0.00  0.00    +0.250 C 
ATOM      8  N   LIG    1        4.827   1.121   0.709  0.00  0.00    -0.490 N 
ENDROOT
BRANCH   7   9
ATOM      9  C   LIG    1        5.701   5.822   0.921  0.00  0.00    -0.090 A 
ATOM     10  C   LIG    1        4.348   6.018   1.220  0.00  0.00    +0.070 A 
ATOM     11  C   LIG    1        3.817   7.289   1.206  0.00  0.00    +0.050 A 
ATOM     12  C   LIG    1        4.619   8.379   0.895  0.00  0.00    +0.070 A 
ATOM     13  O   LIG    1        4.337   9.711   0.813  0.00  0.00    -0.300 OA
ATOM     14  C   LIG    1        5.612  10.379   0.864  0.00  0.00    +0.440 C 
ATOM     15  O   LIG    1        6.529   9.408   0.327  0.00  0.00    -0.300 OA
ATOM     16  C   LIG    1        5.970   8.192   0.595  0.00  0.00    +0.030 A 
ATOM     17  C   LIG    1        6.512   6.922   0.613  0.00  0.00    +0.090 A 
ENDBRANCH   7   9
BRANCH   8  18
ATOM     18  C   LIG    1        5.046  -0.260   0.798  0.00  0.00    +0.090 A 
ATOM     19  C   LIG    1        4.868  -0.915   2.009  0.00  0.00    +0.080 A 
ATOM     20  C   LIG    1        5.079  -2.278   2.092  0.00  0.00    +0.050 A 
ATOM     21  C   LIG    1        5.478  -2.987   0.974  0.00  0.00    +0.110 A 
ATOM     22  C   LIG    1        5.662  -2.335  -0.232  0.00  0.00    -0.160 A 
ATOM     23  C   LIG    1        5.446  -0.974  -0.323  0.00  0.00    +0.090 A 
BRANCH  22  24
ATOM     24  C   LIG    1        6.097  -3.111  -1.448  0.00  0.00    +0.510 C 
ATOM     25  F   LIG    1        5.585  -2.502  -2.598  0.00  0.00    -0.170 F 
ATOM     26  F   LIG    1        5.615  -4.422  -1.361  0.00  0.00    -0.170 F 
ATOM     27  F   LIG    1        7.494  -3.131  -1.514  0.00  0.00    -0.170 F 
ENDBRANCH  22  24
ENDBRANCH   8  18
BRANCH   1  28
ATOM     28  C   LIG    1        1.147   1.537   0.007  0.00  0.00    +0.590 C 
ATOM     29  N   LIG    1        0.033   0.816  -0.224  0.00  0.00    -0.660 N 
ATOM     30  H   LIG    1        0.093  -0.145  -0.346  0.00  0.00    +0.410 HD
ATOM     31  O   LIG    1        1.084   2.751   0.074  0.00  0.00    -0.510 OA
BRANCH  29  32
ATOM     32  C   LIG    1       -1.211   1.453  -0.294  0.00  0.00    +0.130 A 
ATOM     33  C   LIG    1       -1.312   2.721  -0.850  0.00  0.00    +0.090 A 
ATOM     34  C   LIG    1       -2.541   3.348  -0.917  0.00  0.00    +0.020 A 
ATOM     35  C   LIG    1       -3.670   2.713  -0.432  0.00  0.00    +0.110 A 
ATOM     36  C   LIG    1       -3.572   1.450   0.122  0.00  0.00    -0.660 A 
ATOM     37  C   LIG    1       -2.347   0.816   0.188  0.00  0.00    +0.100 A 
BRANCH  36  38
ATOM     38  S   LIG    1       -5.013   0.645   0.739  0.00  0.00    +2.690 S 
ATOM     39  O   LIG    1       -5.947   1.673   1.044  0.00  0.00    -0.950 OA
ATOM     40  O   LIG    1       -4.564  -0.305   1.695  0.00  0.00    -0.950 OA
BRANCH  38  41
ATOM     41  N   LIG    1       -5.664  -0.222  -0.513  0.00  0.00    -1.000 NA
ATOM     42  C   LIG    1       -6.662   0.384  -1.404  0.00  0.00    +0.290 C 
ATOM     43  C   LIG    1       -6.183   0.224  -2.855  0.00  0.00    +0.010 C 
ATOM     44  C   LIG    1       -5.907  -1.255  -3.134  0.00  0.00    +0.020 C 
ATOM     45  C   LIG    1       -4.799  -1.754  -2.204  0.00  0.00    +0.010 C 
ATOM     46  C   LIG    1       -5.259  -1.614  -0.749  0.00  0.00    +0.290 C 
ENDBRANCH  38  41
ENDBRANCH  36  38
ENDBRANCH  29  32
ENDBRANCH   1  28
BRANCH   1  48
ATOM     47  N   LIG    1        2.566  -1.699   0.035  0.00  0.00    -0.390 NA
ATOM     48  C   LIG    1        2.507  -0.567   0.097  0.00  0.00    +0.240 C 
ENDBRANCH   1  48
TORSDOF 8
