REMARK  Name = ZINCpk000004FD6c.0
REMARK                            x       y       z     vdW  Elec       q    Type
REMARK                         _______ _______ _______ _____ _____    ______ ____
ROOT
ATOM      1  C   LIG    1        0.281   4.213  -0.129  0.00  0.00    +0.240 C 
ATOM      2  C   LIG    1       -1.157   3.705  -0.111  0.00  0.00    +0.010 C 
ATOM      3  C   LIG    1       -1.230   2.219   0.280  0.00  0.00    +0.040 C 
ATOM      4  C   LIG    1       -0.374   1.457  -0.710  0.00  0.00    -0.020 C 
ATOM      5  C   LIG    1       -0.255  -0.050  -0.522  0.00  0.00    +0.250 C 
ATOM      6  N   LIG    1        1.124  -0.402  -0.935  0.00  0.00    -0.620 N 
ATOM      7  C   LIG    1        1.845   0.850  -1.285  0.00  0.00    +0.280 C 
ATOM      8  C   LIG    1        1.637  -1.647  -0.986  0.00  0.00    +0.580 C 
ATOM      9  O   LIG    1        2.753  -1.827  -1.435  0.00  0.00    -0.520 OA
ATOM     10  C   LIG    1        1.095   1.925  -0.494  0.00  0.00    -0.020 C 
ATOM     11  C   LIG    1        1.181   3.343  -1.023  0.00  0.00    +0.060 C 
ENDROOT
BRANCH   8  12
ATOM     12  C   LIG    1        0.846  -2.793  -0.495  0.00  0.00    -0.110 A 
ATOM     13  C   LIG    1        0.893  -4.017  -1.169  0.00  0.00    +0.100 A 
ATOM     14  C   LIG    1        0.156  -5.087  -0.713  0.00  0.00    +0.070 A 
ATOM     15  C   LIG    1       -0.639  -4.954   0.418  0.00  0.00    +0.060 A 
ATOM     16  O   LIG    1       -1.451  -5.814   1.079  0.00  0.00    -0.230 OA
ATOM     17  C   LIG    1       -2.001  -5.185   2.129  0.00  0.00    +0.640 A 
ATOM     18  N   LIG    1       -1.560  -3.912   2.172  0.00  0.00    -0.650 N 
ATOM     19  H   LIG    1       -1.803  -3.242   2.830  0.00  0.00    +0.450 HD
ATOM     20  O   LIG    1       -2.776  -5.686   2.920  0.00  0.00    -0.480 OA
ATOM     21  C   LIG    1       -0.691  -3.733   1.095  0.00  0.00    +0.060 A 
ATOM     22  C   LIG    1        0.052  -2.658   0.646  0.00  0.00    +0.080 A 
ENDBRANCH   8  12
BRANCH   1  25
ATOM     23  C   LIG    1        1.088   5.207   3.479  0.00  0.00    +0.090 C 
ATOM     24  C   LIG    1        0.545   5.222   2.074  0.00  0.00    +0.510 C 
ATOM     25  N   LIG    1        0.809   4.198   1.238  0.00  0.00    -0.730 N 
ATOM     26  H   LIG    1        1.350   3.452   1.541  0.00  0.00    +0.400 HD
ATOM     27  O   LIG    1       -0.131   6.155   1.694  0.00  0.00    -0.540 OA
ENDBRANCH   1  25
TORSDOF 2
