REMARK  Name = ZINCqH0000038VQE.0
REMARK                            x       y       z     vdW  Elec       q    Type
REMARK                         _______ _______ _______ _____ _____    ______ ____
ROOT
ATOM      1  C   LIG    1        1.359   1.681   2.731  0.00  0.00    +0.410 C 
ENDROOT
BRANCH   1   2
ATOM      2  C   LIG    1        1.589   0.451   3.570  0.00  0.00    -0.070 A 
ATOM      3  C   LIG    1        1.342   0.485   4.929  0.00  0.00    +0.030 A 
ATOM      4  C   LIG    1        1.548  -0.644   5.699  0.00  0.00    +0.060 A 
ATOM      5  C   LIG    1        2.010  -1.806   5.112  0.00  0.00    +0.000 A 
ATOM      6  C   LIG    1        2.263  -1.841   3.751  0.00  0.00    +0.100 A 
ATOM      7  F   LIG    1        2.716  -2.977   3.176  0.00  0.00    -0.140 F 
ATOM      8  C   LIG    1        2.052  -0.711   2.980  0.00  0.00    +0.000 A 
ENDBRANCH   1   2
BRANCH   1  14
ATOM      9  C   LIG    1       -0.003   1.073   0.015  0.00  0.00    +0.320 C 
ATOM     10  N   LIG    1       -0.685   1.538   1.226  0.00  0.00    -0.450 N 
ATOM     11  C   LIG    1       -2.025   1.785   1.359  0.00  0.00    +0.130 A 
ATOM     12  C   LIG    1       -2.222   2.189   2.628  0.00  0.00    +0.140 A 
ATOM     13  N   LIG    1       -1.034   2.197   3.251  0.00  0.00    -0.470 NA
ATOM     14  C   LIG    1       -0.109   1.808   2.417  0.00  0.00    +0.190 A 
ENDBRANCH   1  14
BRANCH   1  15
ATOM     15  N   LIG    1        1.805   2.866   3.469  0.00  0.00    -0.720 N 
ATOM     16  H   LIG    1        1.833   2.851   4.438  0.00  0.00    +0.410 HD
ATOM     17  C   LIG    1        2.176   3.976   2.801  0.00  0.00    +0.720 C 
ATOM     18  N   LIG    1        2.586   5.066   3.480  0.00  0.00    -0.680 N 
ATOM     19  H   LIG    1        2.537   5.080   4.449  0.00  0.00    +0.410 HD
ATOM     20  O   LIG    1        2.141   3.995   1.586  0.00  0.00    -0.570 OA
BRANCH  18  21
ATOM     21  C   LIG    1        3.084   6.178   2.787  0.00  0.00    +0.130 A 
ATOM     22  C   LIG    1        3.635   6.019   1.523  0.00  0.00    +0.090 A 
ATOM     23  C   LIG    1        4.120   7.117   0.839  0.00  0.00    +0.010 A 
ATOM     24  C   LIG    1        4.067   8.374   1.416  0.00  0.00    +0.110 A 
ATOM     25  C   LIG    1        3.522   8.536   2.679  0.00  0.00    -0.020 A 
ATOM     26  F   LIG    1        4.547   9.445   0.747  0.00  0.00    -0.130 F 
ATOM     27  C   LIG    1        3.030   7.441   3.366  0.00  0.00    +0.100 A 
ATOM     28  F   LIG    1        2.499   7.598   4.598  0.00  0.00    -0.130 F 
ENDBRANCH  18  21
ENDBRANCH   1  15
TORSDOF 4
