REMARK  Name = ZINCkj000005mkyD.0
REMARK                            x       y       z     vdW  Elec       q    Type
REMARK                         _______ _______ _______ _____ _____    ______ ____
ROOT
ATOM      1  C   LIG    1        1.104   7.440  -1.433  0.00  0.00    +0.170 C 
ENDROOT
BRANCH   1   2
ATOM      2  C   LIG    1        1.162   7.835  -2.910  0.00  0.00    +0.220 C 
BRANCH   2   3
ATOM      3  O   LIG    1        2.278   7.194  -3.531  0.00  0.00    -0.540 OA
ATOM      4  H   LIG    1        3.132   7.426  -3.140  0.00  0.00    +0.390 HD
ENDBRANCH   2   3
BRANCH   2   5
ATOM      5  C   LIG    1        1.314   9.353  -3.027  0.00  0.00    +0.240 C 
BRANCH   5   6
ATOM      6  N   LIG    1        1.250   9.744  -4.441  0.00  0.00    -0.390 N 
ATOM      7  C   LIG    1       -0.041   9.310  -5.034  0.00  0.00    +0.260 C 
ATOM      8  C   LIG    1       -0.198  10.242  -6.263  0.00  0.00    +0.080 C 
ATOM      9  C   LIG    1        0.364  11.587  -5.750  0.00  0.00    +0.060 C 
ATOM     10  C   LIG    1        1.275  11.217  -4.565  0.00  0.00    +0.250 C 
ATOM     11  H   LIG    1        2.021   9.339  -4.950  0.00  0.00    +0.430 HD
ENDBRANCH   5   6
ENDBRANCH   2   5
ENDBRANCH   1   2
BRANCH   1  12
ATOM     12  O   LIG    1        0.845   6.039  -1.324  0.00  0.00    -0.370 OA
BRANCH  12  13
ATOM     13  C   LIG    1        0.771   5.565   0.022  0.00  0.00    +0.250 C 
BRANCH  13  14
ATOM     14  C   LIG    1        0.496   4.083   0.018  0.00  0.00    -0.090 A 
ATOM     15  C   LIG    1       -0.808   3.624   0.028  0.00  0.00    +0.060 A 
ATOM     16  C   LIG    1       -1.065   2.265   0.019  0.00  0.00    +0.040 A 
ATOM     17  C   LIG    1       -0.016   1.361   0.009  0.00  0.00    +0.050 A 
ATOM     18  O   LIG    1        0.002  -0.004   0.002  0.00  0.00    -0.310 OA
ATOM     19  C   LIG    1        1.336  -0.373   0.399  0.00  0.00    +0.440 C 
ATOM     20  O   LIG    1        2.139   0.749  -0.014  0.00  0.00    -0.310 OA
ATOM     21  C   LIG    1        1.297   1.824  -0.001  0.00  0.00    +0.030 A 
ATOM     22  C   LIG    1        1.548   3.186   0.004  0.00  0.00    +0.060 A 
ENDBRANCH  13  14
ENDBRANCH  12  13
ENDBRANCH   1  12
TORSDOF 7
