REMARK  Name = ZINCrD000000A7CO.0
REMARK                            x       y       z     vdW  Elec       q    Type
REMARK                         _______ _______ _______ _____ _____    ______ ____
ROOT
ATOM      1  C   LIG    1       -5.083   4.350   0.986  0.00  0.00    -0.020 C 
ATOM      2  C   LIG    1       -5.020   3.257  -0.085  0.00  0.00    +0.070 C 
ATOM      3  C   LIG    1       -3.675   2.533   0.011  0.00  0.00    +0.190 C 
ATOM      4  N   LIG    1       -2.584   3.497  -0.182  0.00  0.00    -0.480 N 
ATOM      5  C   LIG    1       -2.596   4.529   0.862  0.00  0.00    +0.200 C 
ATOM      6  C   LIG    1       -3.909   5.312   0.791  0.00  0.00    +0.050 C 
ENDROOT
BRANCH   1   8
ATOM      7  O   LIG    1       -7.111   4.901  -0.089  0.00  0.00    -0.520 OA
ATOM      8  C   LIG    1       -6.381   5.105   0.858  0.00  0.00    +0.530 C 
ATOM      9  N   LIG    1       -6.730   6.008   1.795  0.00  0.00    -0.610 N 
ATOM     10  C   LIG    1       -5.808   6.348   2.888  0.00  0.00    +0.260 C 
ATOM     11  C   LIG    1       -6.529   6.163   4.222  0.00  0.00    +0.010 C 
ATOM     12  C   LIG    1       -7.825   6.977   4.217  0.00  0.00    +0.010 C 
ATOM     13  C   LIG    1       -8.740   6.475   3.098  0.00  0.00    +0.020 C 
ATOM     14  C   LIG    1       -8.042   6.668   1.748  0.00  0.00    +0.230 C 
BRANCH  14  15
ATOM     15  C   LIG    1       -8.891   6.042   0.638  0.00  0.00    +0.190 C 
BRANCH  15  16
ATOM     16  O   LIG    1       -9.094   4.656   0.918  0.00  0.00    -0.560 OA
ATOM     17  H   LIG    1       -9.625   4.194   0.255  0.00  0.00    +0.370 HD
ENDBRANCH  15  16
ENDBRANCH  14  15
ENDBRANCH   1   8
BRANCH   4  18
ATOM     18  C   LIG    1       -1.353   2.852  -0.232  0.00  0.00    +0.340 A 
ATOM     19  N   LIG    1       -0.910   2.201   0.832  0.00  0.00    -0.490 NA
ATOM     20  C   LIG    1        0.256   1.581   0.829  0.00  0.00    +0.350 A 
ATOM     21  C   LIG    1        1.054   1.581  -0.296  0.00  0.00    -0.230 A 
ATOM     22  C   LIG    1        0.624   2.248  -1.437  0.00  0.00    +0.150 A 
ATOM     23  C   LIG    1       -0.599   2.893  -1.402  0.00  0.00    -0.070 A 
ATOM     24 CL   LIG    1       -1.186   3.742  -2.798  0.00  0.00    -0.010 Cl
BRANCH  21  25
ATOM     25  C   LIG    1        2.380   0.864  -0.288  0.00  0.00    +0.520 C 
ATOM     26  F   LIG    1        3.406   1.778  -0.547  0.00  0.00    -0.170 F 
ATOM     27  F   LIG    1        2.380  -0.128  -1.275  0.00  0.00    -0.170 F 
ATOM     28  F   LIG    1        2.584   0.275   0.964  0.00  0.00    -0.170 F 
ENDBRANCH  21  25
ENDBRANCH   4  18
TORSDOF 5
