REMARK  Name = ZINCqH0000007JdC.0
REMARK                            x       y       z     vdW  Elec       q    Type
REMARK                         _______ _______ _______ _____ _____    ______ ____
ROOT
ATOM      1  C   LIG    1        1.466   1.960  -0.001  0.00  0.00    +0.200 C 
ATOM      2  C   LIG    1       -0.019   1.538   0.011  0.00  0.00    +0.040 C 
ATOM      3  C   LIG    1        0.002  -0.004   0.002  0.00  0.00    -0.010 C 
ATOM      4  C   LIG    1        1.498  -0.385  -0.014  0.00  0.00    +0.200 C 
ATOM      5  C   LIG    1       -0.696  -0.538  -1.250  0.00  0.00    +0.030 C 
ATOM      6  N   LIG    1        2.191   0.794   0.567  0.00  0.00    -0.440 N 
ENDROOT
BRANCH   6   7
ATOM      7  C   LIG    1        3.526   0.814   0.203  0.00  0.00    +0.420 A 
ATOM      8  C   LIG    1        4.381  -0.246   0.547  0.00  0.00    -0.060 A 
ATOM      9  N   LIG    1        4.229  -1.415   1.216  0.00  0.00    -0.450 NA
ATOM     10  C   LIG    1        5.367  -2.044   1.254  0.00  0.00    +0.480 A 
ATOM     11  N   LIG    1        6.323  -1.316   0.609  0.00  0.00    -0.450 N 
ATOM     12  C   LIG    1        5.726  -0.169   0.149  0.00  0.00    +0.290 A 
ATOM     13  N   LIG    1        6.139   0.894  -0.533  0.00  0.00    -0.530 NA
ATOM     14  C   LIG    1        5.301   1.864  -0.833  0.00  0.00    +0.540 A 
ATOM     15  N   LIG    1        4.027   1.834  -0.486  0.00  0.00    -0.550 NA
BRANCH  11  16
ATOM     16  C   LIG    1        7.729  -1.690   0.439  0.00  0.00    +0.210 C 
ATOM     17  C   LIG    1        8.139  -3.105   0.853  0.00  0.00    +0.060 C 
ATOM     18  C   LIG    1        8.561  -1.905   1.704  0.00  0.00    +0.030 C 
ENDBRANCH  11  16
ENDBRANCH   6   7
BRANCH   1  23
ATOM     19  C   LIG    1        1.958   5.549   1.072  0.00  0.00    +0.120 A 
ATOM     20  C   LIG    1        2.054   5.413   2.449  0.00  0.00    -0.090 A 
ATOM     21  C   LIG    1        1.960   4.161   3.027  0.00  0.00    +0.030 A 
ATOM     22  C   LIG    1        1.765   3.046   2.234  0.00  0.00    +0.000 A 
ATOM     23  C   LIG    1        1.674   3.179   0.860  0.00  0.00    -0.020 A 
ATOM     24  C   LIG    1        1.767   4.428   0.278  0.00  0.00    +0.000 A 
BRANCH  19  26
ATOM     25  C   LIG    1        2.247   7.889   1.381  0.00  0.00    +0.230 C 
ATOM     26  O   LIG    1        2.051   6.779   0.502  0.00  0.00    -0.320 OA
ENDBRANCH  19  26
ENDBRANCH   1  23
TORSDOF 4
