REMARK  Name = ZINCpe000000X0rf.0
REMARK                            x       y       z     vdW  Elec       q    Type
REMARK                         _______ _______ _______ _____ _____    ______ ____
ROOT
ATOM      1  C   LIG    1        0.052   2.258  -2.235  0.00  0.00    +0.050 C 
ATOM      2  C   LIG    1       -0.657   1.189  -1.401  0.00  0.00    -0.020 C 
ATOM      3  C   LIG    1       -2.130   1.577  -1.174  0.00  0.00    +0.260 C 
ATOM      4  N   LIG    1       -2.331   1.681   0.283  0.00  0.00    -0.620 N 
ATOM      5  C   LIG    1       -0.997   1.992   0.860  0.00  0.00    +0.270 C 
ATOM      6  C   LIG    1       -3.489   1.527   0.956  0.00  0.00    +0.510 C 
ATOM      7  O   LIG    1       -3.509   1.641   2.163  0.00  0.00    -0.520 OA
ATOM      8  C   LIG    1       -0.039   1.115   0.015  0.00  0.00    +0.130 C 
ENDROOT
BRANCH   8   9
ATOM      9  N   LIG    1        1.319   1.675   0.020  0.00  0.00    -0.520 NA
ATOM     10  C   LIG    1        2.256   0.792  -0.691  0.00  0.00    +0.140 C 
ATOM     11  C   LIG    1        3.642   1.441  -0.713  0.00  0.00    +0.220 C 
ATOM     12  O   LIG    1        4.060   1.707   0.628  0.00  0.00    -0.380 OA
ATOM     13  C   LIG    1        3.171   2.565   1.349  0.00  0.00    +0.220 C 
ATOM     14  C   LIG    1        1.780   1.927   1.393  0.00  0.00    +0.150 C 
ENDBRANCH   8   9
BRANCH   6  15
ATOM     15  C   LIG    1       -4.759   1.212   0.207  0.00  0.00    +0.370 C 
BRANCH  15  16
ATOM     16  N   LIG    1       -5.869   1.094   1.157  0.00  0.00    -0.600 N 
ATOM     17  C   LIG    1       -6.298  -0.142   1.820  0.00  0.00    +0.340 C 
ATOM     18  C   LIG    1       -7.465   0.234   2.699  0.00  0.00    -0.080 A 
ATOM     19  C   LIG    1       -8.272  -0.484   3.550  0.00  0.00    +0.030 A 
ATOM     20  C   LIG    1       -9.295   0.153   4.234  0.00  0.00    +0.040 A 
ATOM     21  C   LIG    1       -9.507   1.509   4.062  0.00  0.00    +0.000 A 
ATOM     22  C   LIG    1       -8.703   2.238   3.210  0.00  0.00    +0.090 A 
ATOM     23  C   LIG    1       -7.670   1.604   2.518  0.00  0.00    -0.160 A 
ATOM     24  C   LIG    1       -6.665   2.100   1.559  0.00  0.00    +0.570 C 
ATOM     25  O   LIG    1       -6.571   3.252   1.185  0.00  0.00    -0.520 OA
ENDBRANCH  15  16
ENDBRANCH   6  15
TORSDOF 3
