REMARK  Name = ZINCqH00000363ht.0
REMARK                            x       y       z     vdW  Elec       q    Type
REMARK                         _______ _______ _______ _____ _____    ______ ____
ROOT
ATOM      1  C   LIG    1        3.205   7.902   0.012  0.00  0.00    +0.280 C 
ATOM      2  C   LIG    1        4.657   8.425   0.030  0.00  0.00    +0.050 C 
ATOM      3  C   LIG    1        5.453   7.222   0.602  0.00  0.00    +0.040 C 
ATOM      4  C   LIG    1        4.686   6.023  -0.004  0.00  0.00    +0.250 C 
ATOM      5  N   LIG    1        3.270   6.433   0.004  0.00  0.00    -0.620 N 
ATOM      6  C   LIG    1        2.211   5.600   0.010  0.00  0.00    +0.530 C 
ATOM      7  O   LIG    1        1.085   6.050   0.023  0.00  0.00    -0.500 OA
ENDROOT
BRANCH   1  12
ATOM      8  C   LIG    1        1.720   8.008  -3.461  0.00  0.00    +0.100 A 
ATOM      9  C   LIG    1        1.201   9.293  -3.502  0.00  0.00    -0.040 A 
ATOM     10  C   LIG    1        1.329  10.125  -2.407  0.00  0.00    -0.040 A 
ATOM     11  C   LIG    1        1.979   9.676  -1.267  0.00  0.00    +0.100 A 
ATOM     12  C   LIG    1        2.499   8.390  -1.226  0.00  0.00    -0.080 A 
ATOM     13  C   LIG    1        2.375   7.560  -2.323  0.00  0.00    +0.040 A 
BRANCH   8  15
ATOM     14  C   LIG    1        0.913   7.718  -5.679  0.00  0.00    +0.230 C 
ATOM     15  O   LIG    1        1.594   7.189  -4.539  0.00  0.00    -0.320 OA
ENDBRANCH   8  15
BRANCH  11  16
ATOM     16  O   LIG    1        2.106  10.495  -0.189  0.00  0.00    -0.310 OA
ATOM     17  C   LIG    1        1.547  11.805  -0.300  0.00  0.00    +0.230 C 
ENDBRANCH  11  16
ENDBRANCH   1  12
BRANCH   6  18
ATOM     18  C   LIG    1        2.426   4.108   0.001  0.00  0.00    +0.230 C 
BRANCH  18  19
ATOM     19  O   LIG    1        1.160   3.445   0.009  0.00  0.00    -0.290 OA
BRANCH  19  20
ATOM     20  C   LIG    1        1.176   2.086   0.002  0.00  0.00    +0.130 A 
ATOM     21  C   LIG    1        2.385   1.405  -0.014  0.00  0.00    -0.080 A 
ATOM     22  C   LIG    1        2.398   0.024  -0.021  0.00  0.00    +0.040 A 
ATOM     23  C   LIG    1        1.208  -0.680  -0.013  0.00  0.00    -0.030 A 
ATOM     24  C   LIG    1        0.002  -0.004   0.002  0.00  0.00    +0.050 A 
ATOM     25  C   LIG    1       -0.017   1.377   0.010  0.00  0.00    -0.110 A 
ATOM     26  C   LIG    1       -1.331   2.113   0.020  0.00  0.00    +0.100 C 
ENDBRANCH  19  20
ENDBRANCH  18  19
ENDBRANCH   6  18
TORSDOF 6
