REMARK  Name = ZINCqH0000032ERa.0
REMARK                            x       y       z     vdW  Elec       q    Type
REMARK                         _______ _______ _______ _____ _____    ______ ____
ROOT
ATOM      1  C   LIG    1       -0.076   5.465   6.248  0.00  0.00    +0.040 C 
ATOM      2  C   LIG    1       -1.172   6.514   6.053  0.00  0.00    -0.070 C 
ATOM      3  C   LIG    1       -2.388   6.141   6.914  0.00  0.00    +0.140 C 
ATOM      4  C   LIG    1       -2.542   4.635   6.855  0.00  0.00    +0.100 A 
ATOM      5  N   LIG    1       -2.413   3.783   7.833  0.00  0.00    -0.290 NA
ATOM      6  N   LIG    1       -2.624   2.494   7.319  0.00  0.00    -0.480 N 
ATOM      7  H   LIG    1       -2.588   1.667   7.823  0.00  0.00    +0.440 HD
ATOM      8  C   LIG    1       -2.888   2.610   5.997  0.00  0.00    +0.260 A 
ATOM      9  C   LIG    1       -2.851   3.917   5.694  0.00  0.00    -0.270 A 
ATOM     10  C   LIG    1       -3.116   4.586   4.349  0.00  0.00    +0.360 C 
ATOM     11  N   LIG    1       -1.880   5.298   3.985  0.00  0.00    -0.610 N 
ATOM     12  C   LIG    1       -1.046   4.758   3.074  0.00  0.00    +0.710 C 
ATOM     13  N   LIG    1       -1.391   3.622   2.435  0.00  0.00    -0.740 N 
ATOM     14  H   LIG    1       -2.201   3.152   2.686  0.00  0.00    +0.400 HD
ATOM     15  O   LIG    1        0.016   5.295   2.828  0.00  0.00    -0.580 OA
ATOM     16  C   LIG    1       -0.644   7.881   6.494  0.00  0.00    +0.040 C 
ATOM     17  C   LIG    1       -1.548   6.575   4.587  0.00  0.00    +0.300 C 
ENDROOT
BRANCH  13  18
ATOM     18  C   LIG    1       -0.542   3.099   1.362  0.00  0.00    +0.310 C 
ATOM     19  C   LIG    1       -0.738   1.588   1.258  0.00  0.00    +0.020 C 
ATOM     20  C   LIG    1       -0.016   1.092  -0.000  0.00  0.00    +0.040 C 
ATOM     21  C   LIG    1       -0.774   1.600  -1.224  0.00  0.00    +0.080 C 
ATOM     22  C   LIG    1       -1.009   3.085  -1.123  0.00  0.00    -0.100 A 
ATOM     23  C   LIG    1       -1.339   3.769  -2.289  0.00  0.00    +0.090 A 
ATOM     24  C   LIG    1       -1.571   5.131  -2.260  0.00  0.00    -0.020 A 
ATOM     25  C   LIG    1       -1.475   5.818  -1.065  0.00  0.00    +0.030 A 
ATOM     26  C   LIG    1       -1.145   5.140   0.091  0.00  0.00    +0.030 A 
ATOM     27  F   LIG    1       -1.433   3.097  -3.457  0.00  0.00    -0.140 F 
ATOM     28  C   LIG    1       -0.909   3.772   0.065  0.00  0.00    -0.070 A 
ENDBRANCH  13  18
TORSDOF 1
