REMARK  Name = ZINCpk00000y6v3G.0
REMARK                            x       y       z     vdW  Elec       q    Type
REMARK                         _______ _______ _______ _____ _____    ______ ____
ROOT
ATOM      1  O   LIG    1       -1.247  -0.419  -0.533  0.00  0.00    -0.950 OA
ATOM      2  S   LIG    1        0.002  -0.004   0.002  0.00  0.00    +2.700 S 
ATOM      3  O   LIG    1        1.252  -0.385  -0.556  0.00  0.00    -0.950 OA
ENDROOT
BRANCH   2   4
ATOM      4  C   LIG    1       -0.022   1.758   0.012  0.00  0.00    -0.720 A 
ATOM      5  C   LIG    1       -1.229   2.432   0.021  0.00  0.00    +0.170 A 
ATOM      6  C   LIG    1       -1.250   3.813   0.035  0.00  0.00    -0.090 A 
ATOM      7  C   LIG    1       -0.059   4.524   0.027  0.00  0.00    +0.180 A 
ATOM      8  C   LIG    1        1.151   3.845   0.012  0.00  0.00    -0.030 A 
ATOM      9  C   LIG    1        1.167   2.464   0.004  0.00  0.00    +0.170 A 
BRANCH   7  10
ATOM     10  O   LIG    1       -0.078   5.883   0.035  0.00  0.00    -0.300 OA
BRANCH  10  11
ATOM     11  C   LIG    1       -1.360   6.514   0.050  0.00  0.00    +0.200 C 
BRANCH  11  12
ATOM     12  C   LIG    1       -1.180   8.033   0.057  0.00  0.00    +0.410 C 
ATOM     13  F   LIG    1       -0.481   8.426  -1.089  0.00  0.00    -0.200 F 
ATOM     14  F   LIG    1       -0.459   8.412   1.195  0.00  0.00    -0.200 F 
ENDBRANCH  11  12
ENDBRANCH  10  11
ENDBRANCH   7  10
ENDBRANCH   2   4
BRANCH   2  15
ATOM     15  N   LIG    1        0.024  -0.503   1.581  0.00  0.00    -1.110 NA
ATOM     16  H   LIG    1        0.795  -0.977   1.929  0.00  0.00    +0.420 HD
BRANCH  15  17
ATOM     17  C   LIG    1       -1.122  -0.228   2.452  0.00  0.00    +0.300 C 
BRANCH  17  18
ATOM     18  C   LIG    1       -1.025  -1.092   3.711  0.00  0.00    +0.170 C 
ATOM     19  C   LIG    1       -2.223  -0.807   4.620  0.00  0.00    +0.160 C 
ATOM     20  N   LIG    1       -2.166  -1.696   5.790  0.00  0.00    -0.500 NA
ATOM     21  C   LIG    1       -2.171  -3.106   5.374  0.00  0.00    +0.150 C 
ATOM     22  C   LIG    1       -0.974  -3.367   4.458  0.00  0.00    +0.220 C 
ATOM     23  O   LIG    1       -1.029  -2.474   3.342  0.00  0.00    -0.370 OA
BRANCH  20  24
ATOM     24  C   LIG    1       -3.269  -1.416   6.718  0.00  0.00    +0.150 C 
ATOM     25  C   LIG    1       -4.086  -2.606   7.224  0.00  0.00    +0.020 C 
ATOM     26  C   LIG    1       -4.695  -1.637   6.208  0.00  0.00    -0.020 C 
ENDBRANCH  20  24
ENDBRANCH  17  18
ENDBRANCH  15  17
ENDBRANCH   2  15
TORSDOF 8
