REMARK  Name = ZINCpe00000yECD4.0
REMARK                            x       y       z     vdW  Elec       q    Type
REMARK                         _______ _______ _______ _____ _____    ______ ____
ROOT
ATOM      1  C   LIG    1       -7.126   7.613   6.049  0.00  0.00    +0.220 C 
ATOM      2  C   LIG    1       -8.399   7.755   6.887  0.00  0.00    +0.010 C 
ATOM      3  C   LIG    1       -8.783   6.394   7.470  0.00  0.00    +0.020 C 
ATOM      4  C   LIG    1       -9.064   5.414   6.326  0.00  0.00    +0.260 C 
ATOM      5  N   LIG    1       -7.897   5.381   5.434  0.00  0.00    -0.620 N 
ATOM      6  C   LIG    1       -7.304   4.212   5.122  0.00  0.00    +0.510 C 
ATOM      7  O   LIG    1       -6.342   4.198   4.384  0.00  0.00    -0.520 OA
ATOM      8  C   LIG    1       -7.385   6.648   4.894  0.00  0.00    +0.270 C 
ENDROOT
BRANCH   1  10
ATOM      9  C   LIG    1       -5.456   9.169   5.197  0.00  0.00    +0.560 C 
ATOM     10  N   LIG    1       -6.741   8.923   5.518  0.00  0.00    -0.720 N 
ATOM     11  H   LIG    1       -7.412   9.613   5.397  0.00  0.00    +0.400 HD
ATOM     12  O   LIG    1       -4.603   8.339   5.431  0.00  0.00    -0.520 OA
BRANCH   9  13
ATOM     13  C   LIG    1       -5.078  10.474   4.545  0.00  0.00    -0.170 C 
ATOM     14  C   LIG    1       -3.619  10.922   4.654  0.00  0.00    +0.090 C 
ATOM     15  C   LIG    1       -4.703  11.639   5.463  0.00  0.00    +0.060 C 
BRANCH  13  16
ATOM     16  C   LIG    1       -5.824  10.806   3.252  0.00  0.00    +0.220 C 
BRANCH  16  18
ATOM     17  C   LIG    1       -6.128  10.073   0.990  0.00  0.00    +0.200 C 
ATOM     18  O   LIG    1       -5.481   9.852   2.245  0.00  0.00    -0.380 OA
ENDBRANCH  16  18
ENDBRANCH  13  16
ENDBRANCH   9  13
ENDBRANCH   1  10
BRANCH   6  19
ATOM     19  C   LIG    1       -7.838   2.921   5.689  0.00  0.00    +0.140 C 
BRANCH  19  20
ATOM     20  C   LIG    1       -7.004   1.770   5.189  0.00  0.00    -0.220 A 
ATOM     21  C   LIG    1       -7.275   1.000   4.110  0.00  0.00    +0.240 A 
ATOM     22  N   LIG    1       -6.292   0.082   4.003  0.00  0.00    -0.380 N 
ATOM     23  N   LIG    1       -5.381   0.301   5.044  0.00  0.00    -0.300 NA
ATOM     24  C   LIG    1       -6.192  -0.957   2.974  0.00  0.00    +0.350 C 
ATOM     25  C   LIG    1       -5.809   1.313   5.754  0.00  0.00    +0.090 A 
ATOM     26  C   LIG    1       -5.130   1.887   6.971  0.00  0.00    +0.150 C 
ENDBRANCH  19  20
ENDBRANCH   6  19
TORSDOF 6
