REMARK  Name = ZINCvU00000007lz.0
REMARK                            x       y       z     vdW  Elec       q    Type
REMARK                         _______ _______ _______ _____ _____    ______ ____
ROOT
ATOM      1  C   LIG    1        5.578  -2.847  -1.241  0.00  0.00    +0.090 C 
ATOM      2  C   LIG    1        4.962  -2.722   0.154  0.00  0.00    +0.010 C 
ENDROOT
BRANCH   2   3
ATOM      3  C   LIG    1        3.645  -1.995   0.057  0.00  0.00    +0.540 C 
ATOM      4  N   LIG    1        3.622  -0.651  -0.037  0.00  0.00    -0.660 N 
ATOM      5  H   LIG    1        4.452  -0.157  -0.119  0.00  0.00    +0.420 HD
ATOM      6  O   LIG    1        2.605  -2.621   0.064  0.00  0.00    -0.490 OA
BRANCH   4   7
ATOM      7  C   LIG    1        2.400   0.031  -0.015  0.00  0.00    +0.150 A 
ATOM      8  C   LIG    1        1.344  -0.457   0.742  0.00  0.00    +0.080 A 
ATOM      9  C   LIG    1        0.139   0.218   0.762  0.00  0.00    +0.060 A 
ATOM     10  C   LIG    1       -0.016   1.380   0.027  0.00  0.00    -0.010 A 
ATOM     11  C   LIG    1        1.035   1.869  -0.729  0.00  0.00    -0.160 A 
ATOM     12 CL   LIG    1       -1.534   2.222   0.048  0.00  0.00    -0.040 Cl
ATOM     13  C   LIG    1        2.242   1.198  -0.751  0.00  0.00    +0.060 A 
BRANCH  11  14
ATOM     14  C   LIG    1        0.863   3.135  -1.528  0.00  0.00    +0.510 C 
ATOM     15  F   LIG    1        0.546   4.191  -0.666  0.00  0.00    -0.170 F 
ATOM     16  F   LIG    1       -0.170   2.965  -2.455  0.00  0.00    -0.170 F 
ATOM     17  F   LIG    1        2.053   3.426  -2.203  0.00  0.00    -0.170 F 
ENDBRANCH  11  14
ENDBRANCH   4   7
ENDBRANCH   2   3
BRANCH   2  18
ATOM     18  S   LIG    1        4.690  -4.377   0.846  0.00  0.00    +0.110 S 
BRANCH  18  19
ATOM     19  C   LIG    1        6.326  -5.006   1.020  0.00  0.00    +0.200 A 
ATOM     20  N   LIG    1        7.427  -4.364   0.701  0.00  0.00    -0.320 NA
ATOM     21  N   LIG    1        8.502  -5.217   0.996  0.00  0.00    -0.470 N 
ATOM     22  H   LIG    1        9.446  -5.029   0.872  0.00  0.00    +0.440 HD
ATOM     23  C   LIG    1        7.957  -6.361   1.492  0.00  0.00    +0.340 A 
ATOM     24  N   LIG    1        6.643  -6.208   1.502  0.00  0.00    -0.510 NA
BRANCH  23  25
ATOM     25  C   LIG    1        8.694  -7.547   1.941  0.00  0.00    +0.010 C 
ATOM     26  C   LIG    1        8.025  -8.616   2.413  0.00  0.00    +0.130 C 
BRANCH  26  27
ATOM     27  C   LIG    1        8.765  -9.807   2.863  0.00  0.00    -0.090 A 
ATOM     28  C   LIG    1       10.161  -9.833   2.797  0.00  0.00    +0.070 A 
ATOM     29  C   LIG    1       10.848 -10.949   3.225  0.00  0.00    -0.020 A 
ATOM     30  C   LIG    1       10.156 -12.048   3.711  0.00  0.00    +0.110 A 
ATOM     31  C   LIG    1        8.772 -12.031   3.773  0.00  0.00    -0.010 A 
ATOM     32  F   LIG    1       10.835 -13.141   4.123  0.00  0.00    -0.140 F 
ATOM     33  C   LIG    1        8.073 -10.919   3.353  0.00  0.00    +0.080 A 
ENDBRANCH  26  27
ENDBRANCH  23  25
ENDBRANCH  18  19
ENDBRANCH   2  18
TORSDOF 7
