REMARK  Name = ZINCvU00000007Lz.1
REMARK                            x       y       z     vdW  Elec       q    Type
REMARK                         _______ _______ _______ _____ _____    ______ ____
ROOT
ATOM      1  C   LIG    1        2.045  -4.126   0.011  0.00  0.00    -0.660 A 
ATOM      2  C   LIG    1        3.368  -4.527  -0.014  0.00  0.00    +0.130 A 
ATOM      3  C   LIG    1        4.377  -3.587  -0.111  0.00  0.00    +0.040 A 
ATOM      4  C   LIG    1        4.065  -2.242  -0.184  0.00  0.00    -0.010 A 
ATOM      5  C   LIG    1        2.736  -1.837  -0.160  0.00  0.00    +0.150 A 
ATOM      6 CL   LIG    1        5.332  -1.062  -0.305  0.00  0.00    -0.050 Cl
ATOM      7  C   LIG    1        1.727  -2.784  -0.057  0.00  0.00    +0.160 A 
ENDROOT
BRANCH   5   8
ATOM      8  N   LIG    1        2.417  -0.476  -0.234  0.00  0.00    -0.680 N 
ATOM      9  H   LIG    1        3.003   0.183   0.170  0.00  0.00    +0.410 HD
ATOM     10  C   LIG    1        1.294  -0.080  -0.866  0.00  0.00    +0.710 C 
ATOM     11  N   LIG    1        1.034   1.233  -1.020  0.00  0.00    -0.670 N 
ATOM     12  H   LIG    1        1.686   1.893  -0.737  0.00  0.00    +0.410 HD
ATOM     13  O   LIG    1        0.515  -0.909  -1.297  0.00  0.00    -0.540 OA
BRANCH  11  14
ATOM     14  C   LIG    1       -0.179   1.646  -1.588  0.00  0.00    +0.120 A 
ATOM     15  C   LIG    1       -0.777   0.881  -2.580  0.00  0.00    +0.110 A 
ATOM     16  C   LIG    1       -1.970   1.292  -3.143  0.00  0.00    +0.010 A 
ATOM     17  C   LIG    1       -2.576   2.460  -2.711  0.00  0.00    +0.120 A 
ATOM     18  C   LIG    1       -1.982   3.226  -1.722  0.00  0.00    -0.020 A 
ATOM     19  F   LIG    1       -3.745   2.856  -3.260  0.00  0.00    -0.130 F 
ATOM     20  C   LIG    1       -0.785   2.821  -1.159  0.00  0.00    +0.110 A 
ATOM     21  F   LIG    1       -0.205   3.568  -0.194  0.00  0.00    -0.130 F 
ENDBRANCH  11  14
ENDBRANCH   5   8
BRANCH   1  22
ATOM     22  S   LIG    1        0.763  -5.329   0.136  0.00  0.00    +2.690 S 
ATOM     23  O   LIG    1        1.307  -6.547  -0.353  0.00  0.00    -0.940 OA
ATOM     24  O   LIG    1       -0.406  -4.727  -0.404  0.00  0.00    -0.940 OA
BRANCH  22  25
ATOM     25  N   LIG    1        0.466  -5.563   1.748  0.00  0.00    -1.040 N 
ATOM     26  H   LIG    1        0.585  -6.443   2.140  0.00  0.00    +0.430 HD
BRANCH  25  32
ATOM     27  C   LIG    1        0.465  -4.401   3.870  0.00  0.00    +0.110 A 
ATOM     28  C   LIG    1        0.049  -3.337   4.653  0.00  0.00    -0.060 A 
ATOM     29  C   LIG    1       -0.791  -2.374   4.122  0.00  0.00    +0.040 A 
ATOM     30  C   LIG    1       -1.212  -2.468   2.809  0.00  0.00    +0.010 A 
ATOM     31  C   LIG    1       -0.797  -3.524   2.019  0.00  0.00    +0.030 A 
ATOM     32  C   LIG    1        0.045  -4.493   2.545  0.00  0.00    +0.120 A 
BRANCH  27  34
ATOM     33  C   LIG    1        1.677  -5.191   5.758  0.00  0.00    +0.250 C 
ATOM     34  O   LIG    1        1.286  -5.351   4.393  0.00  0.00    -0.310 OA
ENDBRANCH  27  34
ENDBRANCH  25  32
ENDBRANCH  22  25
ENDBRANCH   1  22
TORSDOF 6
