REMARK  Name = ZINCrD000000AJUF.0
REMARK                            x       y       z     vdW  Elec       q    Type
REMARK                         _______ _______ _______ _____ _____    ______ ____
ROOT
ATOM      1  O   LIG    1       -0.657   2.524  -0.648  0.00  0.00    -0.510 OA
ATOM      2  C   LIG    1       -0.053   3.380  -0.031  0.00  0.00    +0.560 C 
ATOM      3  N   LIG    1        1.250   3.204   0.264  0.00  0.00    -0.700 N 
ATOM      4  H   LIG    1        1.750   3.916   0.694  0.00  0.00    +0.410 HD
ENDROOT
BRANCH   2   5
ATOM      5  C   LIG    1       -0.747   4.611   0.395  0.00  0.00    -0.170 A 
ATOM      6  C   LIG    1       -0.056   5.593   1.109  0.00  0.00    +0.100 A 
ATOM      7  C   LIG    1       -0.705   6.743   1.499  0.00  0.00    -0.010 A 
ATOM      8  C   LIG    1       -2.049   6.923   1.193  0.00  0.00    +0.160 A 
ATOM      9  C   LIG    1       -2.741   5.945   0.488  0.00  0.00    -0.080 A 
ATOM     10  C   LIG    1       -2.098   4.795   0.089  0.00  0.00    +0.130 A 
BRANCH   8  11
ATOM     11  O   LIG    1       -2.687   8.055   1.585  0.00  0.00    -0.260 OA
BRANCH  11  12
ATOM     12  C   LIG    1       -4.096   8.118   1.355  0.00  0.00    +0.150 C 
ATOM     13  C   LIG    1       -4.939   8.910   2.356  0.00  0.00    +0.120 C 
ATOM     14  C   LIG    1       -4.686   9.472   0.955  0.00  0.00    +0.200 C 
ATOM     15  F   LIG    1       -5.756   9.468   0.054  0.00  0.00    -0.150 F 
ATOM     16  F   LIG    1       -3.805  10.553   0.842  0.00  0.00    -0.150 F 
ENDBRANCH  11  12
ENDBRANCH   8  11
ENDBRANCH   2   5
BRANCH   3  17
ATOM     17  C   LIG    1        1.911   1.938  -0.063  0.00  0.00    +0.060 C 
ATOM     18  C   LIG    1        3.046   1.476   0.854  0.00  0.00    +0.090 C 
ATOM     19  C   LIG    1        1.693   0.761   0.889  0.00  0.00    +0.100 C 
BRANCH  17  20
ATOM     20  C   LIG    1        2.035   1.631  -1.533  0.00  0.00    +0.560 C 
ATOM     21  N   LIG    1        1.676   2.553  -2.447  0.00  0.00    -0.660 N 
ATOM     22  H   LIG    1        1.437   3.450  -2.163  0.00  0.00    +0.410 HD
ATOM     23  O   LIG    1        2.464   0.555  -1.893  0.00  0.00    -0.510 OA
BRANCH  21  24
ATOM     24  C   LIG    1        1.646   2.218  -3.805  0.00  0.00    +0.150 A 
ATOM     25  C   LIG    1        1.346   0.919  -4.195  0.00  0.00    +0.010 A 
ATOM     26  C   LIG    1        1.312   0.593  -5.537  0.00  0.00    +0.030 A 
ATOM     27  C   LIG    1        1.588   1.555  -6.491  0.00  0.00    -0.020 A 
ATOM     28  C   LIG    1        1.893   2.848  -6.106  0.00  0.00    +0.030 A 
ATOM     29  C   LIG    1        1.923   3.182  -4.766  0.00  0.00    -0.030 A 
ENDBRANCH  21  24
ENDBRANCH  17  20
ENDBRANCH   3  17
TORSDOF 6
