REMARK  Name = ZINCAx0000000f0B.0
REMARK                            x       y       z     vdW  Elec       q    Type
REMARK                         _______ _______ _______ _____ _____    ______ ____
ROOT
ATOM      1  C   LIG    1       10.277  -4.579   5.994  0.00  0.00    +0.240 A 
ATOM      2  C   LIG    1       11.478  -4.572   6.686  0.00  0.00    -0.090 A 
ATOM      3  C   LIG    1       12.446  -3.634   6.384  0.00  0.00    +0.200 A 
ATOM      4  C   LIG    1       12.226  -2.695   5.390  0.00  0.00    -0.730 A 
ATOM      5  C   LIG    1       11.041  -2.691   4.687  0.00  0.00    +0.240 A 
ATOM      6  C   LIG    1       10.050  -3.630   4.986  0.00  0.00    -0.180 A 
ENDROOT
BRANCH   4   7
ATOM      7  S   LIG    1       13.471  -1.505   5.017  0.00  0.00    +2.690 S 
ATOM      8  O   LIG    1       14.275  -1.387   6.183  0.00  0.00    -0.950 OA
ATOM      9  O   LIG    1       12.805  -0.402   4.418  0.00  0.00    -0.950 OA
BRANCH   7  10
ATOM     10  N   LIG    1       14.440  -2.160   3.845  0.00  0.00    -0.990 NA
ATOM     11  C   LIG    1       15.595  -2.929   4.250  0.00  0.00    +0.280 C 
ATOM     12  C   LIG    1       16.816  -1.999   4.411  0.00  0.00    +0.010 C 
ATOM     13  C   LIG    1       17.281  -1.536   3.095  0.00  0.00    +0.000 C 
ATOM     14  C   LIG    1       16.263  -0.697   2.327  0.00  0.00    +0.010 C 
ATOM     15  C   LIG    1       15.330  -1.611   1.572  0.00  0.00    +0.030 C 
ATOM     16  C   LIG    1       14.092  -1.929   2.429  0.00  0.00    +0.280 C 
ENDBRANCH   7  10
ENDBRANCH   4   7
BRANCH   1  18
ATOM     17  C   LIG    1        9.627  -6.434   7.327  0.00  0.00    +0.250 C 
ATOM     18  O   LIG    1        9.325  -5.499   6.289  0.00  0.00    -0.280 OA
ENDBRANCH   1  18
BRANCH   6  19
ATOM     19  C   LIG    1        8.777  -3.627   4.243  0.00  0.00    +0.510 C 
ATOM     20  O   LIG    1        7.920  -4.449   4.503  0.00  0.00    -0.480 OA
BRANCH  19  21
ATOM     21  O   LIG    1        8.564  -2.713   3.276  0.00  0.00    -0.330 OA
BRANCH  21  22
ATOM     22  C   LIG    1        7.287  -2.770   2.586  0.00  0.00    +0.260 C 
BRANCH  22  23
ATOM     23  C   LIG    1        7.230  -1.680   1.546  0.00  0.00    +0.520 C 
ATOM     24  N   LIG    1        6.131  -1.539   0.778  0.00  0.00    -0.610 N 
ATOM     25  C   LIG    1        6.054  -0.483  -0.242  0.00  0.00    +0.300 C 
ATOM     26  C   LIG    1        4.747   0.292  -0.042  0.00  0.00    +0.190 C 
ATOM     27  N   LIG    1        3.620  -0.649  -0.037  0.00  0.00    -0.490 N 
ATOM     28  C   LIG    1        3.714  -1.587   1.090  0.00  0.00    +0.190 C 
ATOM     29  C   LIG    1        4.979  -2.439   0.937  0.00  0.00    +0.290 C 
ATOM     30  O   LIG    1        8.171  -0.930   1.402  0.00  0.00    -0.510 OA
BRANCH  27  31
ATOM     31  C   LIG    1        2.400   0.031  -0.021  0.00  0.00    +0.110 A 
ATOM     32  C   LIG    1        1.206  -0.680  -0.013  0.00  0.00    -0.010 A 
ATOM     33  C   LIG    1        0.002  -0.004   0.002  0.00  0.00    +0.030 A 
ATOM     34  C   LIG    1       -0.017   1.379   0.010  0.00  0.00    -0.020 A 
ATOM     35  C   LIG    1        1.169   2.089   0.002  0.00  0.00    +0.030 A 
ATOM     36  C   LIG    1        2.377   1.420  -0.013  0.00  0.00    -0.040 A 
ENDBRANCH  27  31
ENDBRANCH  22  23
ENDBRANCH  21  22
ENDBRANCH  19  21
ENDBRANCH   6  19
TORSDOF 8
