REMARK  Name = ZINCqH0000002zYe.0
REMARK                            x       y       z     vdW  Elec       q    Type
REMARK                         _______ _______ _______ _____ _____    ______ ____
ROOT
ATOM      1  N   LIG    1       -0.272   1.263  -2.456  0.00  0.00    -0.600 N 
ATOM      2  C   LIG    1       -0.726   1.566  -1.224  0.00  0.00    +0.520 C 
ATOM      3  O   LIG    1       -1.724   2.243  -1.095  0.00  0.00    -0.520 OA
ENDROOT
BRANCH   1   4
ATOM      4  C   LIG    1        0.934   0.445  -2.612  0.00  0.00    +0.280 C 
BRANCH   4   6
ATOM      5  C   LIG    1        1.804  -1.887  -2.832  0.00  0.00    +0.030 C 
ATOM      6  C   LIG    1        0.544  -1.033  -2.670  0.00  0.00    +0.000 C 
ENDBRANCH   4   6
ENDBRANCH   1   4
BRANCH   2   7
ATOM      7  C   LIG    1        0.007   1.065  -0.006  0.00  0.00    +0.150 C 
BRANCH   7   8
ATOM      8  C   LIG    1       -0.701   1.540   1.236  0.00  0.00    -0.230 A 
ATOM      9  C   LIG    1       -0.456   2.695   1.899  0.00  0.00    +0.110 A 
ATOM     10  N   LIG    1       -1.299   2.751   2.952  0.00  0.00    -0.470 N 
ATOM     11  H   LIG    1       -1.351   3.467   3.604  0.00  0.00    +0.440 HD
ATOM     12  N   LIG    1       -2.081   1.588   2.941  0.00  0.00    -0.290 NA
ATOM     13  C   LIG    1        0.570   3.733   1.526  0.00  0.00    +0.130 C 
ATOM     14  C   LIG    1       -1.721   0.864   1.912  0.00  0.00    +0.090 A 
ATOM     15  C   LIG    1       -2.306  -0.469   1.523  0.00  0.00    +0.150 C 
ENDBRANCH   7   8
ENDBRANCH   2   7
BRANCH   1  16
ATOM     16  C   LIG    1       -0.984   1.750  -3.640  0.00  0.00    +0.330 C 
BRANCH  16  17
ATOM     17  C   LIG    1       -0.431   3.093  -4.042  0.00  0.00    +0.500 C 
ATOM     18  N   LIG    1       -0.937   3.737  -5.112  0.00  0.00    -0.670 N 
ATOM     19  H   LIG    1       -1.612   3.309  -5.662  0.00  0.00    +0.420 HD
ATOM     20  O   LIG    1        0.470   3.594  -3.402  0.00  0.00    -0.500 OA
BRANCH  18  21
ATOM     21  C   LIG    1       -0.489   5.024  -5.430  0.00  0.00    +0.170 A 
ATOM     22  C   LIG    1        0.835   5.375  -5.205  0.00  0.00    +0.060 A 
ATOM     23  C   LIG    1        1.276   6.646  -5.525  0.00  0.00    -0.010 A 
ATOM     24  C   LIG    1        0.396   7.571  -6.059  0.00  0.00    +0.040 A 
ATOM     25  C   LIG    1       -0.925   7.226  -6.279  0.00  0.00    +0.070 A 
ATOM     26 CL   LIG    1        2.933   7.085  -5.249  0.00  0.00    -0.050 Cl
ATOM     27  C   LIG    1       -1.370   5.956  -5.966  0.00  0.00    -0.060 A 
ATOM     28 CL   LIG    1       -3.029   5.524  -6.242  0.00  0.00    -0.050 Cl
ENDBRANCH  18  21
ENDBRANCH  16  17
ENDBRANCH   1  16
TORSDOF 7
