REMARK  Name = ZINCnE000001HRP8.0
REMARK                            x       y       z     vdW  Elec       q    Type
REMARK                         _______ _______ _______ _____ _____    ______ ____
ROOT
ATOM      1  C   LIG    1       -1.334  -0.403  -2.690  0.00  0.00    +0.550 C 
ATOM      2  N   LIG    1       -2.032  -0.667  -3.812  0.00  0.00    -0.650 N 
ATOM      3  H   LIG    1       -1.578  -1.018  -4.594  0.00  0.00    +0.410 HD
ATOM      4  O   LIG    1       -1.915  -0.043  -1.684  0.00  0.00    -0.510 OA
ENDROOT
BRANCH   2   5
ATOM      5  C   LIG    1       -3.412  -0.435  -3.850  0.00  0.00    +0.110 A 
ATOM      6  C   LIG    1       -4.009   0.011  -5.023  0.00  0.00    +0.000 A 
ATOM      7  C   LIG    1       -5.370   0.240  -5.064  0.00  0.00    +0.050 A 
ATOM      8  C   LIG    1       -6.142   0.025  -3.933  0.00  0.00    +0.050 A 
ATOM      9  N   LIG    1       -7.505   0.163  -3.665  0.00  0.00    -0.540 NA
ATOM     10  C   LIG    1       -7.702  -0.190  -2.379  0.00  0.00    +0.400 A 
ATOM     11  O   LIG    1       -6.529  -0.542  -1.827  0.00  0.00    -0.230 OA
ATOM     12  S   LIG    1       -9.213  -0.190  -1.575  0.00  0.00    -0.690 S 
ATOM     13  C   LIG    1       -5.547  -0.422  -2.753  0.00  0.00    -0.000 A 
ATOM     14  C   LIG    1       -4.182  -0.657  -2.716  0.00  0.00    +0.060 A 
ENDBRANCH   2   5
BRANCH   1  20
ATOM     15  C   LIG    1        0.851  -0.387  -1.494  0.00  0.00    -0.410 A 
ATOM     16  C   LIG    1        2.223  -0.531  -1.493  0.00  0.00    +0.080 A 
ATOM     17  C   LIG    1        2.891  -0.832  -2.667  0.00  0.00    +0.020 A 
ATOM     18  C   LIG    1        2.190  -0.989  -3.848  0.00  0.00    +0.040 A 
ATOM     19  C   LIG    1        0.818  -0.847  -3.864  0.00  0.00    +0.030 A 
ATOM     20  C   LIG    1        0.137  -0.550  -2.682  0.00  0.00    -0.060 A 
BRANCH  15  21
ATOM     21  S   LIG    1        0.002  -0.005   0.002  0.00  0.00    +1.370 S 
ATOM     22  O   LIG    1        1.032   0.519   0.829  0.00  0.00    -0.870 OA
BRANCH  21  24
ATOM     23  C   LIG    1       -1.259  -1.475   1.933  0.00  0.00    +0.070 C 
ATOM     24  C   LIG    1       -0.496  -1.637   0.617  0.00  0.00    -0.260 C 
ENDBRANCH  21  24
ENDBRANCH  15  21
ENDBRANCH   1  20
TORSDOF 4
