REMARK  Name = ZINCpe000000TmVm.0
REMARK                            x       y       z     vdW  Elec       q    Type
REMARK                         _______ _______ _______ _____ _____    ______ ____
ROOT
ATOM      1  C   LIG    1        1.612   2.218  -0.228  0.00  0.00    +0.250 C 
ATOM      2  C   LIG    1        0.119   1.919  -0.380  0.00  0.00    +0.030 C 
ATOM      3  C   LIG    1       -0.107   0.406  -0.289  0.00  0.00    +0.290 C 
ATOM      4  N   LIG    1        0.746  -0.260  -1.282  0.00  0.00    -0.610 N 
ATOM      5  C   LIG    1        2.187   0.028  -1.283  0.00  0.00    +0.270 C 
ATOM      6  C   LIG    1        0.217  -1.118  -2.176  0.00  0.00    +0.500 C 
ATOM      7  O   LIG    1       -0.957  -1.418  -2.108  0.00  0.00    -0.520 OA
ATOM      8  C   LIG    1        2.387   1.544  -1.363  0.00  0.00    -0.010 C 
ENDROOT
BRANCH   6   9
ATOM      9  C   LIG    1        1.083  -1.706  -3.261  0.00  0.00    +0.120 C 
ATOM     10  C   LIG    1        2.273  -2.478  -2.655  0.00  0.00    +0.070 C 
ATOM     11  C   LIG    1        3.427  -2.233  -3.607  0.00  0.00    -0.100 A 
ATOM     12  C   LIG    1        4.628  -2.907  -3.752  0.00  0.00    +0.020 A 
ATOM     13  C   LIG    1        5.542  -2.502  -4.705  0.00  0.00    +0.010 A 
ATOM     14  C   LIG    1        5.258  -1.421  -5.518  0.00  0.00    +0.020 A 
ATOM     15  C   LIG    1        4.061  -0.747  -5.375  0.00  0.00    +0.020 A 
ATOM     16  C   LIG    1        3.143  -1.151  -4.420  0.00  0.00    -0.090 A 
ATOM     17  C   LIG    1        1.781  -0.592  -4.069  0.00  0.00    +0.130 C 
BRANCH   9  18
ATOM     18  O   LIG    1        0.314  -2.550  -4.120  0.00  0.00    -0.520 OA
ATOM     19  H   LIG    1       -0.036  -3.340  -3.685  0.00  0.00    +0.390 HD
ENDBRANCH   9  18
ENDBRANCH   6   9
BRANCH   1  20
ATOM     20  N   LIG    1        1.828   3.666  -0.282  0.00  0.00    -1.120 NA
ATOM     21  H   LIG    1        1.277   4.217  -0.860  0.00  0.00    +0.420 HD
BRANCH  20  22
ATOM     22  S   LIG    1        3.013   4.361   0.642  0.00  0.00    +2.610 S 
ATOM     23  O   LIG    1        2.772   3.865   1.952  0.00  0.00    -0.950 OA
ATOM     24  O   LIG    1        2.912   5.749   0.355  0.00  0.00    -0.950 OA
BRANCH  22  25
ATOM     25  C   LIG    1        4.560   3.685  -0.020  0.00  0.00    -0.360 C 
BRANCH  25  27
ATOM     26  C   LIG    1        7.048   3.688   0.203  0.00  0.00    +0.030 C 
ATOM     27  C   LIG    1        5.743   4.259   0.761  0.00  0.00    +0.040 C 
ENDBRANCH  25  27
ENDBRANCH  22  25
ENDBRANCH  20  22
ENDBRANCH   1  20
TORSDOF 6
