REMARK  Name = ZINCkj000005ltfP.0
REMARK                            x       y       z     vdW  Elec       q    Type
REMARK                         _______ _______ _______ _____ _____    ______ ____
ROOT
ATOM      1  C   LIG    1       -0.971   1.731   1.630  0.00  0.00    +0.030 C 
ATOM      2  C   LIG    1       -2.466   1.760   1.548  0.00  0.00    +0.100 C 
ATOM      3  C   LIG    1       -2.798   3.169   0.996  0.00  0.00    +0.050 C 
ATOM      4  C   LIG    1       -1.443   3.948   0.993  0.00  0.00    +0.060 C 
ATOM      5  C   LIG    1       -0.115   0.970   2.593  0.00  0.00    +0.350 C 
ATOM      6  N   LIG    1        1.090   1.829   2.789  0.00  0.00    -0.640 N 
ATOM      7  C   LIG    1        2.197   1.498   3.483  0.00  0.00    +0.610 C 
ATOM      8  O   LIG    1        2.291   0.395   3.988  0.00  0.00    -0.460 OA
ATOM      9  C   LIG    1        0.851   3.124   2.078  0.00  0.00    +0.270 C 
ATOM     10  C   LIG    1       -0.661   3.216   2.066  0.00  0.00    +0.030 C 
ENDROOT
BRANCH   7  11
ATOM     11  C   LIG    1        3.293   2.469   3.629  0.00  0.00    +0.010 A 
ATOM     12  C   LIG    1        4.420   2.337   4.420  0.00  0.00    -0.210 A 
ATOM     13  C   LIG    1        5.153   3.510   4.219  0.00  0.00    +0.280 A 
ATOM     14  N   LIG    1        4.487   4.260   3.379  0.00  0.00    -0.250 NA
ATOM     15  N   LIG    1        3.398   3.685   3.014  0.00  0.00    -0.370 N 
ATOM     16  H   LIG    1        2.749   4.057   2.397  0.00  0.00    +0.450 HD
BRANCH  12  17
ATOM     17  C   LIG    1        4.782   1.175   5.309  0.00  0.00    +0.550 C 
ATOM     18  F   LIG    1        4.892   0.014   4.535  0.00  0.00    -0.160 F 
ATOM     19  F   LIG    1        3.786   0.999   6.275  0.00  0.00    -0.170 F 
ATOM     20  F   LIG    1        6.003   1.433   5.940  0.00  0.00    -0.170 F 
ENDBRANCH  12  17
ENDBRANCH   7  11
BRANCH   1  21
ATOM     21  N   LIG    1       -0.433   1.544   0.277  0.00  0.00    -0.640 N 
ATOM     22  H   LIG    1       -0.944   2.122  -0.372  0.00  0.00    +0.440 HD
ATOM     23  H   LIG    1        0.542   1.804   0.263  0.00  0.00    +0.430 HD
ATOM     24  H   LIG    1       -0.526   0.575   0.009  0.00  0.00    +0.440 HD
ENDBRANCH   1  21
TORSDOF 3
