REMARK  Name = ZINCkj000005ltfP.1
REMARK                            x       y       z     vdW  Elec       q    Type
REMARK                         _______ _______ _______ _____ _____    ______ ____
ROOT
ATOM      1  C   LIG    1       -0.019   1.575   0.011  0.00  0.00    +0.020 C 
ATOM      2  C   LIG    1        1.451   1.885  -0.002  0.00  0.00    +0.100 C 
ATOM      3  C   LIG    1        2.070   0.767  -0.896  0.00  0.00    +0.050 C 
ATOM      4  C   LIG    1        0.907  -0.239  -1.183  0.00  0.00    +0.050 C 
ATOM      5  C   LIG    1       -0.955   1.785   1.176  0.00  0.00    +0.340 C 
ATOM      6  N   LIG    1       -2.047   0.803   0.889  0.00  0.00    -0.640 N 
ATOM      7  C   LIG    1       -3.323   0.888   1.316  0.00  0.00    +0.620 C 
ATOM      8  O   LIG    1       -3.673   1.828   2.002  0.00  0.00    -0.480 OA
ATOM      9  C   LIG    1       -1.474  -0.286   0.045  0.00  0.00    +0.290 C 
ATOM     10  C   LIG    1        0.002  -0.004   0.002  0.00  0.00    +0.020 C 
ENDROOT
BRANCH   7  11
ATOM     11  C   LIG    1       -4.295  -0.163   0.952  0.00  0.00    +0.030 A 
ATOM     12  N   LIG    1       -4.056  -1.232   0.219  0.00  0.00    -0.250 NA
ATOM     13  N   LIG    1       -5.126  -1.933   0.100  0.00  0.00    -0.370 N 
ATOM     14  H   LIG    1       -5.193  -2.764  -0.395  0.00  0.00    +0.460 HD
ATOM     15  C   LIG    1       -6.145  -1.345   0.763  0.00  0.00    +0.290 A 
ATOM     16  C   LIG    1       -5.658  -0.215   1.327  0.00  0.00    -0.250 A 
BRANCH  16  17
ATOM     17  C   LIG    1       -6.410   0.779   2.174  0.00  0.00    +0.550 C 
ATOM     18  F   LIG    1       -6.376   2.035   1.558  0.00  0.00    -0.170 F 
ATOM     19  F   LIG    1       -5.814   0.862   3.436  0.00  0.00    -0.160 F 
ATOM     20  F   LIG    1       -7.739   0.363   2.312  0.00  0.00    -0.170 F 
ENDBRANCH  16  17
ENDBRANCH   7  11
BRANCH   1  21
ATOM     21  N   LIG    1       -0.648   2.074  -1.219  0.00  0.00    -0.630 N 
ATOM     22  H   LIG    1       -0.124   1.752  -2.019  0.00  0.00    +0.430 HD
ATOM     23  H   LIG    1       -0.659   3.082  -1.207  0.00  0.00    +0.440 HD
ATOM     24  H   LIG    1       -1.595   1.728  -1.277  0.00  0.00    +0.430 HD
ENDBRANCH   1  21
TORSDOF 3
