REMARK  Name = ZINCpk000000nPEh.0
REMARK                            x       y       z     vdW  Elec       q    Type
REMARK                         _______ _______ _______ _____ _____    ______ ____
ROOT
ATOM      1  N   LIG    1       -1.975   2.469   1.607  0.00  0.00    -1.110 NA
ATOM      2  H   LIG    1       -2.766   2.038   1.966  0.00  0.00    +0.420 HD
ENDROOT
BRANCH   1   3
ATOM      3  S   LIG    1       -1.554   2.238   0.022  0.00  0.00    +2.690 S 
ATOM      4  O   LIG    1       -2.517   1.347  -0.523  0.00  0.00    -0.950 OA
ATOM      5  O   LIG    1       -1.297   3.528  -0.517  0.00  0.00    -0.950 OA
BRANCH   3   9
ATOM      6  C   LIG    1        2.396   0.029  -0.022  0.00  0.00    -0.020 A 
ATOM      7  C   LIG    1        1.208  -0.679  -0.014  0.00  0.00    -0.010 A 
ATOM      8  C   LIG    1        0.002  -0.004   0.002  0.00  0.00    +0.130 A 
ATOM      9  C   LIG    1       -0.017   1.378   0.010  0.00  0.00    -0.680 A 
ATOM     10  C   LIG    1        1.171   2.086   0.002  0.00  0.00    +0.130 A 
ATOM     11  C   LIG    1        2.377   1.411  -0.014  0.00  0.00    +0.000 A 
BRANCH   6  13
ATOM     12  C   LIG    1        4.496  -0.320  -1.294  0.00  0.00    +0.030 C 
ATOM     13  C   LIG    1        3.711  -0.707  -0.039  0.00  0.00    +0.010 C 
ATOM     14  C   LIG    1        4.521  -0.334   1.204  0.00  0.00    +0.030 C 
ENDBRANCH   6  13
ENDBRANCH   3   9
ENDBRANCH   1   3
BRANCH   1  15
ATOM     15  C   LIG    1       -1.151   3.324   2.466  0.00  0.00    +0.280 C 
BRANCH  15  16
ATOM     16  C   LIG    1       -1.931   3.672   3.736  0.00  0.00    +0.020 C 
ATOM     17  C   LIG    1       -2.139   2.405   4.595  0.00  0.00    +0.040 C 
ATOM     18  C   LIG    1       -1.997   2.907   6.054  0.00  0.00    +0.040 C 
ATOM     19  C   LIG    1       -0.866   3.964   5.947  0.00  0.00    +0.060 C 
ATOM     20  C   LIG    1       -1.125   4.648   4.596  0.00  0.00    +0.120 C 
ATOM     21  N   LIG    1       -1.834   5.917   4.772  0.00  0.00    -0.710 N 
ATOM     22  H   LIG    1       -2.708   6.045   5.175  0.00  0.00    +0.440 HD
ATOM     23  C   LIG    1       -1.031   6.872   4.262  0.00  0.00    +0.700 C 
ATOM     24  N   LIG    1        0.113   6.371   3.778  0.00  0.00    -0.680 N 
ATOM     25  H   LIG    1        0.814   6.905   3.373  0.00  0.00    +0.440 HD
ATOM     26  O   LIG    1       -1.312   8.054   4.244  0.00  0.00    -0.530 OA
ATOM     27  C   LIG    1        0.170   5.029   3.925  0.00  0.00    +0.530 C 
ATOM     28  O   LIG    1        1.070   4.290   3.588  0.00  0.00    -0.460 OA
ENDBRANCH  15  16
ENDBRANCH   1  15
TORSDOF 5
