REMARK  Name = ZINCrg000000r9yO.0
REMARK                            x       y       z     vdW  Elec       q    Type
REMARK                         _______ _______ _______ _____ _____    ______ ____
ROOT
ATOM      1  C   LIG    1        2.204   5.091  -2.368  0.00  0.00    +0.250 C 
ENDROOT
BRANCH   1   2
ATOM      2  C   LIG    1        1.958   4.461  -3.715  0.00  0.00    +0.520 C 
ATOM      3  N   LIG    1        1.059   5.004  -4.559  0.00  0.00    -0.610 N 
ATOM      4  C   LIG    1        0.397   6.274  -4.230  0.00  0.00    +0.260 C 
ATOM      5  C   LIG    1        0.635   7.260  -5.387  0.00  0.00    +0.270 C 
ATOM      6  N   LIG    1        0.295   6.589  -6.650  0.00  0.00    -0.620 N 
ATOM      7  C   LIG    1        0.953   5.316  -6.976  0.00  0.00    +0.280 C 
ATOM      8  C   LIG    1       -0.605   7.133  -7.495  0.00  0.00    +0.510 C 
ATOM      9  O   LIG    1       -0.877   6.571  -8.534  0.00  0.00    -0.540 OA
ATOM     10  C   LIG    1       -1.271   8.439  -7.147  0.00  0.00    +0.090 C 
ATOM     11  C   LIG    1        0.719   4.334  -5.822  0.00  0.00    +0.290 C 
ATOM     12  O   LIG    1        2.570   3.465  -4.039  0.00  0.00    -0.520 OA
ENDBRANCH   1   2
BRANCH   1  13
ATOM     13  N   LIG    1        2.916   4.142  -1.508  0.00  0.00    -1.100 NA
ATOM     14  H   LIG    1        3.581   3.548  -1.889  0.00  0.00    +0.430 HD
BRANCH  13  15
ATOM     15  S   LIG    1        2.586   4.086   0.114  0.00  0.00    +2.690 S 
ATOM     16  O   LIG    1        3.396   3.050   0.652  0.00  0.00    -0.950 OA
ATOM     17  O   LIG    1        2.630   5.428   0.579  0.00  0.00    -0.950 OA
BRANCH  15  18
ATOM     18  C   LIG    1        0.916   3.553   0.288  0.00  0.00    -0.690 A 
ATOM     19  C   LIG    1        0.628   2.205   0.392  0.00  0.00    +0.130 A 
ATOM     20  C   LIG    1       -0.683   1.787   0.528  0.00  0.00    -0.010 A 
ATOM     21  C   LIG    1       -1.706   2.716   0.555  0.00  0.00    -0.030 A 
ATOM     22  C   LIG    1       -1.417   4.065   0.458  0.00  0.00    -0.010 A 
ATOM     23  C   LIG    1       -3.135   2.260   0.698  0.00  0.00    +0.090 C 
ATOM     24  C   LIG    1       -0.106   4.483   0.321  0.00  0.00    +0.120 A 
ENDBRANCH  15  18
ENDBRANCH  13  15
ENDBRANCH   1  13
BRANCH   1  25
ATOM     25  C   LIG    1        3.048   6.355  -2.542  0.00  0.00    +0.080 C 
BRANCH  25  26
ATOM     26  C   LIG    1        4.349   6.003  -3.266  0.00  0.00    +0.080 C 
BRANCH  26  28
ATOM     27  C   LIG    1        6.884   6.862  -4.214  0.00  0.00    +0.140 C 
ATOM     28  S   LIG    1        5.417   7.468  -3.335  0.00  0.00    -0.250 S 
ENDBRANCH  26  28
ENDBRANCH  25  26
ENDBRANCH   1  25
TORSDOF 7
