REMARK  Name = ZINCah0000002Hgd.0
REMARK                            x       y       z     vdW  Elec       q    Type
REMARK                         _______ _______ _______ _____ _____    ______ ____
ROOT
ATOM      1  O   LIG    1        3.366   0.437   0.925  0.00  0.00    -0.420 OA
ATOM      2  C   LIG    1        2.244   0.634   0.522  0.00  0.00    +0.490 C 
ATOM      3  C   LIG    1        1.809   1.988  -0.004  0.00  0.00    +0.180 C 
ATOM      4  S   LIG    1       -0.023   1.833   0.012  0.00  0.00    -0.180 S 
ATOM      5  C   LIG    1        0.002  -0.004   0.002  0.00  0.00    +0.240 C 
ATOM      6  O   LIG    1        1.329  -0.320   0.515  0.00  0.00    -0.320 OA
ENDROOT
BRANCH   5   7
ATOM      7  C   LIG    1       -1.084  -0.564   0.922  0.00  0.00    +0.470 C 
ATOM      8  F   LIG    1       -1.043  -1.962   0.895  0.00  0.00    -0.160 F 
ATOM      9  F   LIG    1       -2.338  -0.127   0.483  0.00  0.00    -0.160 F 
ATOM     10  F   LIG    1       -0.865  -0.116   2.229  0.00  0.00    -0.160 F 
ENDBRANCH   5   7
TORSDOF 1
