REMARK  Name = ZINCkj000005fwFd.2
REMARK                            x       y       z     vdW  Elec       q    Type
REMARK                         _______ _______ _______ _____ _____    ______ ____
ROOT
ATOM      1  C   LIG    1        2.292   1.403  -0.012  0.00  0.00    +0.390 C 
ATOM      2  N   LIG    1        1.137   2.051   0.002  0.00  0.00    -0.560 NA
ATOM      3  C   LIG    1       -0.017   1.387   0.010  0.00  0.00    +0.520 C 
ATOM      4  C   LIG    1        0.002  -0.004   0.002  0.00  0.00    -0.150 C 
ATOM      5  C   LIG    1        1.235  -0.650  -0.013  0.00  0.00    +0.510 C 
ATOM      6  N   LIG    1        2.348   0.079  -0.020  0.00  0.00    -0.560 NA
ATOM      7  H   LIG    1        3.211  -0.364  -0.030  0.00  0.00    +0.440 HD
ENDROOT
BRANCH   5   8
ATOM      8  N   LIG    1        1.302  -2.035  -0.021  0.00  0.00    -0.810 NA
ATOM      9  H   LIG    1        2.165  -2.478  -0.032  0.00  0.00    +0.420 HD
ATOM     10  H   LIG    1        0.487  -2.560  -0.016  0.00  0.00    +0.440 HD
ENDBRANCH   5   8
BRANCH   3  11
ATOM     11  N   LIG    1       -1.221   2.073   0.019  0.00  0.00    -0.790 NA
ATOM     12  H   LIG    1       -1.227   3.043   0.024  0.00  0.00    +0.430 HD
ATOM     13  H   LIG    1       -2.058   1.583   0.020  0.00  0.00    +0.430 HD
ENDBRANCH   3  11
BRANCH   1  14
ATOM     14  S   LIG    1        3.794   2.325  -0.022  0.00  0.00    +0.160 S 
BRANCH  14  15
ATOM     15  C   LIG    1        3.129   4.008  -0.006  0.00  0.00    +0.020 C 
ATOM     16  C   LIG    1        2.387   4.252   1.310  0.00  0.00    +0.110 C 
BRANCH  15  23
ATOM     17  C   LIG    1        3.647   9.019  -3.763  0.00  0.00    +0.030 C 
ATOM     18  C   LIG    1        3.676   8.397  -2.365  0.00  0.00    -0.010 C 
ATOM     19  C   LIG    1        5.067   7.822  -2.091  0.00  0.00    +0.020 C 
ATOM     20  C   LIG    1        5.102   7.230  -0.679  0.00  0.00    +0.290 C 
ATOM     21  N   LIG    1        4.010   6.255  -0.548  0.00  0.00    -0.590 N 
ATOM     22  C   LIG    1        2.643   6.677  -0.880  0.00  0.00    +0.270 C 
ATOM     23  C   LIG    1        4.259   4.997  -0.136  0.00  0.00    +0.530 C 
ATOM     24  O   LIG    1        5.393   4.659   0.131  0.00  0.00    -0.520 OA
ATOM     25  C   LIG    1        2.635   7.277  -2.285  0.00  0.00    +0.020 C 
ENDBRANCH  15  23
ENDBRANCH  14  15
ENDBRANCH   1  14
TORSDOF 5
