REMARK  Name = ZINCkj000005fwFd.1
REMARK                            x       y       z     vdW  Elec       q    Type
REMARK                         _______ _______ _______ _____ _____    ______ ____
ROOT
ATOM      1  C   LIG    1        2.292   1.403  -0.012  0.00  0.00    +0.390 C 
ATOM      2  N   LIG    1        2.348   0.079  -0.020  0.00  0.00    -0.560 NA
ATOM      3  C   LIG    1        1.235  -0.650  -0.013  0.00  0.00    +0.510 C 
ATOM      4  C   LIG    1        0.002  -0.004   0.002  0.00  0.00    -0.150 C 
ATOM      5  C   LIG    1       -0.017   1.388   0.010  0.00  0.00    +0.520 C 
ATOM      6  H   LIG    1        3.211  -0.364  -0.031  0.00  0.00    +0.440 HD
ATOM      7  N   LIG    1        1.137   2.051   0.002  0.00  0.00    -0.560 NA
ENDROOT
BRANCH   5   8
ATOM      8  N   LIG    1       -1.221   2.074   0.019  0.00  0.00    -0.790 NA
ATOM      9  H   LIG    1       -1.227   3.044   0.024  0.00  0.00    +0.430 HD
ATOM     10  H   LIG    1       -2.058   1.584   0.021  0.00  0.00    +0.430 HD
ENDBRANCH   5   8
BRANCH   3  11
ATOM     11  N   LIG    1        1.302  -2.035  -0.021  0.00  0.00    -0.810 NA
ATOM     12  H   LIG    1        2.164  -2.478  -0.032  0.00  0.00    +0.420 HD
ATOM     13  H   LIG    1        0.486  -2.560  -0.016  0.00  0.00    +0.440 HD
ENDBRANCH   3  11
BRANCH   1  14
ATOM     14  S   LIG    1        3.794   2.325  -0.021  0.00  0.00    +0.160 S 
BRANCH  14  15
ATOM     15  C   LIG    1        3.129   4.008  -0.005  0.00  0.00    +0.020 C 
ATOM     16  C   LIG    1        2.387   4.251   1.311  0.00  0.00    +0.110 C 
BRANCH  15  23
ATOM     17  C   LIG    1        3.648   9.021  -3.759  0.00  0.00    +0.030 C 
ATOM     18  C   LIG    1        3.676   8.397  -2.362  0.00  0.00    -0.010 C 
ATOM     19  C   LIG    1        5.068   7.823  -2.088  0.00  0.00    +0.020 C 
ATOM     20  C   LIG    1        5.102   7.230  -0.676  0.00  0.00    +0.290 C 
ATOM     21  N   LIG    1        4.011   6.255  -0.545  0.00  0.00    -0.590 N 
ATOM     22  C   LIG    1        2.643   6.678  -0.878  0.00  0.00    +0.270 C 
ATOM     23  C   LIG    1        4.259   4.997  -0.134  0.00  0.00    +0.530 C 
ATOM     24  O   LIG    1        5.393   4.659   0.133  0.00  0.00    -0.520 OA
ATOM     25  C   LIG    1        2.636   7.278  -2.283  0.00  0.00    +0.020 C 
ENDBRANCH  15  23
ENDBRANCH  14  15
ENDBRANCH   1  14
TORSDOF 5
