REMARK  Name = ZINC9u0000000C47.0
REMARK                            x       y       z     vdW  Elec       q    Type
REMARK                         _______ _______ _______ _____ _____    ______ ____
ROOT
ATOM      1  C   LIG    1        0.011   1.072   2.506  0.00  0.00    +0.000 C 
ATOM      2  C   LIG    1       -0.359  -0.368   2.899  0.00  0.00    +0.050 C 
ATOM      3  C   LIG    1       -0.322   0.105   4.362  0.00  0.00    +0.010 C 
ATOM      4  C   LIG    1       -0.631   1.515   3.831  0.00  0.00    +0.060 C 
ENDROOT
BRANCH   1   5
ATOM      5  C   LIG    1        1.462   1.314   2.445  0.00  0.00    +0.230 C 
ATOM      6  N   LIG    1        2.581   1.501   2.397  0.00  0.00    -0.430 NA
ENDBRANCH   1   5
BRANCH   1   7
ATOM      7  C   LIG    1       -0.729   1.579   1.267  0.00  0.00    +0.060 C 
BRANCH   7   9
ATOM      8  C   LIG    1       -0.753   1.593  -1.232  0.00  0.00    +0.020 C 
ATOM      9  C   LIG    1       -0.013   1.086   0.008  0.00  0.00    +0.000 C 
ENDBRANCH   7   9
ENDBRANCH   1   7
TORSDOF 3
