REMARK  Name = ZINCrD00000744VZ.0
REMARK                            x       y       z     vdW  Elec       q    Type
REMARK                         _______ _______ _______ _____ _____    ______ ____
ROOT
ATOM      1  C   LIG    1       -0.830   2.089   3.435  0.00  0.00    +0.080 C 
ATOM      2  C   LIG    1       -0.091   1.116   2.514  0.00  0.00    +0.180 C 
ENDROOT
BRANCH   2   3
ATOM      3  N   LIG    1       -0.642   1.213   1.156  0.00  0.00    -0.510 NA
ATOM      4  C   LIG    1        0.172   0.447   0.202  0.00  0.00    +0.180 C 
ATOM      5  C   LIG    1       -0.477   0.508  -1.183  0.00  0.00    +0.210 C 
ATOM      6  N   LIG    1       -0.597   1.911  -1.604  0.00  0.00    -0.490 N 
ATOM      7  C   LIG    1       -1.411   2.676  -0.650  0.00  0.00    +0.200 C 
ATOM      8  C   LIG    1       -0.762   2.615   0.735  0.00  0.00    +0.200 C 
BRANCH   6   9
ATOM      9  C   LIG    1       -1.121   2.003  -2.895  0.00  0.00    +0.110 A 
ATOM     10  C   LIG    1       -1.444   0.850  -3.599  0.00  0.00    -0.040 A 
ATOM     11  C   LIG    1       -1.966   0.944  -4.874  0.00  0.00    +0.030 A 
ATOM     12  C   LIG    1       -2.157   2.185  -5.455  0.00  0.00    -0.030 A 
ATOM     13  C   LIG    1       -1.831   3.335  -4.759  0.00  0.00    +0.030 A 
ATOM     14  C   LIG    1       -1.314   3.247  -3.481  0.00  0.00    -0.020 A 
ENDBRANCH   6   9
ENDBRANCH   2   3
BRANCH   2  15
ATOM     15  C   LIG    1        1.375   1.464   2.488  0.00  0.00    +0.490 C 
ATOM     16  N   LIG    1        2.215   0.913   3.386  0.00  0.00    -0.660 N 
ATOM     17  H   LIG    1        1.893   0.232   3.997  0.00  0.00    +0.420 HD
ATOM     18  O   LIG    1        1.799   2.240   1.658  0.00  0.00    -0.490 OA
BRANCH  16  19
ATOM     19  C   LIG    1        3.552   1.324   3.438  0.00  0.00    +0.220 A 
ATOM     20  C   LIG    1        3.929   2.539   2.883  0.00  0.00    +0.050 A 
ATOM     21  C   LIG    1        5.248   2.944   2.940  0.00  0.00    +0.140 A 
ATOM     22  C   LIG    1        6.196   2.136   3.539  0.00  0.00    -0.060 A 
ATOM     23  C   LIG    1        5.827   0.921   4.088  0.00  0.00    +0.150 A 
ATOM     24  C   LIG    1        4.508   0.513   4.039  0.00  0.00    -0.080 A 
ATOM     25 CL   LIG    1        4.044  -1.012   4.728  0.00  0.00    -0.030 Cl
BRANCH  22  26
ATOM     26  N   LIG    1        7.610   2.571   3.593  0.00  0.00    +0.030 N 
ATOM     27  O   LIG    1        7.937   3.640   3.110  0.00  0.00    -0.150 OA
ATOM     28  O   LIG    1        8.447   1.859   4.120  0.00  0.00    -0.160 OA
ENDBRANCH  22  26
ENDBRANCH  16  19
ENDBRANCH   2  15
TORSDOF 5
