REMARK  Name = ZINCkj00000yjFC7.1
REMARK                            x       y       z     vdW  Elec       q    Type
REMARK                         _______ _______ _______ _____ _____    ______ ____
ROOT
ATOM      1  C   LIG    1       -4.439   0.655   2.517  0.00  0.00    +0.170 C 
ATOM      2  C   LIG    1       -3.000   1.170   2.457  0.00  0.00    +0.210 C 
ATOM      3  N   LIG    1       -2.383   1.046   3.785  0.00  0.00    -0.530 NA
ATOM      4  C   LIG    1       -2.399  -0.351   4.241  0.00  0.00    +0.210 C 
ATOM      5  C   LIG    1       -3.844  -0.853   4.286  0.00  0.00    +0.260 C 
ATOM      6  N   LIG    1       -4.440  -0.749   2.947  0.00  0.00    -0.380 N 
ATOM      7  H   LIG    1       -3.902  -1.301   2.296  0.00  0.00    +0.430 HD
ENDROOT
BRANCH   1   9
ATOM      8  C   LIG    1       -5.349   2.931   2.999  0.00  0.00    +0.060 C 
ATOM      9  C   LIG    1       -5.240   1.495   3.514  0.00  0.00    +0.040 C 
ENDBRANCH   1   9
BRANCH   3  10
ATOM     10  C   LIG    1       -1.016   1.583   3.783  0.00  0.00    +0.230 C 
BRANCH  10  11
ATOM     11  C   LIG    1       -1.024   2.997   3.198  0.00  0.00    +0.190 C 
BRANCH  11  12
ATOM     12  O   LIG    1       -1.799   3.856   4.038  0.00  0.00    -0.360 OA
BRANCH  12  13
ATOM     13  C   LIG    1       -1.871   5.207   3.579  0.00  0.00    +0.210 C 
BRANCH  13  14
ATOM     14  C   LIG    1       -2.720   6.030   4.550  0.00  0.00    +0.460 C 
ATOM     15  F   LIG    1       -4.009   5.490   4.615  0.00  0.00    -0.180 F 
ATOM     16  F   LIG    1       -2.791   7.353   4.100  0.00  0.00    -0.170 F 
ATOM     17  F   LIG    1       -2.137   6.000   5.821  0.00  0.00    -0.170 F 
ENDBRANCH  13  14
ENDBRANCH  12  13
ENDBRANCH  11  12
ENDBRANCH  10  11
ENDBRANCH   3  10
BRANCH   6  18
ATOM     18  C   LIG    1       -5.821  -1.248   2.987  0.00  0.00    +0.280 C 
BRANCH  18  19
ATOM     19  C   LIG    1       -5.813  -2.750   3.279  0.00  0.00    +0.160 C 
ATOM     20  C   LIG    1       -7.251  -3.270   3.320  0.00  0.00    +0.050 C 
BRANCH  19  21
ATOM     21  O   LIG    1       -5.090  -3.431   2.252  0.00  0.00    -0.580 OA
ATOM     22  H   LIG    1       -5.043  -4.389   2.372  0.00  0.00    +0.410 HD
ENDBRANCH  19  21
ENDBRANCH  18  19
ENDBRANCH   6  18
TORSDOF 9
