REMARK  Name = ZINCkj00000yjFC7.0
REMARK                            x       y       z     vdW  Elec       q    Type
REMARK                         _______ _______ _______ _____ _____    ______ ____
ROOT
ATOM      1  C   LIG    1        1.479   1.389   0.312  0.00  0.00    +0.180 C 
ATOM      2  C   LIG    1        2.393   1.051  -0.868  0.00  0.00    +0.220 C 
ATOM      3  N   LIG    1        1.823   1.613  -2.101  0.00  0.00    -0.530 NA
ATOM      4  C   LIG    1        0.474   1.083  -2.342  0.00  0.00    +0.200 C 
ATOM      5  C   LIG    1       -0.424   1.420  -1.149  0.00  0.00    +0.280 C 
ATOM      6  N   LIG    1        0.142   0.831   0.072  0.00  0.00    -0.380 N 
ATOM      7  H   LIG    1        0.210  -0.170  -0.038  0.00  0.00    +0.410 HD
ENDROOT
BRANCH   1   9
ATOM      8  C   LIG    1        3.401   1.452   1.907  0.00  0.00    +0.060 C 
ATOM      9  C   LIG    1        2.059   0.787   1.594  0.00  0.00    +0.030 C 
ENDBRANCH   1   9
BRANCH   3  10
ATOM     10  C   LIG    1        2.702   1.359  -3.250  0.00  0.00    +0.230 C 
BRANCH  10  11
ATOM     11  C   LIG    1        2.211   2.163  -4.455  0.00  0.00    +0.190 C 
BRANCH  11  12
ATOM     12  O   LIG    1        2.341   3.560  -4.182  0.00  0.00    -0.360 OA
BRANCH  12  13
ATOM     13  C   LIG    1        1.907   4.404  -5.250  0.00  0.00    +0.220 C 
BRANCH  13  14
ATOM     14  C   LIG    1        2.091   5.869  -4.848  0.00  0.00    +0.460 C 
ATOM     15  F   LIG    1        1.333   6.138  -3.703  0.00  0.00    -0.180 F 
ATOM     16  F   LIG    1        1.667   6.696  -5.894  0.00  0.00    -0.170 F 
ATOM     17  F   LIG    1        3.443   6.113  -4.580  0.00  0.00    -0.170 F 
ENDBRANCH  13  14
ENDBRANCH  12  13
ENDBRANCH  11  12
ENDBRANCH  10  11
ENDBRANCH   3  10
BRANCH   6  18
ATOM     18  C   LIG    1       -0.730   1.140   1.213  0.00  0.00    +0.280 C 
BRANCH  18  19
ATOM     19  C   LIG    1       -2.066   0.413   1.046  0.00  0.00    +0.160 C 
ATOM     20  C   LIG    1       -2.898   0.576   2.319  0.00  0.00    +0.050 C 
BRANCH  19  21
ATOM     21  O   LIG    1       -2.776   0.970  -0.062  0.00  0.00    -0.570 OA
ATOM     22  H   LIG    1       -3.634   0.557  -0.227  0.00  0.00    +0.400 HD
ENDBRANCH  19  21
ENDBRANCH  18  19
ENDBRANCH   6  18
TORSDOF 9
