REMARK  Name = ZINCtV000002KaTz.0
REMARK                            x       y       z     vdW  Elec       q    Type
REMARK                         _______ _______ _______ _____ _____    ______ ____
ROOT
ATOM      1  C   LIG    1        2.195   6.347  -0.109  0.00  0.00    +0.050 C 
ENDROOT
BRANCH   1   4
ATOM      2  N   LIG    1        1.818   8.774   0.180  0.00  0.00    -0.670 N 
ATOM      3  H   LIG    1        1.467   8.797  -0.724  0.00  0.00    +0.420 HD
ATOM      4  C   LIG    1        2.304   7.623   0.685  0.00  0.00    +0.520 C 
ATOM      5  O   LIG    1        2.830   7.614   1.778  0.00  0.00    -0.510 OA
BRANCH   2  12
ATOM      6  C   LIG    1        1.563  13.943   5.764  0.00  0.00    +0.190 C 
ATOM      7  C   LIG    1        1.618  12.946   4.636  0.00  0.00    +0.090 A 
ATOM      8  N   LIG    1        1.797  13.258   3.408  0.00  0.00    -0.470 NA
ATOM      9  C   LIG    1        1.824  12.260   2.503  0.00  0.00    +0.070 A 
ATOM     10  C   LIG    1        2.003  12.319   1.106  0.00  0.00    +0.100 A 
ATOM     11  C   LIG    1        2.000  11.181   0.360  0.00  0.00    +0.010 A 
ATOM     12  C   LIG    1        1.819   9.937   0.961  0.00  0.00    +0.160 A 
ATOM     13  C   LIG    1        1.636   9.852   2.329  0.00  0.00    +0.070 A 
ATOM     14  C   LIG    1        1.644  11.009   3.104  0.00  0.00    -0.170 A 
ATOM     15  S   LIG    1        1.451  11.260   4.836  0.00  0.00    +0.110 S 
ENDBRANCH   2  12
ENDBRANCH   1   4
BRANCH   1  16
ATOM     16  C   LIG    1        2.820   5.197   0.684  0.00  0.00    +0.320 C 
BRANCH  16  17
ATOM     17  N   LIG    1        2.713   3.957  -0.088  0.00  0.00    -0.580 N 
ATOM     18  C   LIG    1        1.582   3.147   0.070  0.00  0.00    +0.190 A 
ATOM     19  C   LIG    1        0.332   3.720   0.238  0.00  0.00    -0.020 A 
ATOM     20  C   LIG    1       -0.784   2.914   0.389  0.00  0.00    +0.050 A 
ATOM     21  C   LIG    1       -0.660   1.538   0.367  0.00  0.00    +0.000 A 
ATOM     22  C   LIG    1        0.587   0.956   0.207  0.00  0.00    +0.070 A 
ATOM     23  C   LIG    1        1.704   1.756   0.056  0.00  0.00    -0.150 A 
ATOM     24  S   LIG    1        3.302   1.037  -0.154  0.00  0.00    +0.010 S 
ATOM     25  C   LIG    1        4.128   2.271  -1.107  0.00  0.00    -0.150 A 
ATOM     26  C   LIG    1        5.142   1.924  -1.981  0.00  0.00    +0.070 A 
ATOM     27  C   LIG    1        5.780   2.907  -2.719  0.00  0.00    +0.000 A 
ATOM     28  C   LIG    1        5.405   4.229  -2.582  0.00  0.00    +0.050 A 
ATOM     29  C   LIG    1        4.390   4.582  -1.709  0.00  0.00    -0.020 A 
ATOM     30  C   LIG    1        3.745   3.607  -0.967  0.00  0.00    +0.190 A 
ENDBRANCH  16  17
ENDBRANCH   1  16
TORSDOF 4
