REMARK  Name = ZINCrD00000bGMNT.0
REMARK                            x       y       z     vdW  Elec       q    Type
REMARK                         _______ _______ _______ _____ _____    ______ ____
ROOT
ATOM      1  C   LIG    1       -0.048   1.584   8.741  0.00  0.00    +0.380 C 
ENDROOT
BRANCH   1   2
ATOM      2  C   LIG    1        0.784   0.994   9.851  0.00  0.00    +0.080 A 
ATOM      3  N   LIG    1        0.537  -0.126  10.479  0.00  0.00    -0.260 NA
ATOM      4  N   LIG    1        1.543  -0.323  11.434  0.00  0.00    -0.300 N 
ATOM      5  C   LIG    1        2.398   0.726  11.360  0.00  0.00    +0.060 A 
ATOM      6  C   LIG    1        3.661   1.280  11.982  0.00  0.00    +0.120 C 
ATOM      7  C   LIG    1        3.695   2.766  11.563  0.00  0.00    +0.060 C 
ATOM      8  C   LIG    1        2.869   2.750  10.258  0.00  0.00    +0.120 C 
ATOM      9  C   LIG    1        1.951   1.553  10.389  0.00  0.00    -0.230 A 
BRANCH   4  10
ATOM     10  C   LIG    1        1.644  -1.409  12.314  0.00  0.00    +0.150 A 
ATOM     11  C   LIG    1        2.892  -1.906  12.665  0.00  0.00    +0.000 A 
ATOM     12  C   LIG    1        2.989  -2.973  13.537  0.00  0.00    +0.030 A 
ATOM     13  C   LIG    1        1.844  -3.554  14.050  0.00  0.00    +0.010 A 
ATOM     14  C   LIG    1        0.599  -3.065  13.698  0.00  0.00    +0.030 A 
ATOM     15  C   LIG    1        0.496  -1.994  12.831  0.00  0.00    +0.020 A 
ENDBRANCH   4  10
ENDBRANCH   1   2
BRANCH   1  17
ATOM     16  C   LIG    1       -0.156   1.491   6.309  0.00  0.00    +0.520 C 
ATOM     17  N   LIG    1        0.440   1.093   7.450  0.00  0.00    -0.720 N 
ATOM     18  H   LIG    1        1.192   0.482   7.417  0.00  0.00    +0.400 HD
ATOM     19  O   LIG    1       -1.097   2.256   6.351  0.00  0.00    -0.530 OA
BRANCH  16  20
ATOM     20  C   LIG    1        0.346   0.986   4.981  0.00  0.00    +0.050 C 
BRANCH  20  21
ATOM     21  C   LIG    1       -0.498   1.585   3.855  0.00  0.00    +0.130 C 
BRANCH  21  22
ATOM     22  C   LIG    1        0.011   1.072   2.506  0.00  0.00    +0.040 C 
ATOM     23  N   LIG    1        1.426   0.715   2.381  0.00  0.00    -0.120 NA
ATOM     24  N   LIG    1        0.647  -0.246   2.453  0.00  0.00    -0.120 NA
BRANCH  22  25
ATOM     25  C   LIG    1       -0.729   1.579   1.267  0.00  0.00    +0.120 C 
BRANCH  25  26
ATOM     26  C   LIG    1       -0.013   1.086   0.008  0.00  0.00    +0.160 C 
BRANCH  26  28
ATOM     27  C   LIG    1       -1.292   1.962  -2.136  0.00  0.00    +0.030 C 
ATOM     28  C   LIG    1       -0.725   1.573  -1.185  0.00  0.00    -0.190 C 
ENDBRANCH  26  28
ENDBRANCH  25  26
ENDBRANCH  22  25
ENDBRANCH  21  22
ENDBRANCH  20  21
ENDBRANCH  16  20
ENDBRANCH   1  17
TORSDOF 9
