REMARK  Name = ZINCpe000000Ti2d.0
REMARK                            x       y       z     vdW  Elec       q    Type
REMARK                         _______ _______ _______ _____ _____    ______ ____
ROOT
ATOM      1  C   LIG    1        1.122   1.694   0.021  0.00  0.00    +0.490 A 
ATOM      2  C   LIG    1        1.135   3.085   0.012  0.00  0.00    -0.220 A 
ATOM      3  C   LIG    1        2.365   3.736   0.012  0.00  0.00    +0.410 A 
ATOM      4  N   LIG    1        3.482   3.011   0.011  0.00  0.00    -0.630 NA
ATOM      5  C   LIG    1        3.431   1.688   0.015  0.00  0.00    +0.630 A 
ATOM      6  N   LIG    1        2.279   1.035   0.020  0.00  0.00    -0.640 NA
ENDROOT
BRANCH   3   7
ATOM      7  N   LIG    1        2.427   5.121   0.008  0.00  0.00    -0.460 N 
ATOM      8  C   LIG    1        1.676   5.686   1.141  0.00  0.00    +0.270 C 
ATOM      9  C   LIG    1        2.192   5.054   2.435  0.00  0.00    +0.240 C 
ATOM     10  N   LIG    1        3.648   5.139   2.489  0.00  0.00    -0.520 N 
ATOM     11  C   LIG    1        4.403   5.364   1.408  0.00  0.00    +0.510 C 
ATOM     12  O   LIG    1        5.609   5.389   1.537  0.00  0.00    -0.530 OA
ATOM     13  C   LIG    1        3.820   5.586   0.041  0.00  0.00    +0.300 C 
BRANCH  10  14
ATOM     14  C   LIG    1        4.286   4.978   3.733  0.00  0.00    +0.000 A 
ATOM     15  C   LIG    1        3.686   4.633   4.901  0.00  0.00    +0.190 A 
ATOM     16  N   LIG    1        4.648   4.585   5.858  0.00  0.00    -0.380 N 
ATOM     17  N   LIG    1        5.870   4.910   5.256  0.00  0.00    -0.290 NA
ATOM     18  C   LIG    1        4.444   4.251   7.270  0.00  0.00    +0.360 C 
ATOM     19  C   LIG    1        5.656   5.139   3.986  0.00  0.00    +0.270 A 
ENDBRANCH  10  14
ENDBRANCH   3   7
BRANCH   5  20
ATOM     20  N   LIG    1        4.613   0.968   0.015  0.00  0.00    -0.820 N 
ATOM     21  H   LIG    1        5.464   1.434   0.011  0.00  0.00    +0.420 HD
ATOM     22  H   LIG    1        4.591  -0.001   0.018  0.00  0.00    +0.410 HD
ENDBRANCH   5  20
BRANCH   1  23
ATOM     23  N   LIG    1       -0.080   1.003   0.026  0.00  0.00    -0.710 N 
ATOM     24  H   LIG    1       -0.081   0.033   0.029  0.00  0.00    +0.410 HD
BRANCH  23  25
ATOM     25  C   LIG    1       -1.347   1.738   0.021  0.00  0.00    +0.270 C 
BRANCH  25  26
ATOM     26  C   LIG    1       -2.512   0.746   0.021  0.00  0.00    +0.010 C 
BRANCH  26  28
ATOM     27  C   LIG    1       -5.000   0.521   0.016  0.00  0.00    +0.020 C 
ATOM     28  C   LIG    1       -3.836   1.513   0.016  0.00  0.00    +0.020 C 
ENDBRANCH  26  28
ENDBRANCH  25  26
ENDBRANCH  23  25
ENDBRANCH   1  23
TORSDOF 7
