REMARK  Name = ZINCvU00000005U8.0
REMARK                            x       y       z     vdW  Elec       q    Type
REMARK                         _______ _______ _______ _____ _____    ______ ____
ROOT
ATOM      1  C   LIG    1       -1.192   3.610   0.139  0.00  0.00    -0.060 A 
ATOM      2  C   LIG    1       -0.554   4.251   1.190  0.00  0.00    +0.020 A 
ATOM      3  C   LIG    1       -0.579   5.653   1.261  0.00  0.00    +0.200 A 
ATOM      4  N   LIG    1       -1.202   6.390   0.366  0.00  0.00    -0.450 NA
ATOM      5  C   LIG    1       -1.846   5.858  -0.673  0.00  0.00    +0.130 A 
ATOM      6  C   LIG    1       -2.502   6.672  -1.615  0.00  0.00    +0.050 A 
ATOM      7  C   LIG    1       -3.151   6.100  -2.666  0.00  0.00    +0.040 A 
ATOM      8  C   LIG    1       -3.178   4.717  -2.828  0.00  0.00    +0.030 A 
ATOM      9  C   LIG    1       -2.554   3.896  -1.935  0.00  0.00    +0.050 A 
ATOM     10  C   LIG    1       -1.877   4.451  -0.844  0.00  0.00    -0.070 A 
ENDROOT
BRANCH   1  16
ATOM     11  C   LIG    1        2.254   0.149  -1.017  0.00  0.00    -0.010 C 
ATOM     12  C   LIG    1        0.870  -0.497  -1.116  0.00  0.00    +0.060 C 
ATOM     13  C   LIG    1       -0.002  -0.006   0.045  0.00  0.00    +0.290 C 
ATOM     14  N   LIG    1       -0.019   1.463   0.035  0.00  0.00    -0.600 N 
ATOM     15  C   LIG    1        1.261   2.185   0.036  0.00  0.00    +0.270 C 
ATOM     16  C   LIG    1       -1.187   2.136   0.019  0.00  0.00    +0.570 C 
ATOM     17  O   LIG    1       -2.235   1.531  -0.093  0.00  0.00    -0.520 OA
ATOM     18  C   LIG    1        2.118   1.669  -1.124  0.00  0.00    +0.030 C 
BRANCH  11  21
ATOM     19  N   LIG    1        4.396   0.077  -2.252  0.00  0.00    -0.730 N 
ATOM     20  H   LIG    1        4.750   0.715  -1.613  0.00  0.00    +0.400 HD
ATOM     21  C   LIG    1        3.125  -0.358  -2.137  0.00  0.00    +0.520 C 
ATOM     22  O   LIG    1        2.683  -1.156  -2.936  0.00  0.00    -0.530 OA
BRANCH  19  23
ATOM     23  C   LIG    1        5.243  -0.416  -3.341  0.00  0.00    +0.260 C 
BRANCH  23  25
ATOM     24  C   LIG    1        7.512  -0.284  -4.380  0.00  0.00    +0.030 C 
ATOM     25  C   LIG    1        6.627   0.230  -3.243  0.00  0.00    +0.000 C 
ENDBRANCH  23  25
ENDBRANCH  19  23
ENDBRANCH  11  21
ENDBRANCH   1  16
BRANCH   3  26
ATOM     26  C   LIG    1        0.114   6.325   2.386  0.00  0.00    -0.040 A 
ATOM     27  C   LIG    1        0.776   5.569   3.352  0.00  0.00    +0.050 A 
ATOM     28  C   LIG    1        1.423   6.200   4.394  0.00  0.00    +0.050 A 
ATOM     29  C   LIG    1        1.407   7.582   4.488  0.00  0.00    -0.080 A 
ATOM     30  C   LIG    1        0.746   8.337   3.534  0.00  0.00    +0.050 A 
ATOM     31 BR   LIG    1        2.289   8.439   5.924  0.00  0.00    -0.040 Br
ATOM     32  C   LIG    1        0.100   7.716   2.485  0.00  0.00    +0.080 A 
ENDBRANCH   3  26
TORSDOF 5
