REMARK  Name = ZINCrH000004prfm.0
REMARK                            x       y       z     vdW  Elec       q    Type
REMARK                         _______ _______ _______ _____ _____    ______ ____
ROOT
ATOM      1  C   LIG    1       -0.796   1.103  -0.631  0.00  0.00    -0.150 A 
ATOM      2  C   LIG    1        0.553   0.850  -0.883  0.00  0.00    +0.100 A 
ATOM      3  C   LIG    1        1.014  -0.450  -0.908  0.00  0.00    +0.000 A 
ATOM      4  C   LIG    1        0.141  -1.501  -0.693  0.00  0.00    +0.150 A 
ATOM      5  C   LIG    1       -1.198  -1.257  -0.448  0.00  0.00    -0.680 A 
ATOM      6  C   LIG    1       -1.672   0.038  -0.415  0.00  0.00    +0.190 A 
ENDROOT
BRANCH   1   9
ATOM      7  N   LIG    1       -0.448   3.521  -0.806  0.00  0.00    -0.720 N 
ATOM      8  H   LIG    1        0.490   3.347  -0.978  0.00  0.00    +0.400 HD
ATOM      9  C   LIG    1       -1.296   2.494  -0.597  0.00  0.00    +0.560 C 
ATOM     10  O   LIG    1       -2.474   2.712  -0.387  0.00  0.00    -0.530 OA
BRANCH   7  12
ATOM     11  C   LIG    1       -0.963   5.400   0.673  0.00  0.00    +0.040 C 
ATOM     12  C   LIG    1       -0.944   4.899  -0.773  0.00  0.00    +0.280 C 
BRANCH  12  13
ATOM     13  C   LIG    1       -0.040   5.778  -1.597  0.00  0.00    -0.090 A 
ATOM     14  C   LIG    1        1.330   5.599  -1.549  0.00  0.00    +0.000 A 
ATOM     15  C   LIG    1        2.159   6.403  -2.309  0.00  0.00    +0.010 A 
ATOM     16  C   LIG    1        1.619   7.391  -3.110  0.00  0.00    +0.000 A 
ATOM     17  C   LIG    1        0.250   7.574  -3.155  0.00  0.00    +0.020 A 
ATOM     18  C   LIG    1       -0.580   6.767  -2.398  0.00  0.00    +0.020 A 
ENDBRANCH  12  13
ENDBRANCH   7  12
ENDBRANCH   1   9
BRANCH   5  19
ATOM     19  S   LIG    1       -2.302  -2.604  -0.176  0.00  0.00    +2.690 S 
ATOM     20  O   LIG    1       -3.397  -2.082   0.565  0.00  0.00    -0.940 OA
ATOM     21  O   LIG    1       -1.506  -3.691   0.275  0.00  0.00    -0.950 OA
BRANCH  19  22
ATOM     22  N   LIG    1       -2.906  -3.048  -1.653  0.00  0.00    -0.990 NA
ATOM     23  C   LIG    1       -2.307  -4.160  -2.403  0.00  0.00    +0.280 C 
ATOM     24  C   LIG    1       -3.408  -5.162  -2.763  0.00  0.00    +0.020 C 
ATOM     25  C   LIG    1       -4.531  -4.434  -3.507  0.00  0.00    +0.010 C 
ATOM     26  C   LIG    1       -5.133  -3.359  -2.600  0.00  0.00    +0.020 C 
ATOM     27  C   LIG    1       -4.054  -2.341  -2.235  0.00  0.00    +0.230 C 
ATOM     28  C   LIG    1       -4.614  -1.345  -1.217  0.00  0.00    +0.040 C 
ENDBRANCH  19  22
ENDBRANCH   5  19
TORSDOF 5
