REMARK  Name = ZINCkj00000GeQmB.0
REMARK                            x       y       z     vdW  Elec       q    Type
REMARK                         _______ _______ _______ _____ _____    ______ ____
ROOT
ATOM      1  O   LIG    1        0.079   1.091   4.869  0.00  0.00    -0.370 OA
ENDROOT
BRANCH   1   2
ATOM      2  C   LIG    1       -0.675   1.465   3.715  0.00  0.00    +0.160 C 
BRANCH   2   3
ATOM      3  C   LIG    1        0.041   0.972   2.456  0.00  0.00    +0.220 C 
BRANCH   3   4
ATOM      4  O   LIG    1        0.060  -0.457   2.448  0.00  0.00    -0.540 OA
ATOM      5  H   LIG    1       -0.818  -0.862   2.454  0.00  0.00    +0.390 HD
ENDBRANCH   3   4
BRANCH   3   6
ATOM      6  C   LIG    1       -0.699   1.479   1.216  0.00  0.00    +0.250 C 
BRANCH   6   7
ATOM      7  N   LIG    1       -0.012   1.005   0.008  0.00  0.00    -0.500 N 
ATOM      8  H   LIG    1        0.935   1.354   0.000  0.00  0.00    +0.430 HD
ATOM      9  H   LIG    1        0.002  -0.004   0.002  0.00  0.00    +0.430 HD
BRANCH   7  10
ATOM     10  C   LIG    1       -0.722   1.492  -1.183  0.00  0.00    +0.300 C 
BRANCH  10  12
ATOM     11  C   LIG    1       -0.678   0.331  -3.330  0.00  0.00    +0.130 C 
ATOM     12  C   LIG    1       -0.017   1.006  -2.422  0.00  0.00    -0.100 C 
ENDBRANCH  10  12
ENDBRANCH   7  10
ENDBRANCH   6   7
ENDBRANCH   3   6
ENDBRANCH   2   3
ENDBRANCH   1   2
BRANCH   1  13
ATOM     13  C   LIG    1       -0.506   1.506   6.105  0.00  0.00    +0.230 C 
BRANCH  13  14
ATOM     14  C   LIG    1        0.368   1.061   7.249  0.00  0.00    -0.100 A 
ATOM     15  C   LIG    1        0.160  -0.172   7.837  0.00  0.00    +0.040 A 
ATOM     16  C   LIG    1        0.962  -0.587   8.884  0.00  0.00    -0.040 A 
ATOM     17  C   LIG    1        1.971   0.238   9.353  0.00  0.00    +0.120 A 
ATOM     18  C   LIG    1        2.177   1.482   8.764  0.00  0.00    +0.100 A 
ATOM     19  C   LIG    1        1.373   1.890   7.712  0.00  0.00    -0.010 A 
BRANCH  18  20
ATOM     20  O   LIG    1        3.167   2.296   9.221  0.00  0.00    -0.300 OA
ATOM     21  C   LIG    1        3.321   3.559   8.569  0.00  0.00    +0.240 C 
ENDBRANCH  18  20
BRANCH  17  22
ATOM     22  O   LIG    1        2.757  -0.166  10.386  0.00  0.00    -0.300 OA
ATOM     23  C   LIG    1        2.488  -1.455  10.941  0.00  0.00    +0.250 C 
ENDBRANCH  17  22
ENDBRANCH  13  14
ENDBRANCH   1  13
TORSDOF 11
