REMARK  Name = ZINCpk00000xOpI6.0
REMARK                            x       y       z     vdW  Elec       q    Type
REMARK                         _______ _______ _______ _____ _____    ______ ____
ROOT
ATOM      1  C   LIG    1       -1.841   3.681   0.265  0.00  0.00    +0.050 C 
ATOM      2  C   LIG    1       -0.928   3.300   1.431  0.00  0.00    +0.200 C 
ATOM      3  C   LIG    1        0.476   3.869   1.193  0.00  0.00    +0.020 C 
ATOM      4  C   LIG    1        1.299   3.642   2.463  0.00  0.00    +0.040 C 
ATOM      5  C   LIG    1        1.124   2.219   2.933  0.00  0.00    -0.120 A 
ATOM      6  C   LIG    1        2.023   1.724   3.865  0.00  0.00    +0.010 A 
ATOM      7  C   LIG    1        1.900   0.433   4.340  0.00  0.00    +0.000 A 
ATOM      8  C   LIG    1        0.875  -0.374   3.883  0.00  0.00    +0.030 A 
ATOM      9  C   LIG    1       -0.021   0.110   2.953  0.00  0.00    +0.030 A 
ATOM     10  C   LIG    1        0.099   1.414   2.469  0.00  0.00    +0.120 A 
ATOM     11  N   LIG    1       -0.834   1.842   1.526  0.00  0.00    -0.480 N 
ENDROOT
BRANCH   4  12
ATOM     12  C   LIG    1        0.831   4.587   3.540  0.00  0.00    +0.530 C 
ATOM     13  O   LIG    1       -0.074   5.362   3.314  0.00  0.00    -0.530 OA
ATOM     14  N   LIG    1        1.417   4.570   4.753  0.00  0.00    -0.850 N 
ATOM     15  H   LIG    1        1.115   5.178   5.446  0.00  0.00    +0.400 HD
ATOM     16  H   LIG    1        2.141   3.950   4.934  0.00  0.00    +0.400 HD
ENDBRANCH   4  12
BRANCH  11  17
ATOM     17  C   LIG    1       -0.565   1.246   0.210  0.00  0.00    +0.240 C 
BRANCH  17  18
ATOM     18  C   LIG    1       -1.218  -0.110   0.131  0.00  0.00    +0.510 C 
ATOM     19  N   LIG    1       -0.983  -0.910  -0.928  0.00  0.00    -0.690 N 
ATOM     20  H   LIG    1       -0.393  -0.613  -1.639  0.00  0.00    +0.410 HD
ATOM     21  C   LIG    1       -1.567  -2.122  -1.000  0.00  0.00    +0.700 C 
ATOM     22  N   LIG    1       -1.332  -2.922  -2.059  0.00  0.00    -0.730 N 
ATOM     23  H   LIG    1       -0.743  -2.625  -2.769  0.00  0.00    +0.400 HD
ATOM     24  O   LIG    1       -2.306  -2.494  -0.109  0.00  0.00    -0.520 OA
ATOM     25  O   LIG    1       -1.955  -0.481   1.019  0.00  0.00    -0.440 OA
BRANCH  22  26
ATOM     26  C   LIG    1       -1.967  -4.240  -2.136  0.00  0.00    +0.180 C 
ATOM     27  C   LIG    1       -1.540  -5.084  -0.934  0.00  0.00    +0.030 C 
ATOM     28  C   LIG    1       -1.537  -4.938  -3.428  0.00  0.00    +0.040 C 
ATOM     29  C   LIG    1       -3.488  -4.075  -2.129  0.00  0.00    +0.030 C 
ENDBRANCH  22  26
ENDBRANCH  17  18
ENDBRANCH  11  17
TORSDOF 4
