REMARK  Name = ZINCpe00000FUe7i.0
REMARK                            x       y       z     vdW  Elec       q    Type
REMARK                         _______ _______ _______ _____ _____    ______ ____
ROOT
ATOM      1  N   LIG    1       -2.430   0.973   0.019  0.00  0.00    -0.540 N 
ATOM      2  C   LIG    1       -2.938   0.545  -1.155  0.00  0.00    +0.610 A 
ATOM      3  C   LIG    1       -3.991  -0.386  -1.152  0.00  0.00    -0.160 A 
ATOM      4  C   LIG    1       -4.493  -0.839   0.066  0.00  0.00    +0.380 A 
ATOM      5  N   LIG    1       -3.932  -0.358   1.240  0.00  0.00    -0.500 N 
ATOM      6  C   LIG    1       -4.439  -0.817   2.535  0.00  0.00    +0.350 C 
ATOM      7  N   LIG    1       -5.474  -1.698  -0.201  0.00  0.00    -0.460 NA
ATOM      8  C   LIG    1       -5.626  -1.818  -1.509  0.00  0.00    +0.410 A 
ATOM      9  O   LIG    1       -6.349  -2.443  -2.461  0.00  0.00    -0.140 OA
ATOM     10  C   LIG    1       -5.908  -2.043  -3.674  0.00  0.00    +0.040 A 
ATOM     11  C   LIG    1       -4.918  -1.176  -3.500  0.00  0.00    +0.190 A 
ATOM     12  N   LIG    1       -4.728  -1.023  -2.136  0.00  0.00    -0.370 N 
ATOM     13  O   LIG    1       -2.485   0.959  -2.209  0.00  0.00    -0.510 OA
ATOM     14  C   LIG    1       -2.921   0.530   1.189  0.00  0.00    +0.720 A 
ATOM     15  O   LIG    1       -2.441   0.941   2.228  0.00  0.00    -0.520 OA
ENDROOT
BRANCH  10  16
ATOM     16  C   LIG    1       -6.450  -2.505  -5.003  0.00  0.00    +0.020 C 
ATOM     17  C   LIG    1       -7.933  -2.143  -5.102  0.00  0.00    +0.060 C 
ATOM     18  C   LIG    1       -6.285  -4.021  -5.121  0.00  0.00    +0.060 C 
ATOM     19  C   LIG    1       -5.681  -1.819  -6.133  0.00  0.00    +0.070 C 
ENDBRANCH  10  16
BRANCH   1  20
ATOM     20  C   LIG    1       -1.329   1.940   0.019  0.00  0.00    +0.430 C 
BRANCH  20  21
ATOM     21  C   LIG    1       -0.014   1.204   0.009  0.00  0.00    +0.460 C 
ATOM     22  O   LIG    1        0.002  -0.004   0.002  0.00  0.00    -0.500 OA
BRANCH  21  23
ATOM     23  O   LIG    1        1.139   1.891   0.001  0.00  0.00    -0.350 OA
BRANCH  23  25
ATOM     24  C   LIG    1        3.568   2.065  -0.021  0.00  0.00    +0.070 C 
ATOM     25  C   LIG    1        2.367   1.117  -0.015  0.00  0.00    +0.200 C 
ENDBRANCH  23  25
ENDBRANCH  21  23
ENDBRANCH  20  21
ENDBRANCH   1  20
TORSDOF 5
