REMARK  Name = ZINCvU0000000FE8.0
REMARK                            x       y       z     vdW  Elec       q    Type
REMARK                         _______ _______ _______ _____ _____    ______ ____
ROOT
ATOM      1  N   LIG    1       -1.626   6.329   1.499  0.00  0.00    -0.560 N 
ATOM      2  C   LIG    1       -1.205   7.540   1.914  0.00  0.00    +0.530 C 
ATOM      3  O   LIG    1       -0.220   8.043   1.418  0.00  0.00    -0.520 OA
ENDROOT
BRANCH   2   4
ATOM      4  C   LIG    1       -1.960   8.269   2.996  0.00  0.00    +0.000 C 
ATOM      5  C   LIG    1       -3.282   8.794   2.430  0.00  0.00    +0.020 C 
ATOM      6  C   LIG    1       -4.061   9.505   3.541  0.00  0.00    +0.310 C 
ATOM      7  N   LIG    1       -3.204  10.541   4.133  0.00  0.00    -0.620 N 
ATOM      8  C   LIG    1       -1.873  10.160   4.626  0.00  0.00    +0.250 C 
ATOM      9  C   LIG    1       -3.630  11.817   4.221  0.00  0.00    +0.730 C 
ATOM     10  N   LIG    1       -2.884  12.732   4.870  0.00  0.00    -0.640 N 
ATOM     11  C   LIG    1       -1.533  12.514   5.406  0.00  0.00    +0.250 C 
ATOM     12  C   LIG    1       -1.090  13.827   6.083  0.00  0.00    +0.030 C 
ATOM     13  C   LIG    1       -2.439  14.528   6.394  0.00  0.00    +0.040 C 
ATOM     14  C   LIG    1       -3.292  14.118   5.167  0.00  0.00    +0.270 C 
ATOM     15  O   LIG    1       -4.686  12.141   3.714  0.00  0.00    -0.590 OA
ATOM     16  C   LIG    1       -1.118   9.442   3.503  0.00  0.00    +0.050 C 
ENDBRANCH   2   4
BRANCH   1  17
ATOM     17  C   LIG    1       -2.825   5.799   1.987  0.00  0.00    +0.140 A 
ATOM     18  C   LIG    1       -3.922   5.670   1.145  0.00  0.00    +0.000 A 
ATOM     19  C   LIG    1       -5.104   5.143   1.629  0.00  0.00    +0.020 A 
ATOM     20  C   LIG    1       -5.198   4.753   2.952  0.00  0.00    +0.020 A 
ATOM     21  C   LIG    1       -4.109   4.885   3.794  0.00  0.00    +0.030 A 
ATOM     22  C   LIG    1       -2.924   5.407   3.315  0.00  0.00    +0.000 A 
ENDBRANCH   1  17
BRANCH   1  24
ATOM     23  C   LIG    1       -1.692   5.205  -0.673  0.00  0.00    +0.040 C 
ATOM     24  C   LIG    1       -0.827   5.566   0.536  0.00  0.00    +0.300 C 
BRANCH  24  25
ATOM     25  C   LIG    1       -0.323   4.305   1.188  0.00  0.00    -0.100 A 
ATOM     26  C   LIG    1        1.035   4.057   1.258  0.00  0.00    +0.040 A 
ATOM     27  C   LIG    1        1.497   2.900   1.857  0.00  0.00    +0.030 A 
ATOM     28  C   LIG    1        0.600   1.990   2.386  0.00  0.00    -0.030 A 
ATOM     29  C   LIG    1       -0.760   2.235   2.310  0.00  0.00    +0.020 A 
ATOM     30 CL   LIG    1        1.180   0.536   3.138  0.00  0.00    -0.070 Cl
ATOM     31  C   LIG    1       -1.220   3.395   1.717  0.00  0.00    +0.040 A 
ENDBRANCH  24  25
ENDBRANCH   1  24
TORSDOF 4
