REMARK  Name = ZINC590000002qcO.0
REMARK                            x       y       z     vdW  Elec       q    Type
REMARK                         _______ _______ _______ _____ _____    ______ ____
ROOT
ATOM      1  C   LIG    1       -0.801   3.086   1.498  0.00  0.00    +0.080 C 
ATOM      2  C   LIG    1       -1.136   1.773   0.788  0.00  0.00    +0.010 C 
ATOM      3  C   LIG    1       -1.150   1.781  -0.743  0.00  0.00    +0.100 C 
ATOM      4  C   LIG    1       -0.013   1.086   0.008  0.00  0.00    +0.100 C 
ENDROOT
BRANCH   4   5
ATOM      5  N   LIG    1        1.304   1.737  -0.001  0.00  0.00    -0.610 N 
ATOM      6  H   LIG    1        1.948   1.186  -0.548  0.00  0.00    +0.440 HD
ATOM      7  H   LIG    1        1.647   1.816   0.945  0.00  0.00    +0.440 HD
ATOM      8  H   LIG    1        1.221   2.658  -0.406  0.00  0.00    +0.430 HD
ENDBRANCH   4   5
TORSDOF 1
