REMARK  Name = ZINCpk00000wOrMg.0
REMARK                            x       y       z     vdW  Elec       q    Type
REMARK                         _______ _______ _______ _____ _____    ______ ____
ROOT
ATOM      1  O   LIG    1       -3.532   0.435   3.276  0.00  0.00    -0.330 OA
ENDROOT
BRANCH   1   2
ATOM      2  C   LIG    1       -4.271   0.730   4.357  0.00  0.00    +0.470 C 
ATOM      3  O   LIG    1       -4.029   1.722   5.002  0.00  0.00    -0.500 OA
BRANCH   2   4
ATOM      4  C   LIG    1       -5.402  -0.178   4.766  0.00  0.00    +0.110 C 
BRANCH   4   5
ATOM      5  C   LIG    1       -6.077   0.382   6.021  0.00  0.00    +0.070 C 
BRANCH   5   6
ATOM      6  C   LIG    1       -7.225  -0.539   6.436  0.00  0.00    +0.200 C 
BRANCH   6   7
ATOM      7  O   LIG    1       -7.855  -0.016   7.608  0.00  0.00    -0.310 OA
BRANCH   7   8
ATOM      8  C   LIG    1       -8.902  -0.721   8.112  0.00  0.00    +0.140 A 
ATOM      9  C   LIG    1       -9.319  -1.888   7.488  0.00  0.00    -0.060 A 
ATOM     10  C   LIG    1      -10.380  -2.606   8.006  0.00  0.00    +0.070 A 
ATOM     11  C   LIG    1      -11.034  -2.156   9.137  0.00  0.00    +0.010 A 
ATOM     12  C   LIG    1      -10.625  -0.989   9.758  0.00  0.00    -0.050 A 
ATOM     13 BR   LIG    1      -11.523  -0.376  11.305  0.00  0.00    -0.040 Br
ATOM     14  C   LIG    1       -9.560  -0.270   9.247  0.00  0.00    +0.010 A 
ENDBRANCH   7   8
ENDBRANCH   6   7
ENDBRANCH   5   6
ENDBRANCH   4   5
ENDBRANCH   2   4
ENDBRANCH   1   2
BRANCH   1  15
ATOM     15  C   LIG    1       -2.459   1.354   2.940  0.00  0.00    +0.270 C 
BRANCH  15  17
ATOM     16  O   LIG    1       -2.105  -0.159   1.164  0.00  0.00    -0.510 OA
ATOM     17  C   LIG    1       -1.745   0.864   1.707  0.00  0.00    +0.520 C 
ATOM     18  N   LIG    1       -0.707   1.562   1.207  0.00  0.00    -0.720 N 
ATOM     19  H   LIG    1       -0.419   2.381   1.641  0.00  0.00    +0.410 HD
BRANCH  18  20
ATOM     20  C   LIG    1       -0.013   1.086   0.008  0.00  0.00    +0.280 C 
ATOM     21  C   LIG    1       -0.740   1.600  -1.246  0.00  0.00    +0.060 C 
ATOM     22  C   LIG    1        0.212   1.352  -2.445  0.00  0.00    -0.300 C 
ATOM     23  S   LIG    1        1.840   1.856  -1.771  0.00  0.00    +2.400 S 
ATOM     24  O   LIG    1        2.826   0.907  -2.155  0.00  0.00    -0.930 OA
ATOM     25  O   LIG    1        2.050   3.237  -2.029  0.00  0.00    -0.930 OA
ATOM     26  C   LIG    1        1.432   1.624  -0.003  0.00  0.00    -0.310 C 
ENDBRANCH  18  20
ENDBRANCH  15  17
ENDBRANCH   1  15
TORSDOF 9
