REMARK  Name = ZINCpk00000eavhz.0
REMARK                            x       y       z     vdW  Elec       q    Type
REMARK                         _______ _______ _______ _____ _____    ______ ____
ROOT
ATOM      1  C   LIG    1       -0.222   1.232   2.431  0.00  0.00    +0.520 C 
ATOM      2  N   LIG    1       -0.698   1.558   1.213  0.00  0.00    -0.730 N 
ATOM      3  H   LIG    1       -1.495   2.106   1.135  0.00  0.00    +0.400 HD
ATOM      4  O   LIG    1        0.774   0.548   2.529  0.00  0.00    -0.510 OA
ENDROOT
BRANCH   1   5
ATOM      5  C   LIG    1       -0.927   1.718   3.671  0.00  0.00    +0.160 C 
ATOM      6  C   LIG    1       -0.948   3.248   3.679  0.00  0.00    +0.040 C 
BRANCH   5   7
ATOM      7  O   LIG    1       -0.236   1.245   4.829  0.00  0.00    -0.350 OA
BRANCH   7   8
ATOM      8  C   LIG    1       -1.079   1.034   5.963  0.00  0.00    +0.220 C 
BRANCH   8  13
ATOM      9  C   LIG    1        1.080   0.982   9.064  0.00  0.00    +0.120 A 
ATOM     10  C   LIG    1        1.272  -0.380   9.242  0.00  0.00    -0.070 A 
ATOM     11  C   LIG    1        0.702  -1.278   8.360  0.00  0.00    +0.050 A 
ATOM     12  C   LIG    1       -0.062  -0.820   7.303  0.00  0.00    +0.000 A 
ATOM     13  C   LIG    1       -0.250   0.538   7.120  0.00  0.00    -0.050 A 
ATOM     14  C   LIG    1        0.317   1.439   7.999  0.00  0.00    +0.000 A 
BRANCH   9  16
ATOM     15  C   LIG    1        2.412   1.325  11.003  0.00  0.00    +0.250 C 
ATOM     16  O   LIG    1        1.639   1.867   9.931  0.00  0.00    -0.320 OA
ENDBRANCH   9  16
ENDBRANCH   8  13
ENDBRANCH   7   8
ENDBRANCH   5   7
ENDBRANCH   1   5
BRANCH   2  17
ATOM     17  C   LIG    1       -0.013   1.086   0.008  0.00  0.00    +0.280 C 
BRANCH  17  18
ATOM     18  C   LIG    1       -0.753   1.593  -1.232  0.00  0.00    +0.160 C 
BRANCH  18  19
ATOM     19  C   LIG    1       -0.047   1.107  -2.471  0.00  0.00    +0.190 A 
ATOM     20  N   LIG    1       -0.280  -0.009  -3.107  0.00  0.00    -0.280 NA
ATOM     21  N   LIG    1        0.506  -0.102  -4.120  0.00  0.00    -0.280 NA
ATOM     22  C   LIG    1        1.278   0.951  -4.175  0.00  0.00    +0.160 A 
ATOM     23  C   LIG    1        2.394   1.585  -4.976  0.00  0.00    +0.170 C 
ATOM     24  C   LIG    1        2.972   2.667  -4.035  0.00  0.00    +0.070 C 
ATOM     25  C   LIG    1        1.766   2.966  -3.119  0.00  0.00    +0.300 C 
ATOM     26  N   LIG    1        0.944   1.750  -3.137  0.00  0.00    -0.490 N 
ENDBRANCH  18  19
ENDBRANCH  17  18
ENDBRANCH   2  17
TORSDOF 8
