REMARK  Name = ZINCrg00000AuQ5s.0
REMARK                            x       y       z     vdW  Elec       q    Type
REMARK                         _______ _______ _______ _____ _____    ______ ____
ROOT
ATOM      1  C   LIG    1        6.765   3.684  -3.258  0.00  0.00    +0.250 C 
ATOM      2  C   LIG    1        6.342   2.225  -3.039  0.00  0.00    +0.270 C 
ATOM      3  N   LIG    1        5.099   2.731  -2.437  0.00  0.00    -0.640 N 
ATOM      4  C   LIG    1        4.211   2.285  -1.526  0.00  0.00    +0.560 C 
ATOM      5  O   LIG    1        4.419   1.248  -0.932  0.00  0.00    -0.530 OA
ATOM      6  C   LIG    1        5.247   3.932  -3.272  0.00  0.00    +0.270 C 
ENDROOT
BRANCH   1   8
ATOM      7  C   LIG    1        8.681   4.413  -4.575  0.00  0.00    +0.580 C 
ATOM      8  N   LIG    1        7.422   3.932  -4.544  0.00  0.00    -0.600 N 
ATOM      9  C   LIG    1        6.712   3.657  -5.795  0.00  0.00    +0.300 C 
ATOM     10  O   LIG    1        9.240   4.721  -3.540  0.00  0.00    -0.530 OA
BRANCH   7  15
ATOM     11  C   LIG    1       11.494   4.942  -9.517  0.00  0.00    +0.130 C 
ATOM     12  C   LIG    1       10.736   4.812  -8.221  0.00  0.00    +0.210 A 
ATOM     13  C   LIG    1        9.459   5.337  -8.126  0.00  0.00    -0.100 A 
ATOM     14  C   LIG    1        8.759   5.214  -6.938  0.00  0.00    +0.140 A 
ATOM     15  C   LIG    1        9.380   4.567  -5.864  0.00  0.00    -0.270 A 
ATOM     16  C   LIG    1       10.679   4.060  -6.039  0.00  0.00    +0.460 A 
ATOM     17  N   LIG    1       11.302   4.201  -7.199  0.00  0.00    -0.550 NA
BRANCH  16  18
ATOM     18  N   LIG    1       11.310   3.412  -4.994  0.00  0.00    -0.830 N 
ATOM     19  H   LIG    1       12.234   3.129  -5.085  0.00  0.00    +0.410 HD
ATOM     20  H   LIG    1       10.830   3.239  -4.169  0.00  0.00    +0.410 HD
ENDBRANCH  16  18
ENDBRANCH   7  15
ENDBRANCH   1   8
BRANCH   4  21
ATOM     21  C   LIG    1        2.959   3.076  -1.245  0.00  0.00    -0.010 C 
ATOM     22  C   LIG    1        3.253   4.135  -0.180  0.00  0.00    +0.080 C 
BRANCH  21  23
ATOM     23  C   LIG    1        1.864   2.135  -0.739  0.00  0.00    +0.350 C 
BRANCH  23  24
ATOM     24  N   LIG    1        0.614   2.882  -0.579  0.00  0.00    -0.370 N 
ATOM     25  C   LIG    1       -0.573   2.572  -1.141  0.00  0.00    +0.230 A 
ATOM     26  C   LIG    1       -1.470   3.508  -0.753  0.00  0.00    -0.120 A 
ATOM     27  C   LIG    1       -0.810   4.417   0.080  0.00  0.00    +0.070 A 
ATOM     28  C   LIG    1       -1.431   5.620   0.742  0.00  0.00    +0.160 C 
ATOM     29  N   LIG    1        0.440   4.044   0.183  0.00  0.00    -0.290 NA
ENDBRANCH  23  24
ENDBRANCH  21  23
ENDBRANCH   4  21
TORSDOF 6
