REMARK  Name = ZINCrg00000fSzoo.0
REMARK                            x       y       z     vdW  Elec       q    Type
REMARK                         _______ _______ _______ _____ _____    ______ ____
ROOT
ATOM      1  O   LIG    1       -4.983   0.625   0.421  0.00  0.00    -0.530 OA
ATOM      2  C   LIG    1       -4.406   0.820   1.469  0.00  0.00    +0.520 C 
ATOM      3  N   LIG    1       -5.037   0.593   2.638  0.00  0.00    -0.730 N 
ATOM      4  H   LIG    1       -4.575   0.749   3.477  0.00  0.00    +0.410 HD
ENDROOT
BRANCH   3   5
ATOM      5  C   LIG    1       -6.420   0.110   2.642  0.00  0.00    +0.270 C 
BRANCH   5   6
ATOM      6  C   LIG    1       -6.895  -0.065   4.086  0.00  0.00    +0.260 C 
BRANCH   6   7
ATOM      7  N   LIG    1       -8.278  -0.548   4.090  0.00  0.00    -1.110 NA
ATOM      8  H   LIG    1       -8.811  -0.499   3.281  0.00  0.00    +0.420 HD
BRANCH   7   9
ATOM      9  S   LIG    1       -8.931  -1.178   5.475  0.00  0.00    +2.700 S 
ATOM     10  O   LIG    1       -7.987  -2.115   5.974  0.00  0.00    -0.950 OA
ATOM     11  O   LIG    1      -10.276  -1.519   5.166  0.00  0.00    -0.950 OA
BRANCH   9  12
ATOM     12  C   LIG    1       -9.008   0.128   6.656  0.00  0.00    -0.680 A 
ATOM     13  C   LIG    1       -7.944   0.350   7.510  0.00  0.00    +0.120 A 
ATOM     14  C   LIG    1       -8.002   1.378   8.433  0.00  0.00    -0.010 A 
ATOM     15  C   LIG    1       -9.128   2.175   8.510  0.00  0.00    +0.070 A 
ATOM     16  C   LIG    1      -10.194   1.950   7.659  0.00  0.00    -0.010 A 
ATOM     17  C   LIG    1      -10.134   0.925   6.732  0.00  0.00    +0.120 A 
ENDBRANCH   9  12
ENDBRANCH   7   9
ENDBRANCH   6   7
ENDBRANCH   5   6
ENDBRANCH   3   5
BRANCH   2  18
ATOM     18  C   LIG    1       -2.983   1.317   1.465  0.00  0.00    +0.050 C 
BRANCH  18  19
ATOM     19  C   LIG    1       -2.508   1.492   0.021  0.00  0.00    +0.360 C 
BRANCH  19  20
ATOM     20  N   LIG    1       -1.125   1.975   0.018  0.00  0.00    -0.550 N 
ATOM     21  C   LIG    1       -0.014   1.212   0.009  0.00  0.00    +0.630 A 
ATOM     22  O   LIG    1        1.071   2.002   0.003  0.00  0.00    -0.240 OA
ATOM     23  C   LIG    1        0.677   3.299   0.013  0.00  0.00    +0.030 A 
ATOM     24  C   LIG    1        1.373   4.497   0.011  0.00  0.00    +0.060 A 
ATOM     25  C   LIG    1        0.683   5.694   0.023  0.00  0.00    +0.030 A 
ATOM     26  C   LIG    1       -0.700   5.703   0.036  0.00  0.00    +0.040 A 
ATOM     27  C   LIG    1       -1.403   4.513   0.037  0.00  0.00    +0.040 A 
ATOM     28  O   LIG    1        0.002  -0.004   0.002  0.00  0.00    -0.480 OA
ATOM     29  C   LIG    1       -0.718   3.309   0.025  0.00  0.00    +0.070 A 
ENDBRANCH  19  20
ENDBRANCH  18  19
ENDBRANCH   2  18
TORSDOF 8
