REMARK  Name = ZINCqH0000000vwe.0
REMARK                            x       y       z     vdW  Elec       q    Type
REMARK                         _______ _______ _______ _____ _____    ______ ____
ROOT
ATOM      1  C   LIG    1       -4.748   2.768   2.160  0.00  0.00    +0.070 C 
ENDROOT
BRANCH   1   2
ATOM      2  C   LIG    1       -3.568   2.721   3.096  0.00  0.00    +0.440 C 
ATOM      3  O   LIG    1       -3.702   3.046   4.258  0.00  0.00    -0.430 OA
BRANCH   2   8
ATOM      4  C   LIG    1       -0.134   1.750   2.493  0.00  0.00    -0.260 A 
ATOM      5  C   LIG    1       -0.717   1.576   1.246  0.00  0.00    +0.130 A 
ATOM      6  N   LIG    1       -2.011   1.912   1.328  0.00  0.00    -0.520 N 
ATOM      7  H   LIG    1       -2.645   1.885   0.594  0.00  0.00    +0.420 HD
ATOM      8  C   LIG    1       -2.303   2.300   2.620  0.00  0.00    -0.100 A 
ATOM      9  C   LIG    1       -0.010   1.095   0.005  0.00  0.00    +0.160 C 
ATOM     10  C   LIG    1       -1.147   2.211   3.365  0.00  0.00    -0.000 A 
ATOM     11  C   LIG    1       -0.993   2.541   4.827  0.00  0.00    +0.140 C 
BRANCH   4  13
ATOM     12  C   LIG    1        1.715   0.115   3.228  0.00  0.00    +0.080 C 
ATOM     13  C   LIG    1        1.269   1.502   2.842  0.00  0.00    +0.430 C 
ATOM     14  O   LIG    1        2.069   2.413   2.820  0.00  0.00    -0.450 OA
ENDBRANCH   4  13
ENDBRANCH   2   8
ENDBRANCH   1   2
BRANCH   1  15
ATOM     15  S   LIG    1       -6.209   3.343   3.059  0.00  0.00    +0.140 S 
BRANCH  15  16
ATOM     16  C   LIG    1       -7.402   3.303   1.763  0.00  0.00    +0.120 A 
ATOM     17  N   LIG    1       -7.189   2.939   0.521  0.00  0.00    -0.290 NA
ATOM     18  N   LIG    1       -8.286   3.034  -0.144  0.00  0.00    -0.270 NA
ATOM     19  C   LIG    1       -9.235   3.458   0.639  0.00  0.00    +0.180 A 
ATOM     20  O   LIG    1       -8.703   3.633   1.865  0.00  0.00    -0.200 OA
BRANCH  19  21
ATOM     21  C   LIG    1      -10.669   3.703   0.247  0.00  0.00    +0.250 C 
BRANCH  21  22
ATOM     22  C   LIG    1      -11.468   2.442   0.454  0.00  0.00    -0.100 A 
ATOM     23  C   LIG    1      -11.591   1.525  -0.573  0.00  0.00    +0.030 A 
ATOM     24  C   LIG    1      -12.320   0.366  -0.382  0.00  0.00    +0.010 A 
ATOM     25  C   LIG    1      -12.934   0.129   0.834  0.00  0.00    +0.020 A 
ATOM     26  C   LIG    1      -12.815   1.048   1.859  0.00  0.00    +0.010 A 
ATOM     27  C   LIG    1      -12.082   2.204   1.670  0.00  0.00    +0.030 A 
ENDBRANCH  21  22
ENDBRANCH  19  21
ENDBRANCH  15  16
ENDBRANCH   1  15
TORSDOF 7
