REMARK  Name = ZINCrD0000073nLk.0
REMARK                            x       y       z     vdW  Elec       q    Type
REMARK                         _______ _______ _______ _____ _____    ______ ____
ROOT
ATOM      1  C   LIG    1       -0.227   1.193  -2.368  0.00  0.00    +0.510 C 
ATOM      2  O   LIG    1        0.765   0.495  -2.429  0.00  0.00    -0.490 OA
ENDROOT
BRANCH   1   3
ATOM      3  C   LIG    1       -0.880   1.659  -3.608  0.00  0.00    -0.100 A 
ATOM      4  C   LIG    1       -2.024   2.457  -3.541  0.00  0.00    +0.050 A 
ATOM      5  C   LIG    1       -2.629   2.895  -4.701  0.00  0.00    +0.040 A 
ATOM      6  C   LIG    1       -2.112   2.539  -5.932  0.00  0.00    +0.010 A 
ATOM      7  C   LIG    1       -0.977   1.740  -6.011  0.00  0.00    +0.150 A 
ATOM      8  C   LIG    1       -0.359   1.300  -4.851  0.00  0.00    +0.070 A 
BRANCH   7   9
ATOM      9  N   LIG    1       -0.458   1.383  -7.260  0.00  0.00    -0.560 N 
ATOM     10  C   LIG    1       -1.103   1.688  -8.543  0.00  0.00    +0.260 C 
ATOM     11  C   LIG    1        0.002   1.510  -9.610  0.00  0.00    +0.060 C 
ATOM     12  C   LIG    1        0.949   0.504  -8.916  0.00  0.00    +0.070 C 
ATOM     13  C   LIG    1        0.692   0.710  -7.439  0.00  0.00    +0.510 C 
ATOM     14  O   LIG    1        1.418   0.325  -6.547  0.00  0.00    -0.500 OA
ENDBRANCH   7   9
ENDBRANCH   1   3
BRANCH   1  15
ATOM     15  O   LIG    1       -0.733   1.542  -1.168  0.00  0.00    -0.350 OA
BRANCH  15  16
ATOM     16  C   LIG    1       -0.040   1.047   0.008  0.00  0.00    +0.300 C 
BRANCH  16  22
ATOM     17  C   LIG    1       -0.257   1.186   2.503  0.00  0.00    +0.170 A 
ATOM     18  C   LIG    1       -0.901   1.633   3.652  0.00  0.00    -0.080 A 
ATOM     19  C   LIG    1       -2.023   2.424   3.549  0.00  0.00    +0.110 A 
ATOM     20  C   LIG    1       -2.512   2.775   2.285  0.00  0.00    -0.210 A 
ATOM     21  C   LIG    1       -1.853   2.324   1.135  0.00  0.00    +0.150 A 
ATOM     22  C   LIG    1       -0.743   1.535   1.248  0.00  0.00    -0.140 A 
BRANCH  20  23
ATOM     23  C   LIG    1       -3.709   3.618   2.166  0.00  0.00    +0.400 C 
ATOM     24  O   LIG    1       -4.131   3.920   1.069  0.00  0.00    -0.460 OA
ATOM     25  C   LIG    1       -4.413   4.106   3.405  0.00  0.00    +0.080 C 
ENDBRANCH  20  23
BRANCH  17  27
ATOM     26  C   LIG    1        1.294   0.087   3.927  0.00  0.00    +0.250 C 
ATOM     27  O   LIG    1        0.849   0.408   2.607  0.00  0.00    -0.310 OA
ENDBRANCH  17  27
ENDBRANCH  16  22
ENDBRANCH  15  16
ENDBRANCH   1  15
TORSDOF 7
