REMARK  Name = ZINCpe00000Rc5Zw.0
REMARK                            x       y       z     vdW  Elec       q    Type
REMARK                         _______ _______ _______ _____ _____    ______ ____
ROOT
ATOM      1  C   LIG    1       -1.251   3.554  -1.229  0.00  0.00    +0.360 C 
ATOM      2  C   LIG    1       -1.690   2.127  -0.884  0.00  0.00    -0.330 C 
ATOM      3  S   LIG    1       -0.685   1.521   0.503  0.00  0.00    +2.420 S 
ATOM      4  C   LIG    1       -0.975   2.810   1.750  0.00  0.00    -0.340 C 
ATOM      5  C   LIG    1       -0.607   4.172   1.152  0.00  0.00    +0.320 C 
ATOM      6  O   LIG    1        0.684   1.557   0.122  0.00  0.00    -0.930 OA
ATOM      7  O   LIG    1       -1.244   0.302   0.970  0.00  0.00    -0.930 OA
ATOM      8  N   LIG    1       -1.404   4.411  -0.052  0.00  0.00    -0.640 N 
ATOM      9  C   LIG    1       -2.287   5.429  -0.078  0.00  0.00    +0.710 C 
ATOM     10  N   LIG    1       -2.351   6.291   0.957  0.00  0.00    -0.750 N 
ATOM     11  H   LIG    1       -1.713   6.224   1.684  0.00  0.00    +0.390 HD
ATOM     12  O   LIG    1       -3.024   5.571  -1.034  0.00  0.00    -0.550 OA
ENDROOT
BRANCH   1  16
ATOM     13  C   LIG    1       -2.727   5.849  -5.434  0.00  0.00    +0.350 C 
ATOM     14  N   LIG    1       -2.743   5.086  -4.183  0.00  0.00    -0.380 N 
ATOM     15  C   LIG    1       -1.673   4.806  -3.410  0.00  0.00    +0.220 A 
ATOM     16  C   LIG    1       -2.107   4.085  -2.351  0.00  0.00    -0.210 A 
ATOM     17  C   LIG    1       -3.489   3.913  -2.484  0.00  0.00    +0.290 A 
ATOM     18  N   LIG    1       -3.872   4.518  -3.579  0.00  0.00    -0.300 NA
ENDBRANCH   1  16
BRANCH  10  19
ATOM     19  C   LIG    1       -3.385   7.329   0.982  0.00  0.00    +0.280 C 
BRANCH  19  20
ATOM     20  C   LIG    1       -3.237   8.165   2.255  0.00  0.00    +0.040 C 
BRANCH  20  21
ATOM     21  C   LIG    1       -4.316   9.249   2.281  0.00  0.00    +0.150 C 
ATOM     22  C   LIG    1       -4.093  10.162   3.489  0.00  0.00    -0.010 C 
ATOM     23  C   LIG    1       -5.212  11.207   3.543  0.00  0.00    +0.010 C 
ATOM     24  C   LIG    1       -6.564  10.490   3.598  0.00  0.00    -0.020 C 
ATOM     25  C   LIG    1       -6.692   9.564   2.385  0.00  0.00    +0.210 C 
ATOM     26  O   LIG    1       -5.604   8.637   2.379  0.00  0.00    -0.380 OA
ENDBRANCH  20  21
ENDBRANCH  19  20
ENDBRANCH  10  19
TORSDOF 4
