REMARK  Name = ZINCqH00000080Ig.0
REMARK                            x       y       z     vdW  Elec       q    Type
REMARK                         _______ _______ _______ _____ _____    ______ ____
ROOT
ATOM      1  C   UNK A  0       -6.340   1.472   0.041  0.00  0.00    +0.310 C 
ATOM      2  C   UNK A  0       -7.189   0.262  -0.403  0.00  0.00    +0.030 C 
ATOM      3  C   UNK A  0       -6.313  -0.933   0.026  0.00  0.00    +0.090 C 
ATOM      4  C   UNK A  0       -4.894  -0.406   0.022  0.00  0.00    -0.080 A 
ATOM      5  C   UNK A  0       -3.686  -1.086   0.013  0.00  0.00    +0.030 A 
ATOM      6  C   UNK A  0       -2.495  -0.391   0.011  0.00  0.00    +0.030 A 
ATOM      7  C   UNK A  0       -2.505   1.002   0.019  0.00  0.00    -0.050 A 
ATOM      8  C   UNK A  0       -3.720   1.682   0.034  0.00  0.00    +0.040 A 
ATOM      9  C   UNK A  0       -4.910   0.978   0.031  0.00  0.00    -0.110 A 
ENDROOT
BRANCH   1  13
ATOM     10  N   MET A  1       -7.671   4.471  -1.619  0.00  0.00    -0.730 N 
ATOM     11  H   MET A  1       -7.047   4.579  -2.353  0.00  0.00    +0.400 HD
ATOM     12  C   UNK A  0       -7.521   3.451  -0.751  0.00  0.00    +0.710 C 
ATOM     13  N   UNK A  0       -6.503   2.581  -0.903  0.00  0.00    -0.740 N 
ATOM     14  H   UNK A  0       -5.879   2.689  -1.637  0.00  0.00    +0.400 HD
ATOM     15  O   UNK A  0       -8.304   3.316   0.170  0.00  0.00    -0.590 OA
BRANCH  10  16
ATOM     16  CA  MET A  1       -8.778   5.417  -1.454  0.00  0.00    +0.270 C 
BRANCH  16  17
ATOM     17  CB  MET A  1       -8.408   6.753  -2.102  0.00  0.00    +0.070 C 
BRANCH  17  18
ATOM     18  CG  MET A  1       -7.228   7.375  -1.352  0.00  0.00    +0.070 C 
BRANCH  18  20
ATOM     19  CE  MET A  1       -5.397   9.531  -1.109  0.00  0.00    +0.140 C 
ATOM     20  SD  MET A  1       -6.790   8.958  -2.120  0.00  0.00    -0.260 S 
ENDBRANCH  18  20
ENDBRANCH  17  18
ENDBRANCH  16  17
BRANCH  16  21
ATOM     21  C   MET A  1      -10.033   4.856  -2.123  0.00  0.00    +0.170 C 
BRANCH  21  22
ATOM     22  O   MET A  1       -9.821   4.765  -3.534  0.00  0.00    -0.570 OA
ATOM     23  H   MET A  1      -10.578   4.416  -4.024  0.00  0.00    +0.380 HD
ENDBRANCH  21  22
ENDBRANCH  16  21
ENDBRANCH  10  16
ENDBRANCH   1  13
BRANCH   7  24
ATOM     24  C   UNK A  0       -1.228   1.757   0.017  0.00  0.00    -0.040 A 
ATOM     25  C   UNK A  0       -0.013   1.076   0.008  0.00  0.00    +0.020 A 
ATOM     26  C   UNK A  0        1.172   1.783   0.000  0.00  0.00    +0.010 A 
ATOM     27  C   UNK A  0        1.155   3.167   0.008  0.00  0.00    +0.000 A 
ATOM     28  C   UNK A  0       -0.048   3.848   0.023  0.00  0.00    +0.000 A 
ATOM     29  C   UNK A  0       -1.239   3.151   0.032  0.00  0.00    +0.010 A 
ENDBRANCH   7  24
TORSDOF 8
