REMARK  Name = ZINCpe000000ZtxM.0
REMARK                            x       y       z     vdW  Elec       q    Type
REMARK                         _______ _______ _______ _____ _____    ______ ____
ROOT
ATOM      1  O   LIG    1        1.885   9.281  -1.441  0.00  0.00    -0.490 OA
ATOM      2  C   LIG    1        0.782   8.799  -1.587  0.00  0.00    +0.490 C 
ATOM      3  N   LIG    1        0.357   7.825  -0.757  0.00  0.00    -0.620 N 
ATOM      4  C   LIG    1        1.260   7.243   0.248  0.00  0.00    +0.300 C 
ATOM      5  C   LIG    1        1.219   5.717   0.113  0.00  0.00    +0.210 C 
ATOM      6  N   LIG    1       -0.175   5.259   0.191  0.00  0.00    -0.470 N 
ATOM      7  C   LIG    1       -0.973   5.789  -0.923  0.00  0.00    +0.190 C 
ATOM      8  C   LIG    1       -1.021   7.318  -0.831  0.00  0.00    +0.290 C 
ENDROOT
BRANCH   2   9
ATOM      9  C   LIG    1       -0.114   9.287  -2.696  0.00  0.00    +0.230 C 
ATOM     10  N   LIG    1       -0.445   8.171  -3.589  0.00  0.00    -0.670 NA
ATOM     11  H   LIG    1       -1.280   7.696  -3.280  0.00  0.00    +0.350 HD
ATOM     12  C   LIG    1        0.668   7.236  -3.749  0.00  0.00    +0.160 C 
ATOM     13  C   LIG    1        1.841   7.809  -4.514  0.00  0.00    +0.230 C 
ATOM     14  O   LIG    1        2.443   8.887  -3.787  0.00  0.00    -0.310 OA
ATOM     15  C   LIG    1        1.873  10.108  -3.977  0.00  0.00    +0.140 A 
ATOM     16  C   LIG    1        2.550  11.091  -4.684  0.00  0.00    -0.010 A 
ATOM     17  C   LIG    1        1.941  12.310  -4.915  0.00  0.00    +0.030 A 
ATOM     18  C   LIG    1        0.664  12.550  -4.444  0.00  0.00    +0.000 A 
ATOM     19  C   LIG    1       -0.008  11.573  -3.729  0.00  0.00    +0.040 A 
ATOM     20  C   LIG    1        0.603  10.359  -3.494  0.00  0.00    -0.100 A 
ENDBRANCH   2   9
BRANCH   6  21
ATOM     21  C   LIG    1       -0.242   3.872   0.236  0.00  0.00    +0.260 A 
ATOM     22  C   LIG    1       -1.478   3.234   0.311  0.00  0.00    +0.210 A 
ATOM     23  N   LIG    1       -1.537   1.917   0.348  0.00  0.00    -0.420 NA
ATOM     24  C   LIG    1       -0.425   1.202   0.324  0.00  0.00    +0.190 A 
ATOM     25  C   LIG    1        0.803   1.831   0.249  0.00  0.00    +0.250 A 
ATOM     26  N   LIG    1        0.871   3.151   0.207  0.00  0.00    -0.480 NA
ENDBRANCH   6  21
TORSDOF 2
