REMARK  Name = ZINCpe000000TrOj.0
REMARK                            x       y       z     vdW  Elec       q    Type
REMARK                         _______ _______ _______ _____ _____    ______ ____
ROOT
ATOM      1  N   LIG    1       -2.120   1.537   1.614  0.00  0.00    -0.500 NA
ENDROOT
BRANCH   1   3
ATOM      2  C   LIG    1       -1.154   3.740   2.073  0.00  0.00    -0.020 C 
ATOM      3  C   LIG    1       -0.857   2.275   1.744  0.00  0.00    +0.220 C 
ENDBRANCH   1   3
BRANCH   1   4
ATOM      4  C   LIG    1       -2.885   2.004   0.450  0.00  0.00    +0.220 C 
BRANCH   4   5
ATOM      5  C   LIG    1       -2.265   1.460  -0.811  0.00  0.00    +0.510 C 
ATOM      6  N   LIG    1       -2.737   1.842  -2.014  0.00  0.00    -0.720 N 
ATOM      7  H   LIG    1       -3.477   2.467  -2.068  0.00  0.00    +0.400 HD
ATOM      8  O   LIG    1       -1.339   0.679  -0.743  0.00  0.00    -0.500 OA
BRANCH   6   9
ATOM      9  C   LIG    1       -2.134   1.313  -3.240  0.00  0.00    +0.260 C 
ATOM     10  C   LIG    1       -0.937   2.186  -3.657  0.00  0.00    +0.060 C 
ATOM     11  C   LIG    1       -0.542   1.824  -5.103  0.00  0.00    -0.310 C 
ATOM     12  S   LIG    1       -2.085   1.227  -5.883  0.00  0.00    +2.400 S 
ATOM     13  O   LIG    1       -2.507   2.162  -6.866  0.00  0.00    -0.930 OA
ATOM     14  O   LIG    1       -1.940  -0.145  -6.225  0.00  0.00    -0.930 OA
ATOM     15  C   LIG    1       -3.156   1.374  -4.404  0.00  0.00    -0.320 C 
ENDBRANCH   6   9
ENDBRANCH   4   5
ENDBRANCH   1   4
BRANCH   1  16
ATOM     16  C   LIG    1       -2.918   1.637   2.843  0.00  0.00    +0.220 C 
BRANCH  16  17
ATOM     17  C   LIG    1       -2.203   0.929   3.965  0.00  0.00    +0.510 C 
ATOM     18  N   LIG    1       -2.752   0.890   5.195  0.00  0.00    -0.680 N 
ATOM     19  H   LIG    1       -3.569   1.381   5.378  0.00  0.00    +0.410 HD
ATOM     20  O   LIG    1       -1.134   0.393   3.760  0.00  0.00    -0.490 OA
BRANCH  18  21
ATOM     21  C   LIG    1       -2.142   0.144   6.210  0.00  0.00    +0.170 A 
ATOM     22  C   LIG    1       -1.487  -1.042   5.904  0.00  0.00    +0.020 A 
ATOM     23  C   LIG    1       -0.881  -1.774   6.906  0.00  0.00    +0.070 A 
ATOM     24  C   LIG    1       -0.938  -1.333   8.216  0.00  0.00    -0.120 A 
ATOM     25  C   LIG    1       -1.595  -0.156   8.525  0.00  0.00    +0.070 A 
ATOM     26  I   LIG    1       -0.026  -2.451   9.735  0.00  0.00    -0.040 I 
ATOM     27  C   LIG    1       -2.197   0.583   7.526  0.00  0.00    -0.010 A 
ENDBRANCH  18  21
ENDBRANCH  16  17
ENDBRANCH   1  16
TORSDOF 7
