REMARK  Name = ZINCpk00000l0c6j.0
REMARK                            x       y       z     vdW  Elec       q    Type
REMARK                         _______ _______ _______ _____ _____    ______ ____
ROOT
ATOM      1  O   LIG    1        4.008   6.299   0.754  0.00  0.00    -0.330 OA
ENDROOT
BRANCH   1   2
ATOM      2  C   LIG    1        4.300   7.474   1.334  0.00  0.00    +0.460 C 
ATOM      3  O   LIG    1        3.591   7.907   2.212  0.00  0.00    -0.490 OA
BRANCH   2   4
ATOM      4  C   LIG    1        5.513   8.252   0.892  0.00  0.00    +0.110 C 
BRANCH   4   5
ATOM      5  C   LIG    1        5.615   9.543   1.707  0.00  0.00    -0.040 C 
ATOM      6  C   LIG    1        5.744   9.199   3.193  0.00  0.00    +0.030 C 
ATOM      7  C   LIG    1        5.847  10.490   4.008  0.00  0.00    -0.010 C 
ATOM      8  C   LIG    1        4.590  11.334   3.787  0.00  0.00    +0.010 C 
ATOM      9  C   LIG    1        4.462  11.678   2.301  0.00  0.00    -0.010 C 
ATOM     10  C   LIG    1        5.692  12.468   1.853  0.00  0.00    +0.010 C 
ATOM     11  C   LIG    1        6.949  11.624   2.074  0.00  0.00    -0.010 C 
ATOM     12  C   LIG    1        7.077  11.280   3.559  0.00  0.00    +0.010 C 
ATOM     13  C   LIG    1        4.359  10.387   1.486  0.00  0.00    +0.030 C 
ATOM     14  C   LIG    1        6.846  10.333   1.258  0.00  0.00    +0.020 C 
ENDBRANCH   4   5
ENDBRANCH   2   4
ENDBRANCH   1   2
BRANCH   1  15
ATOM     15  C   LIG    1        2.826   5.605   1.230  0.00  0.00    +0.250 C 
BRANCH  15  17
ATOM     16  O   LIG    1        3.459   4.012  -0.393  0.00  0.00    -0.510 OA
ATOM     17  C   LIG    1        2.659   4.316   0.468  0.00  0.00    +0.520 C 
ATOM     18  N   LIG    1        1.622   3.500   0.741  0.00  0.00    -0.720 N 
ATOM     19  H   LIG    1        0.983   3.742   1.429  0.00  0.00    +0.410 HD
BRANCH  18  20
ATOM     20  C   LIG    1        1.460   2.246   0.000  0.00  0.00    +0.270 C 
ATOM     21  C   LIG    1        2.293   1.139   0.668  0.00  0.00    +0.060 C 
ATOM     22  C   LIG    1        1.823  -0.204   0.051  0.00  0.00    -0.300 C 
ATOM     23  S   LIG    1        0.002  -0.004   0.002  0.00  0.00    +2.400 S 
ATOM     24  O   LIG    1       -0.490  -0.475  -1.245  0.00  0.00    -0.930 OA
ATOM     25  O   LIG    1       -0.558  -0.489   1.215  0.00  0.00    -0.930 OA
ATOM     26  C   LIG    1       -0.023   1.825   0.012  0.00  0.00    -0.310 C 
ENDBRANCH  18  20
ENDBRANCH  15  17
ENDBRANCH   1  15
TORSDOF 6
