REMARK  Name = ZINCpe00000VVGas.0
REMARK                            x       y       z     vdW  Elec       q    Type
REMARK                         _______ _______ _______ _____ _____    ______ ____
ROOT
ATOM      1  C   LIG    1        2.896   1.113  -6.572  0.00  0.00    +0.070 C 
ATOM      2  C   LIG    1        2.907   2.436  -5.804  0.00  0.00    +0.270 C 
ENDROOT
BRANCH   2   3
ATOM      3  N   LIG    1        2.390   3.504  -6.663  0.00  0.00    -0.530 N 
ATOM      4  C   LIG    1        3.174   4.565  -6.949  0.00  0.00    +0.600 A 
ATOM      5  C   LIG    1        2.671   5.588  -7.781  0.00  0.00    -0.160 A 
ATOM      6  C   LIG    1        1.378   5.483  -8.278  0.00  0.00    +0.320 A 
ATOM      7  N   LIG    1        0.622   4.371  -7.944  0.00  0.00    -0.510 N 
ATOM      8  C   LIG    1       -0.744   4.235  -8.456  0.00  0.00    +0.350 C 
ATOM      9  N   LIG    1        1.151   6.568  -9.022  0.00  0.00    -0.500 NA
ATOM     10  C   LIG    1        2.210   7.337  -9.021  0.00  0.00    +0.500 A 
ATOM     11  N   LIG    1        3.177   6.776  -8.268  0.00  0.00    -0.410 N 
ATOM     12  C   LIG    1        4.512   7.325  -8.015  0.00  0.00    +0.360 C 
ATOM     13  O   LIG    1        4.302   4.636  -6.497  0.00  0.00    -0.520 OA
ATOM     14  C   LIG    1        1.141   3.415  -7.151  0.00  0.00    +0.720 A 
ATOM     15  O   LIG    1        0.462   2.446  -6.869  0.00  0.00    -0.520 OA
ENDBRANCH   2   3
BRANCH   2  16
ATOM     16  C   LIG    1        2.039   2.312  -4.578  0.00  0.00    +0.510 C 
ATOM     17  N   LIG    1        2.325   1.389  -3.640  0.00  0.00    -0.720 N 
ATOM     18  H   LIG    1        3.090   0.803  -3.753  0.00  0.00    +0.400 HD
ATOM     19  O   LIG    1        1.082   3.044  -4.437  0.00  0.00    -0.520 OA
BRANCH  17  20
ATOM     20  C   LIG    1        1.480   1.268  -2.449  0.00  0.00    +0.240 C 
ATOM     21  C   LIG    1        1.910   2.335  -1.423  0.00  0.00    -0.010 C 
ATOM     22  C   LIG    1        1.401   2.035  -0.000  0.00  0.00    +0.010 C 
ATOM     23  C   LIG    1       -0.019   1.538   0.011  0.00  0.00    +0.010 C 
ATOM     24  C   LIG    1        0.002  -0.004   0.002  0.00  0.00    +0.000 C 
ATOM     25  C   LIG    1        0.231  -0.548  -1.328  0.00  0.00    +0.000 C 
ATOM     26  C   LIG    1        1.598  -0.131  -1.907  0.00  0.00    +0.010 C 
ENDBRANCH  17  20
ENDBRANCH   2  16
TORSDOF 3
