REMARK  Name = ZINCpk00000e9Zoq.0
REMARK                            x       y       z     vdW  Elec       q    Type
REMARK                         _______ _______ _______ _____ _____    ______ ____
ROOT
ATOM      1  C   LIG    1       -3.015  -3.899   0.010  0.00  0.00    +0.520 C 
ATOM      2  N   LIG    1       -2.787  -2.571   0.015  0.00  0.00    -0.730 N 
ATOM      3  H   LIG    1       -3.533  -1.950   0.025  0.00  0.00    +0.400 HD
ATOM      4  O   LIG    1       -2.083  -4.674  -0.003  0.00  0.00    -0.530 OA
ENDROOT
BRANCH   1  10
ATOM      5  C   LIG    1       -7.609  -3.777  -1.369  0.00  0.00    +0.650 C 
ATOM      6  N   LIG    1       -6.501  -4.536  -1.263  0.00  0.00    -0.590 N 
ATOM      7  C   LIG    1       -6.601  -6.000  -1.187  0.00  0.00    +0.290 C 
ATOM      8  C   LIG    1       -5.844  -6.482   0.055  0.00  0.00    +0.020 C 
ATOM      9  C   LIG    1       -4.409  -5.951   0.011  0.00  0.00    +0.060 C 
ATOM     10  C   LIG    1       -4.429  -4.420   0.021  0.00  0.00    -0.020 C 
ATOM     11  C   LIG    1       -5.170  -3.915  -1.221  0.00  0.00    +0.320 C 
ATOM     12  O   LIG    1       -7.514  -2.567  -1.432  0.00  0.00    -0.570 OA
BRANCH   5  14
ATOM     13  C   LIG    1       -9.973  -3.480  -1.522  0.00  0.00    +0.280 C 
ATOM     14  O   LIG    1       -8.823  -4.359  -1.407  0.00  0.00    -0.370 OA
ENDBRANCH   5  14
ENDBRANCH   1  10
BRANCH   2  15
ATOM     15  C   LIG    1       -1.413  -2.063   0.004  0.00  0.00    +0.260 C 
BRANCH  15  16
ATOM     16  C   LIG    1       -1.433  -0.534   0.013  0.00  0.00    +0.010 C 
BRANCH  16  17
ATOM     17  C   LIG    1        0.002  -0.004   0.002  0.00  0.00    +0.260 C 
BRANCH  17  18
ATOM     18  N   LIG    1       -0.018   1.461   0.010  0.00  0.00    -0.730 N 
ATOM     19  H   LIG    1       -0.864   1.934   0.017  0.00  0.00    +0.400 HD
ATOM     20  C   LIG    1        1.140   2.151   0.003  0.00  0.00    +0.560 C 
ATOM     21  O   LIG    1        2.201   1.557  -0.011  0.00  0.00    -0.530 OA
BRANCH  20  22
ATOM     22  C   LIG    1        1.120   3.629   0.011  0.00  0.00    -0.140 A 
ATOM     23  C   LIG    1       -0.096   4.313   0.020  0.00  0.00    +0.030 A 
ATOM     24  C   LIG    1       -0.108   5.693   0.033  0.00  0.00    +0.000 A 
ATOM     25  C   LIG    1        1.083   6.398   0.026  0.00  0.00    +0.040 A 
ATOM     26  C   LIG    1        2.292   5.725   0.010  0.00  0.00    +0.000 A 
ATOM     27  C   LIG    1        2.317   4.346   0.003  0.00  0.00    +0.080 A 
ENDBRANCH  20  22
ENDBRANCH  17  18
ENDBRANCH  16  17
ENDBRANCH  15  16
ENDBRANCH   2  15
TORSDOF 7
