REMARK  Name = ZINC660000002GFq.0
REMARK                            x       y       z     vdW  Elec       q    Type
REMARK                         _______ _______ _______ _____ _____    ______ ____
ROOT
ATOM      1  O   LIG    1       -2.594   2.836   1.462  0.00  0.00    -0.450 OA
ATOM      2  C   LIG    1       -1.782   2.286   0.745  0.00  0.00    +0.490 C 
ATOM      3  C   LIG    1       -1.806   2.301  -0.720  0.00  0.00    -0.060 C 
ATOM      4  C   LIG    1       -0.776   1.602  -1.189  0.00  0.00    +0.070 C 
ATOM      5  C   LIG    1       -0.013   1.086   0.008  0.00  0.00    +0.290 C 
ATOM      6  O   LIG    1       -0.726   1.571   1.180  0.00  0.00    -0.330 OA
ENDROOT
TORSDOF 0
