REMARK  Name = ZINCpe000027pGVe.0
REMARK                            x       y       z     vdW  Elec       q    Type
REMARK                         _______ _______ _______ _____ _____    ______ ____
ROOT
ATOM      1  C   LIG    1       -1.560   3.594   2.450  0.00  0.00    +0.530 C 
ATOM      2  N   LIG    1       -1.717   4.916   2.660  0.00  0.00    -0.620 N 
ATOM      3  C   LIG    1       -2.479   5.524   3.761  0.00  0.00    +0.250 C 
ATOM      4  C   LIG    1       -2.402   7.054   3.581  0.00  0.00    +0.270 C 
ATOM      5  C   LIG    1       -2.077   7.211   2.072  0.00  0.00    +0.170 C 
ATOM      6  C   LIG    1       -1.149   5.992   1.828  0.00  0.00    +0.250 C 
ATOM      7  O   LIG    1       -2.071   2.795   3.205  0.00  0.00    -0.520 OA
ENDROOT
BRANCH   4   8
ATOM      8  N   LIG    1       -3.688   7.679   3.901  0.00  0.00    -0.720 N 
ATOM      9  H   LIG    1       -4.333   7.851   3.197  0.00  0.00    +0.410 HD
ATOM     10  C   LIG    1       -3.975   8.016   5.175  0.00  0.00    +0.520 C 
ATOM     11  O   LIG    1       -3.168   7.801   6.055  0.00  0.00    -0.530 OA
BRANCH  10  12
ATOM     12  C   LIG    1       -5.297   8.658   5.504  0.00  0.00    +0.070 C 
BRANCH  12  13
ATOM     13  C   LIG    1       -5.368   8.937   7.007  0.00  0.00    +0.110 C 
BRANCH  13  14
ATOM     14  C   LIG    1       -6.691   9.579   7.337  0.00  0.00    -0.120 A 
ATOM     15  C   LIG    1       -6.790  10.955   7.418  0.00  0.00    +0.040 A 
ATOM     16  C   LIG    1       -8.005  11.545   7.714  0.00  0.00    +0.000 A 
ATOM     17  C   LIG    1       -9.118  10.759   7.942  0.00  0.00    +0.040 A 
ATOM     18  C   LIG    1       -9.021   9.383   7.868  0.00  0.00    -0.010 A 
ATOM     19  C   LIG    1       -7.806   8.791   7.565  0.00  0.00    +0.100 A 
ATOM     20  F   LIG    1       -7.710   7.445   7.491  0.00  0.00    -0.140 F 
ENDBRANCH  13  14
ENDBRANCH  12  13
ENDBRANCH  10  12
ENDBRANCH   4   8
BRANCH   5  21
ATOM     21  O   LIG    1       -3.264   7.124   1.280  0.00  0.00    -0.550 OA
ATOM     22  H   LIG    1       -3.110   7.216   0.330  0.00  0.00    +0.390 HD
ENDBRANCH   5  21
BRANCH   1  23
ATOM     23  C   LIG    1       -0.750   3.109   1.275  0.00  0.00    +0.070 C 
BRANCH  23  24
ATOM     24  C   LIG    1       -0.729   1.579   1.267  0.00  0.00    +0.170 C 
ATOM     25  C   LIG    1       -0.013   1.086   0.008  0.00  0.00    +0.020 C 
BRANCH  24  27
ATOM     26  C   LIG    1       -0.496  -0.163   2.897  0.00  0.00    +0.210 C 
ATOM     27  O   LIG    1       -0.038   1.106   2.425  0.00  0.00    -0.380 OA
ENDBRANCH  24  27
ENDBRANCH  23  24
ENDBRANCH   1  23
TORSDOF 8
