REMARK  Name = ZINCvU0000000JX5.0
REMARK                            x       y       z     vdW  Elec       q    Type
REMARK                         _______ _______ _______ _____ _____    ______ ____
ROOT
ATOM      1  C   LIG    1       -2.505   6.019  -0.482  0.00  0.00    +0.150 A 
ATOM      2  N   LIG    1       -1.484   6.736  -0.072  0.00  0.00    -0.290 NA
ATOM      3  N   LIG    1       -1.658   7.971  -0.384  0.00  0.00    -0.280 NA
ATOM      4  C   LIG    1       -2.801   8.118  -1.011  0.00  0.00    +0.270 A 
ATOM      5  N   LIG    1       -3.377   6.872  -1.099  0.00  0.00    -0.450 N 
ENDROOT
BRANCH   4   6
ATOM      6  C   LIG    1       -3.361   9.384  -1.532  0.00  0.00    -0.130 A 
ATOM      7  C   LIG    1       -2.830  10.630  -1.406  0.00  0.00    +0.070 A 
ATOM      8  O   LIG    1       -3.645  11.502  -2.018  0.00  0.00    -0.170 OA
ATOM      9  C   LIG    1       -4.705  10.872  -2.548  0.00  0.00    +0.190 A 
ATOM     10  C   LIG    1       -1.544  10.973  -0.700  0.00  0.00    +0.200 C 
ATOM     11  C   LIG    1       -4.603   9.556  -2.297  0.00  0.00    -0.060 A 
ENDBRANCH   4   6
BRANCH   1  12
ATOM     12  S   LIG    1       -2.709   4.281  -0.280  0.00  0.00    +0.050 S 
BRANCH  12  13
ATOM     13  C   LIG    1       -1.177   3.884   0.598  0.00  0.00    +0.000 C 
ATOM     14  C   LIG    1       -1.184   4.563   1.969  0.00  0.00    +0.100 C 
BRANCH  13  15
ATOM     15  C   LIG    1       -1.073   2.391   0.777  0.00  0.00    +0.420 C 
ATOM     16  O   LIG    1       -2.077   1.710   0.787  0.00  0.00    -0.440 OA
BRANCH  15  20
ATOM     17  C   LIG    1        2.725   0.573   1.234  0.00  0.00    +0.170 A 
ATOM     18  C   LIG    1        1.575  -0.210   1.252  0.00  0.00    -0.030 A 
ATOM     19  C   LIG    1        0.343   0.374   1.106  0.00  0.00    +0.130 A 
ATOM     20  C   LIG    1        0.244   1.761   0.940  0.00  0.00    -0.210 A 
ATOM     21  C   LIG    1        1.404   2.545   0.923  0.00  0.00    +0.110 A 
ATOM     22  C   LIG    1        2.631   1.951   1.069  0.00  0.00    -0.080 A 
BRANCH  17  24
ATOM     23  C   LIG    1        5.081   0.852   1.350  0.00  0.00    +0.250 C 
ATOM     24  O   LIG    1        3.942  -0.010   1.378  0.00  0.00    -0.310 OA
ENDBRANCH  17  24
ENDBRANCH  15  20
ENDBRANCH  13  15
ENDBRANCH  12  13
ENDBRANCH   1  12
BRANCH   5  25
ATOM     25  C   LIG    1       -4.658   6.531  -1.722  0.00  0.00    +0.360 C 
BRANCH  25  26
ATOM     26  C   LIG    1       -4.420   6.055  -3.132  0.00  0.00    -0.130 A 
ATOM     27  C   LIG    1       -4.297   6.971  -4.160  0.00  0.00    +0.030 A 
ATOM     28  C   LIG    1       -4.074   6.535  -5.452  0.00  0.00    +0.010 A 
ATOM     29  C   LIG    1       -3.985   5.182  -5.719  0.00  0.00    +0.030 A 
ATOM     30  C   LIG    1       -4.113   4.265  -4.692  0.00  0.00    +0.010 A 
ATOM     31  C   LIG    1       -4.331   4.701  -3.399  0.00  0.00    +0.040 A 
ENDBRANCH  25  26
ENDBRANCH   5  25
TORSDOF 8
