REMARK  Name = ZINCrH000004s24d.0
REMARK                            x       y       z     vdW  Elec       q    Type
REMARK                         _______ _______ _______ _____ _____    ______ ____
ROOT
ATOM      1  C   LIG    1       -0.993   3.281   3.011  0.00  0.00    -0.020 C 
ATOM      2  C   LIG    1       -2.506   3.051   2.962  0.00  0.00    +0.060 C 
ATOM      3  C   LIG    1       -3.139   3.571   4.255  0.00  0.00    +0.190 C 
ATOM      4  N   LIG    1       -2.847   5.003   4.402  0.00  0.00    -0.500 N 
ATOM      5  C   LIG    1       -1.402   5.243   4.500  0.00  0.00    +0.190 C 
ATOM      6  C   LIG    1       -0.717   4.773   3.214  0.00  0.00    +0.070 C 
ENDROOT
BRANCH   4   7
ATOM      7  C   LIG    1       -3.519   5.539   5.503  0.00  0.00    +0.160 A 
ATOM      8  C   LIG    1       -3.286   5.034   6.775  0.00  0.00    -0.010 A 
ATOM      9  C   LIG    1       -3.948   5.570   7.862  0.00  0.00    +0.080 A 
ATOM     10  C   LIG    1       -4.851   6.602   7.683  0.00  0.00    +0.030 A 
ATOM     11  C   LIG    1       -5.090   7.104   6.417  0.00  0.00    +0.110 A 
ATOM     12  C   LIG    1       -4.427   6.576   5.327  0.00  0.00    -0.030 A 
BRANCH  12  13
ATOM     13  N   LIG    1       -4.683   7.114   3.972  0.00  0.00    +0.030 N 
ATOM     14  O   LIG    1       -4.172   6.587   3.000  0.00  0.00    -0.090 OA
ATOM     15  O   LIG    1       -5.405   8.085   3.829  0.00  0.00    -0.200 OA
ENDBRANCH  12  13
ENDBRANCH   4   7
BRANCH   1  17
ATOM     16  N   LIG    1       -0.240   1.509   1.458  0.00  0.00    -0.620 N 
ATOM     17  C   LIG    1       -0.371   2.825   1.716  0.00  0.00    +0.520 C 
ATOM     18  O   LIG    1        0.010   3.643   0.906  0.00  0.00    -0.520 OA
ATOM     19  C   LIG    1       -0.792   0.521   2.388  0.00  0.00    +0.270 C 
BRANCH  16  20
ATOM     20  C   LIG    1        0.456   1.066   0.247  0.00  0.00    +0.340 C 
BRANCH  20  27
ATOM     21  C   LIG    1        1.403   0.483  -2.420  0.00  0.00    +0.090 C 
ATOM     22  C   LIG    1       -0.059   0.761  -2.183  0.00  0.00    -0.080 A 
ATOM     23  C   LIG    1       -0.947   0.733  -3.242  0.00  0.00    +0.000 A 
ATOM     24  C   LIG    1       -2.288   0.993  -3.026  0.00  0.00    +0.000 A 
ATOM     25  C   LIG    1       -2.740   1.277  -1.751  0.00  0.00    +0.000 A 
ATOM     26  C   LIG    1       -1.852   1.301  -0.692  0.00  0.00    +0.020 A 
ATOM     27  C   LIG    1       -0.512   1.040  -0.907  0.00  0.00    -0.100 A 
ENDBRANCH  20  27
ENDBRANCH  16  20
ENDBRANCH   1  17
TORSDOF 5
