REMARK  Name = ZINCAx00000008Ec.0
REMARK                            x       y       z     vdW  Elec       q    Type
REMARK                         _______ _______ _______ _____ _____    ______ ____
ROOT
ATOM      1  O   LIG    1        2.266  -3.731  -5.894  0.00  0.00    -0.360 OA
ENDROOT
BRANCH   1   2
ATOM      2  C   LIG    1        1.540  -3.642  -4.763  0.00  0.00    +0.520 C 
ATOM      3  O   LIG    1        1.198  -4.652  -4.181  0.00  0.00    -0.480 OA
BRANCH   2   4
ATOM      4  C   LIG    1        1.158  -2.318  -4.232  0.00  0.00    -0.140 A 
ATOM      5  C   LIG    1        1.550  -1.156  -4.900  0.00  0.00    +0.160 A 
ATOM      6  C   LIG    1        1.190   0.078  -4.399  0.00  0.00    +0.020 A 
ATOM      7  C   LIG    1        0.438   0.165  -3.239  0.00  0.00    +0.080 A 
ATOM      8  C   LIG    1        0.052  -0.985  -2.569  0.00  0.00    -0.690 A 
ATOM      9 CL   LIG    1       -0.017   1.721  -2.619  0.00  0.00    -0.020 Cl
ATOM     10  C   LIG    1        0.405  -2.224  -3.060  0.00  0.00    +0.230 A 
BRANCH   8  11
ATOM     11  S   LIG    1       -0.899  -0.863  -1.091  0.00  0.00    +2.690 S 
ATOM     12  O   LIG    1       -1.930   0.079  -1.353  0.00  0.00    -0.930 OA
ATOM     13  O   LIG    1       -1.153  -2.195  -0.666  0.00  0.00    -0.940 OA
BRANCH  11  14
ATOM     14  N   LIG    1        0.075  -0.182   0.063  0.00  0.00    -0.990 NA
ATOM     15  C   LIG    1        0.007   1.258   0.357  0.00  0.00    +0.270 C 
ATOM     16  C   LIG    1        1.430   1.828   0.316  0.00  0.00    +0.220 C 
ATOM     17  O   LIG    1        2.275   1.046   1.163  0.00  0.00    -0.370 OA
ATOM     18  C   LIG    1        2.406  -0.320   0.760  0.00  0.00    +0.210 C 
ATOM     19  C   LIG    1        1.033  -0.999   0.824  0.00  0.00    +0.280 C 
ENDBRANCH  11  14
ENDBRANCH   8  11
ENDBRANCH   2   4
ENDBRANCH   1   2
BRANCH   1  20
ATOM     20  C   LIG    1        2.605  -5.064  -6.358  0.00  0.00    +0.350 C 
BRANCH  20  24
ATOM     21  C   LIG    1        4.504  -4.133  -9.369  0.00  0.00    -0.040 A 
ATOM     22  C   LIG    1        4.604  -5.490  -9.460  0.00  0.00    -0.010 A 
ATOM     23  C   LIG    1        3.912  -6.031  -8.353  0.00  0.00    -0.200 A 
ATOM     24  C   LIG    1        3.413  -4.965  -7.626  0.00  0.00    +0.120 A 
ATOM     25  C   LIG    1        5.318  -6.266 -10.537  0.00  0.00    +0.140 C 
ATOM     26  N   LIG    1        3.767  -3.828  -8.244  0.00  0.00    -0.500 N 
ATOM     27  H   LIG    1        3.542  -2.933  -7.946  0.00  0.00    +0.430 HD
BRANCH  21  28
ATOM     28  C   LIG    1        5.076  -3.164 -10.310  0.00  0.00    +0.540 C 
ATOM     29  O   LIG    1        5.706  -3.553 -11.274  0.00  0.00    -0.490 OA
BRANCH  28  30
ATOM     30  O   LIG    1        4.904  -1.843 -10.105  0.00  0.00    -0.360 OA
BRANCH  30  32
ATOM     31  C   LIG    1        5.199   0.505 -10.680  0.00  0.00    +0.070 C 
ATOM     32  C   LIG    1        5.498  -0.942 -11.076  0.00  0.00    +0.210 C 
ENDBRANCH  30  32
ENDBRANCH  28  30
ENDBRANCH  21  28
BRANCH  23  33
ATOM     33  C   LIG    1        3.751  -7.460  -8.034  0.00  0.00    +0.540 C 
ATOM     34  O   LIG    1        2.799  -8.076  -8.469  0.00  0.00    -0.490 OA
BRANCH  33  35
ATOM     35  O   LIG    1        4.661  -8.083  -7.258  0.00  0.00    -0.350 OA
BRANCH  35  36
ATOM     36  C   LIG    1        4.439  -9.492  -6.985  0.00  0.00    +0.200 C 
ATOM     37  C   LIG    1        5.565 -10.022  -6.096  0.00  0.00    +0.070 C 
ENDBRANCH  35  36
ENDBRANCH  33  35
ENDBRANCH  23  33
ENDBRANCH  20  24
ENDBRANCH   1  20
TORSDOF 12
