REMARK  Name = ZINCvU0000000BSz.0
REMARK                            x       y       z     vdW  Elec       q    Type
REMARK                         _______ _______ _______ _____ _____    ______ ____
ROOT
ATOM      1  C   LIG    1        3.651  -1.835   0.259  0.00  0.00    +0.540 C 
ATOM      2  N   LIG    1        3.650  -0.507   0.032  0.00  0.00    -0.650 N 
ATOM      3  H   LIG    1        4.482  -0.045  -0.152  0.00  0.00    +0.420 HD
ATOM      4  O   LIG    1        2.602  -2.434   0.364  0.00  0.00    -0.510 OA
ENDROOT
BRANCH   2   5
ATOM      5  C   LIG    1        2.445   0.208   0.063  0.00  0.00    +0.120 A 
ATOM      6  C   LIG    1        1.252  -0.426  -0.254  0.00  0.00    +0.060 A 
ATOM      7  C   LIG    1        0.065   0.281  -0.224  0.00  0.00    +0.000 A 
ATOM      8  C   LIG    1        0.062   1.619   0.123  0.00  0.00    +0.030 A 
ATOM      9  C   LIG    1        1.246   2.258   0.440  0.00  0.00    -0.040 A 
ATOM     10  C   LIG    1        2.441   1.557   0.412  0.00  0.00    +0.100 A 
BRANCH  10  11
ATOM     11  O   LIG    1        3.607   2.183   0.724  0.00  0.00    -0.260 OA
BRANCH  11  12
ATOM     12  C   LIG    1        3.541   3.460   1.183  0.00  0.00    +0.080 A 
ATOM     13  C   LIG    1        3.840   4.519   0.338  0.00  0.00    +0.010 A 
ATOM     14  C   LIG    1        3.769   5.817   0.807  0.00  0.00    +0.020 A 
ATOM     15  C   LIG    1        3.409   6.061   2.119  0.00  0.00    +0.010 A 
ATOM     16  C   LIG    1        3.116   5.007   2.965  0.00  0.00    +0.020 A 
ATOM     17  C   LIG    1        3.181   3.708   2.501  0.00  0.00    +0.000 A 
ENDBRANCH  11  12
ENDBRANCH  10  11
ENDBRANCH   2   5
BRANCH   1  18
ATOM     18  C   LIG    1        4.957  -2.577   0.381  0.00  0.00    +0.110 C 
BRANCH  18  19
ATOM     19  S   LIG    1        4.629  -4.332   0.681  0.00  0.00    +0.090 S 
BRANCH  19  21
ATOM     20  N   LIG    1        6.655  -6.236   0.999  0.00  0.00    -0.450 N 
ATOM     21  C   LIG    1        6.280  -4.939   0.779  0.00  0.00    +0.140 A 
ATOM     22  N   LIG    1        7.379  -4.233   0.650  0.00  0.00    -0.290 NA
ATOM     23  N   LIG    1        8.409  -4.991   0.780  0.00  0.00    -0.270 NA
ATOM     24  C   LIG    1        8.030  -6.229   0.993  0.00  0.00    +0.270 A 
BRANCH  24  25
ATOM     25  C   LIG    1        8.916  -7.398   1.188  0.00  0.00    -0.140 A 
ATOM     26  C   LIG    1       10.046  -7.697   0.493  0.00  0.00    +0.060 A 
ATOM     27  O   LIG    1       10.553  -8.839   0.980  0.00  0.00    -0.170 OA
ATOM     28  C   LIG    1        9.792  -9.309   1.980  0.00  0.00    +0.190 A 
ATOM     29  C   LIG    1       10.630  -6.883  -0.633  0.00  0.00    +0.180 C 
ATOM     30  C   LIG    1        8.760  -8.472   2.177  0.00  0.00    -0.050 A 
ENDBRANCH  24  25
BRANCH  20  32
ATOM     31  C   LIG    1        5.562  -8.107  -0.136  0.00  0.00    +0.050 C 
ATOM     32  C   LIG    1        5.776  -7.390   1.199  0.00  0.00    +0.300 C 
ENDBRANCH  20  32
ENDBRANCH  19  21
ENDBRANCH  18  19
ENDBRANCH   1  18
TORSDOF 8
