REMARK  Name = ZINCpe00000VVGYf.0
REMARK                            x       y       z     vdW  Elec       q    Type
REMARK                         _______ _______ _______ _____ _____    ______ ____
ROOT
ATOM      1  C   LIG    1        7.492   2.711   0.073  0.00  0.00    +0.210 C 
ENDROOT
BRANCH   1   5
ATOM      2  C   LIG    1        3.387   1.668   0.659  0.00  0.00    +0.060 C 
ATOM      3  C   LIG    1        4.123   2.469   1.737  0.00  0.00    +0.030 C 
ATOM      4  C   LIG    1        5.632   2.284   1.562  0.00  0.00    +0.170 C 
ATOM      5  N   LIG    1        6.032   2.745   0.227  0.00  0.00    -0.520 NA
ATOM      6  C   LIG    1        5.374   1.959  -0.825  0.00  0.00    +0.170 C 
ATOM      7  C   LIG    1        3.857   2.135  -0.722  0.00  0.00    +0.050 C 
BRANCH   2  10
ATOM      8  N   LIG    1       -0.235   1.549   1.065  0.00  0.00    -0.370 N 
ATOM      9  C   LIG    1        0.969   0.942   1.016  0.00  0.00    +0.220 A 
ATOM     10  C   LIG    1        1.903   1.895   0.789  0.00  0.00    -0.230 A 
ATOM     11  C   LIG    1        1.247   3.126   0.696  0.00  0.00    +0.240 A 
ATOM     12  N   LIG    1       -0.035   2.921   0.861  0.00  0.00    -0.290 NA
BRANCH   8  14
ATOM     13  C   LIG    1       -2.230   1.548   2.480  0.00  0.00    +0.040 C 
ATOM     14  C   LIG    1       -1.524   0.891   1.292  0.00  0.00    +0.300 C 
ENDBRANCH   8  14
ENDBRANCH   2  10
ENDBRANCH   1   5
BRANCH   1  15
ATOM     15  C   LIG    1        7.881   3.429  -1.194  0.00  0.00    +0.510 C 
ATOM     16  N   LIG    1        9.164   3.421  -1.606  0.00  0.00    -0.730 N 
ATOM     17  H   LIG    1        9.837   2.954  -1.087  0.00  0.00    +0.400 HD
ATOM     18  O   LIG    1        7.039   4.014  -1.842  0.00  0.00    -0.500 OA
BRANCH  16  19
ATOM     19  C   LIG    1        9.542   4.119  -2.837  0.00  0.00    +0.260 C 
ATOM     20  C   LIG    1       10.922   3.643  -3.296  0.00  0.00    +0.040 C 
ATOM     21  C   LIG    1       11.811   3.341  -2.102  0.00  0.00    +0.010 C 
ATOM     22  C   LIG    1       12.179   4.567  -1.286  0.00  0.00    +0.000 C 
ATOM     23  C   LIG    1       10.946   5.150  -0.592  0.00  0.00    +0.270 C 
ATOM     24  N   LIG    1       10.277   6.076  -1.520  0.00  0.00    -0.720 N 
ATOM     25  H   LIG    1       10.320   7.032  -1.361  0.00  0.00    +0.400 HD
ATOM     26  C   LIG    1        9.611   5.609  -2.577  0.00  0.00    +0.510 C 
ATOM     27  O   LIG    1        9.058   6.381  -3.332  0.00  0.00    -0.540 OA
ENDBRANCH  16  19
ENDBRANCH   1  15
TORSDOF 5
