REMARK  Name = ZINCrg000000rXLo.0
REMARK                            x       y       z     vdW  Elec       q    Type
REMARK                         _______ _______ _______ _____ _____    ______ ____
ROOT
ATOM      1  C   LIG    1       -4.228   2.654  -1.914  0.00  0.00    +0.590 C 
ATOM      2  N   LIG    1       -3.204   2.556  -1.043  0.00  0.00    -0.600 N 
ATOM      3  C   LIG    1       -3.287   1.646   0.108  0.00  0.00    +0.290 C 
ATOM      4  C   LIG    1       -3.030   2.451   1.389  0.00  0.00    +0.270 C 
ATOM      5  N   LIG    1       -1.811   3.250   1.204  0.00  0.00    -0.610 N 
ATOM      6  C   LIG    1       -1.731   4.164   0.055  0.00  0.00    +0.270 C 
ATOM      7  C   LIG    1       -0.787   3.152   2.074  0.00  0.00    +0.570 C 
ATOM      8  O   LIG    1       -0.822   2.322   2.962  0.00  0.00    -0.530 OA
ATOM      9  C   LIG    1       -1.985   3.355  -1.228  0.00  0.00    +0.290 C 
ATOM     10  O   LIG    1       -4.124   3.363  -2.897  0.00  0.00    -0.550 OA
ENDROOT
BRANCH   1  15
ATOM     11  C   LIG    1       -9.135  -0.198  -1.011  0.00  0.00    +0.140 C 
ATOM     12  C   LIG    1       -7.824   0.510  -1.234  0.00  0.00    +0.160 A 
ATOM     13  C   LIG    1       -6.672  -0.154  -1.007  0.00  0.00    -0.110 A 
ATOM     14  C   LIG    1       -5.436   0.505  -1.221  0.00  0.00    +0.400 A 
ATOM     15  C   LIG    1       -5.473   1.904  -1.675  0.00  0.00    -0.320 A 
ATOM     16  C   LIG    1       -6.705   2.493  -1.877  0.00  0.00    +0.380 A 
ATOM     17  O   LIG    1       -4.375  -0.067  -1.030  0.00  0.00    -0.500 OA
ATOM     18  N   LIG    1       -7.834   1.798  -1.657  0.00  0.00    -0.570 N 
ATOM     19  H   LIG    1       -8.687   2.235  -1.807  0.00  0.00    +0.420 HD
ENDBRANCH   1  15
BRANCH   7  20
ATOM     20  C   LIG    1        0.380   4.047   1.947  0.00  0.00    -0.120 A 
ATOM     21  C   LIG    1        1.670   3.547   2.137  0.00  0.00    +0.100 A 
ATOM     22  C   LIG    1        2.758   4.383   2.013  0.00  0.00    +0.050 A 
ATOM     23  C   LIG    1        2.577   5.726   1.708  0.00  0.00    +0.060 A 
ATOM     24  O   LIG    1        3.472   6.740   1.539  0.00  0.00    -0.300 OA
ATOM     25  C   LIG    1        2.706   7.954   1.652  0.00  0.00    +0.440 C 
ATOM     26  O   LIG    1        1.383   7.564   1.236  0.00  0.00    -0.300 OA
ATOM     27  C   LIG    1        1.289   6.232   1.522  0.00  0.00    +0.030 A 
ATOM     28  C   LIG    1        0.196   5.398   1.640  0.00  0.00    +0.070 A 
ENDBRANCH   7  20
TORSDOF 2
