REMARK  Name = ZINCpe00000gM57s.0
REMARK                            x       y       z     vdW  Elec       q    Type
REMARK                         _______ _______ _______ _____ _____    ______ ____
ROOT
ATOM      1  O   LIG    1        0.002  -0.004   0.002  0.00  0.00    -0.340 OA
ENDROOT
BRANCH   1   2
ATOM      2  C   LIG    1       -0.016   1.338   0.009  0.00  0.00    +0.460 C 
ATOM      3  O   LIG    1       -1.071   1.928   0.018  0.00  0.00    -0.490 OA
BRANCH   2   4
ATOM      4  C   LIG    1        1.279   2.109   0.001  0.00  0.00    +0.210 C 
BRANCH   4   5
ATOM      5  C   LIG    1        0.983   3.587   0.012  0.00  0.00    -0.170 A 
ATOM      6  C   LIG    1        0.914   4.395  -1.058  0.00  0.00    +0.250 A 
ATOM      7  N   LIG    1        0.622   5.671  -0.660  0.00  0.00    -0.590 N 
ATOM      8  H   LIG    1        0.518   6.431  -1.255  0.00  0.00    +0.420 HD
ATOM      9  C   LIG    1        0.502   5.719   0.711  0.00  0.00    +0.100 A 
ATOM     10  C   LIG    1        0.225   6.740   1.613  0.00  0.00    -0.010 A 
ATOM     11  C   LIG    1        0.172   6.465   2.963  0.00  0.00    +0.030 A 
ATOM     12  C   LIG    1        0.391   5.178   3.432  0.00  0.00    -0.020 A 
ATOM     13  C   LIG    1        0.664   4.159   2.563  0.00  0.00    +0.050 A 
ATOM     14  C   LIG    1        0.723   4.415   1.192  0.00  0.00    -0.090 A 
ENDBRANCH   4   5
ENDBRANCH   2   4
ENDBRANCH   1   2
BRANCH   1  15
ATOM     15  C   LIG    1       -1.282  -0.681   0.011  0.00  0.00    +0.250 C 
BRANCH  15  18
ATOM     16  C   LIG    1       -3.484  -2.466   0.022  0.00  0.00    +0.290 C 
ATOM     17  N   LIG    1       -2.122  -3.007   0.006  0.00  0.00    -0.600 N 
ATOM     18  C   LIG    1       -1.065  -2.172   0.001  0.00  0.00    +0.520 C 
ATOM     19  O   LIG    1        0.062  -2.620  -0.013  0.00  0.00    -0.510 OA
BRANCH  17  20
ATOM     20  C   LIG    1       -1.911  -4.457  -0.004  0.00  0.00    +0.270 C 
ATOM     21  C   LIG    1       -2.538  -5.090   1.251  0.00  0.00    +0.060 C 
ATOM     22  C   LIG    1       -2.605  -6.617   1.054  0.00  0.00    -0.310 C 
ATOM     23  S   LIG    1       -2.727  -6.859  -0.755  0.00  0.00    +2.400 S 
ATOM     24  O   LIG    1       -4.018  -7.359  -1.077  0.00  0.00    -0.930 OA
ATOM     25  O   LIG    1       -1.568  -7.536  -1.220  0.00  0.00    -0.930 OA
ATOM     26  C   LIG    1       -2.627  -5.090  -1.225  0.00  0.00    -0.320 C 
ENDBRANCH  17  20
ENDBRANCH  15  18
ENDBRANCH   1  15
TORSDOF 6
