REMARK  Name = ZINCpe000000UaZr.0
REMARK                            x       y       z     vdW  Elec       q    Type
REMARK                         _______ _______ _______ _____ _____    ______ ____
ROOT
ATOM      1  C   LIG    1        1.205  -0.980   0.420  0.00  0.00    +0.510 C 
ATOM      2  N   LIG    1        1.062  -2.319   0.467  0.00  0.00    -0.640 N 
ATOM      3  H   LIG    1        0.183  -2.717   0.371  0.00  0.00    +0.430 HD
ATOM      4  O   LIG    1        2.313  -0.485   0.455  0.00  0.00    -0.490 OA
ENDROOT
BRANCH   1  11
ATOM      5  C   LIG    1       -1.018   2.126   0.177  0.00  0.00    +0.200 C 
ATOM      6  C   LIG    1       -1.106   3.109   1.355  0.00  0.00    +0.220 C 
ATOM      7  O   LIG    1        0.163   3.744   1.532  0.00  0.00    -0.370 OA
ATOM      8  C   LIG    1        1.223   2.848   1.874  0.00  0.00    +0.140 C 
ATOM      9  C   LIG    1        1.429   1.851   0.728  0.00  0.00    +0.270 C 
ATOM     10  N   LIG    1        0.131   1.236   0.408  0.00  0.00    -0.580 N 
ATOM     11  C   LIG    1       -0.000  -0.103   0.323  0.00  0.00    +0.510 C 
ATOM     12  O   LIG    1       -1.099  -0.596   0.169  0.00  0.00    -0.500 OA
BRANCH   5  14
ATOM     13  C   LIG    1       -3.490   2.226  -0.167  0.00  0.00    +0.010 C 
ATOM     14  C   LIG    1       -2.302   1.299   0.096  0.00  0.00    +0.040 C 
ENDBRANCH   5  14
BRANCH   8  15
ATOM     15  C   LIG    1        2.511   3.641   2.099  0.00  0.00    +0.050 C 
ATOM     16  C   LIG    1        2.345   4.546   3.321  0.00  0.00    +0.020 C 
ENDBRANCH   8  15
ENDBRANCH   1  11
BRANCH   2  17
ATOM     17  C   LIG    1        2.182  -3.135   0.654  0.00  0.00    +0.140 A 
ATOM     18  C   LIG    1        3.413  -2.783   0.105  0.00  0.00    +0.070 A 
ATOM     19  C   LIG    1        4.494  -3.622   0.322  0.00  0.00    +0.100 A 
ATOM     20  C   LIG    1        4.315  -4.775   1.062  0.00  0.00    -0.450 A 
ATOM     21  N   LIG    1        3.135  -5.083   1.565  0.00  0.00    -0.370 NA
ATOM     22  C   LIG    1        2.082  -4.311   1.386  0.00  0.00    +0.240 A 
BRANCH  20  23
ATOM     23  S   LIG    1        5.684  -5.851   1.337  0.00  0.00    +2.510 S 
ATOM     24  O   LIG    1        5.364  -6.521   2.549  0.00  0.00    -0.910 OA
ATOM     25  O   LIG    1        6.820  -5.003   1.247  0.00  0.00    -0.930 OA
ATOM     26  C   LIG    1        5.639  -7.007  -0.060  0.00  0.00    -0.240 C 
ENDBRANCH  20  23
ENDBRANCH   2  17
TORSDOF 5
