REMARK  Name = ZINCvU0000000EEW.0
REMARK                            x       y       z     vdW  Elec       q    Type
REMARK                         _______ _______ _______ _____ _____    ______ ____
ROOT
ATOM      1  C   LIG    1        0.414  -4.199   0.647  0.00  0.00    +0.220 A 
ATOM      2  N   LIG    1        1.357  -4.839  -0.035  0.00  0.00    -0.290 NA
ATOM      3  N   LIG    1        2.267  -4.203  -0.686  0.00  0.00    -0.160 NA
ATOM      4  C   LIG    1        2.287  -2.875  -0.694  0.00  0.00    +0.060 A 
ATOM      5  C   LIG    1        1.296  -2.174   0.023  0.00  0.00    +0.230 A 
ATOM      6  N   LIG    1        0.378  -2.873   0.687  0.00  0.00    -0.450 NA
ENDROOT
BRANCH   5   7
ATOM      7  C   LIG    1        1.280  -0.693   0.042  0.00  0.00    -0.080 A 
ATOM      8  C   LIG    1        0.067  -0.005   0.066  0.00  0.00    +0.070 A 
ATOM      9  C   LIG    1        0.059   1.374   0.085  0.00  0.00    +0.000 A 
ATOM     10  C   LIG    1        1.251   2.076   0.078  0.00  0.00    +0.040 A 
ATOM     11  C   LIG    1        2.458   1.400   0.054  0.00  0.00    +0.000 A 
ATOM     12  C   LIG    1        2.479   0.020   0.036  0.00  0.00    +0.070 A 
ENDBRANCH   5   7
BRANCH   4  13
ATOM     13  C   LIG    1        3.334  -2.142  -1.443  0.00  0.00    -0.060 A 
ATOM     14  C   LIG    1        3.029  -0.937  -2.075  0.00  0.00    +0.050 A 
ATOM     15  C   LIG    1        4.010  -0.256  -2.766  0.00  0.00    +0.010 A 
ATOM     16  C   LIG    1        5.291  -0.772  -2.843  0.00  0.00    +0.030 A 
ATOM     17  C   LIG    1        5.598  -1.970  -2.223  0.00  0.00    +0.000 A 
ATOM     18  C   LIG    1        4.627  -2.657  -1.524  0.00  0.00    +0.060 A 
ENDBRANCH   4  13
BRANCH   1  19
ATOM     19  S   LIG    1       -0.805  -5.125   1.519  0.00  0.00    +0.120 S 
BRANCH  19  21
ATOM     20  C   LIG    1        1.110  -7.060   1.742  0.00  0.00    +0.100 C 
ATOM     21  C   LIG    1       -0.266  -6.806   1.122  0.00  0.00    +0.010 C 
BRANCH  21  22
ATOM     22  C   LIG    1       -1.257  -7.796   1.678  0.00  0.00    +0.540 C 
ATOM     23  N   LIG    1       -1.304  -9.050   1.186  0.00  0.00    -0.570 N 
ATOM     24  C   LIG    1       -0.476  -9.418   0.035  0.00  0.00    +0.300 C 
ATOM     25  O   LIG    1       -2.012  -7.465   2.567  0.00  0.00    -0.500 OA
BRANCH  23  26
ATOM     26  C   LIG    1       -2.145 -10.001   1.776  0.00  0.00    +0.130 A 
ATOM     27  C   LIG    1       -1.603 -11.110   2.413  0.00  0.00    +0.010 A 
ATOM     28  C   LIG    1       -2.435 -12.044   2.997  0.00  0.00    +0.020 A 
ATOM     29  C   LIG    1       -3.807 -11.882   2.939  0.00  0.00    +0.010 A 
ATOM     30  C   LIG    1       -4.351 -10.782   2.301  0.00  0.00    +0.020 A 
ATOM     31  C   LIG    1       -3.523  -9.842   1.719  0.00  0.00    +0.020 A 
ENDBRANCH  23  26
ENDBRANCH  21  22
ENDBRANCH  19  21
ENDBRANCH   1  19
TORSDOF 6
