REMARK  Name = ZINCrD00000lcR1V.0
REMARK                            x       y       z     vdW  Elec       q    Type
REMARK                         _______ _______ _______ _____ _____    ______ ____
ROOT
ATOM      1  O   LIG    1        0.002  -0.004   0.013  0.00  0.00    -0.510 OA
ATOM      2  C   LIG    1       -0.014   1.209   0.011  0.00  0.00    +0.520 C 
ATOM      3  N   LIG    1        1.143   1.898   0.001  0.00  0.00    -0.670 N 
ATOM      4  H   LIG    1        1.131   2.866  -0.068  0.00  0.00    +0.420 HD
ENDROOT
BRANCH   3   5
ATOM      5  C   LIG    1        2.365   1.218   0.092  0.00  0.00    +0.170 A 
ATOM      6  C   LIG    1        2.513  -0.025  -0.508  0.00  0.00    +0.060 A 
ATOM      7  C   LIG    1        3.717  -0.698  -0.420  0.00  0.00    +0.090 A 
ATOM      8  C   LIG    1        4.780  -0.133   0.266  0.00  0.00    +0.010 A 
ATOM      9  O   LIG    1        6.049  -0.582   0.495  0.00  0.00    -0.280 OA
ATOM     10  C   LIG    1        6.548   0.214   1.587  0.00  0.00    +0.570 C 
ATOM     11  O   LIG    1        5.812   1.446   1.475  0.00  0.00    -0.290 OA
ATOM     12  F   LIG    1        7.920   0.442   1.442  0.00  0.00    -0.110 F 
ATOM     13  F   LIG    1        6.281  -0.409   2.811  0.00  0.00    -0.150 F 
ATOM     14  C   LIG    1        4.634   1.115   0.869  0.00  0.00    +0.050 A 
ATOM     15  C   LIG    1        3.429   1.790   0.776  0.00  0.00    +0.040 A 
ENDBRANCH   3   5
BRANCH   2  16
ATOM     16  C   LIG    1       -1.330   1.945   0.012  0.00  0.00    +0.000 C 
ATOM     17  C   LIG    1       -1.424   2.820   1.265  0.00  0.00    +0.060 C 
ATOM     18  C   LIG    1       -2.786   3.518   1.292  0.00  0.00    +0.210 C 
ATOM     19  N   LIG    1       -3.854   2.509   1.296  0.00  0.00    -0.470 N 
ATOM     20  C   LIG    1       -3.812   1.687   0.080  0.00  0.00    +0.220 C 
ATOM     21  C   LIG    1       -2.481   0.935   0.017  0.00  0.00    +0.080 C 
BRANCH  19  22
ATOM     22  C   LIG    1       -5.102   3.105   1.452  0.00  0.00    +0.260 A 
ATOM     23  C   LIG    1       -5.351   3.930   2.549  0.00  0.00    +0.040 A 
ATOM     24  C   LIG    1       -6.610   4.499   2.659  0.00  0.00    +0.080 A 
ATOM     25  C   LIG    1       -7.544   4.213   1.672  0.00  0.00    +0.090 A 
ATOM     26  N   LIG    1       -7.221   3.421   0.668  0.00  0.00    -0.200 NA
ATOM     27 CL   LIG    1       -9.137   4.898   1.759  0.00  0.00    -0.000 Cl
ATOM     28  N   LIG    1       -6.056   2.895   0.557  0.00  0.00    -0.260 NA
ENDBRANCH  19  22
ENDBRANCH   2  16
TORSDOF 3
