REMARK  Name = ZINCpe00000ys8NT.0
REMARK                            x       y       z     vdW  Elec       q    Type
REMARK                         _______ _______ _______ _____ _____    ______ ____
ROOT
ATOM      1  C   LIG    1       -0.828   1.650   3.752  0.00  0.00    +0.330 C 
ATOM      2  C   LIG    1        0.036   1.024   4.867  0.00  0.00    +0.080 C 
ATOM      3  C   LIG    1        0.728  -0.162   4.145  0.00  0.00    +0.170 C 
ATOM      4  C   LIG    1        0.951   0.420   2.729  0.00  0.00    +0.260 C 
ATOM      5  N   LIG    1       -0.242   1.246   2.466  0.00  0.00    -0.610 N 
ATOM      6  C   LIG    1       -0.718   1.572   1.248  0.00  0.00    +0.540 C 
ATOM      7  O   LIG    1       -1.714   2.256   1.150  0.00  0.00    -0.520 OA
ENDROOT
BRANCH   1  14
ATOM      8  N   LIG    1       -1.762   3.914   4.508  0.00  0.00    -0.540 N 
ATOM      9  C   LIG    1       -1.402   5.210   4.410  0.00  0.00    +0.650 A 
ATOM     10  N   LIG    1       -0.247   5.256   3.715  0.00  0.00    -0.550 N 
ATOM     11  H   LIG    1        0.252   6.054   3.482  0.00  0.00    +0.460 HD
ATOM     12  N   LIG    1        0.098   3.937   3.391  0.00  0.00    -0.260 NA
ATOM     13  O   LIG    1       -2.011   6.163   4.862  0.00  0.00    -0.550 OA
ATOM     14  C   LIG    1       -0.811   3.152   3.873  0.00  0.00    +0.270 A 
BRANCH   8  16
ATOM     15  C   LIG    1       -2.637   3.120   6.649  0.00  0.00    +0.040 C 
ATOM     16  C   LIG    1       -2.959   3.405   5.181  0.00  0.00    +0.310 C 
ENDBRANCH   8  16
ENDBRANCH   1  14
BRANCH   3  17
ATOM     17  O   LIG    1        1.971  -0.487   4.770  0.00  0.00    -0.370 OA
ATOM     18  C   LIG    1        2.331  -1.866   4.665  0.00  0.00    +0.220 C 
ENDBRANCH   3  17
BRANCH   6  19
ATOM     19  C   LIG    1       -0.013   1.086   0.008  0.00  0.00    +0.130 C 
BRANCH  19  20
ATOM     20  C   LIG    1       -0.742   1.585  -1.213  0.00  0.00    -0.130 A 
ATOM     21  C   LIG    1       -1.754   0.830  -1.784  0.00  0.00    +0.070 A 
ATOM     22  C   LIG    1       -2.401   1.331  -2.903  0.00  0.00    -0.030 A 
ATOM     23  C   LIG    1       -2.010   2.554  -3.415  0.00  0.00    +0.130 A 
ATOM     24  N   LIG    1       -1.039   3.243  -2.849  0.00  0.00    -0.480 NA
ATOM     25  C   LIG    1       -2.702   3.106  -4.635  0.00  0.00    +0.130 C 
ATOM     26  C   LIG    1       -0.405   2.799  -1.781  0.00  0.00    +0.270 A 
ENDBRANCH  19  20
ENDBRANCH   6  19
TORSDOF 5
