REMARK  Name = ZINCpe00000MJLwq.0
REMARK                            x       y       z     vdW  Elec       q    Type
REMARK                         _______ _______ _______ _____ _____    ______ ____
ROOT
ATOM      1  S   LIG    1       -0.126  -4.034   1.252  0.00  0.00    +2.720 S 
ATOM      2  O   LIG    1       -1.467  -4.021   1.721  0.00  0.00    -0.910 OA
ATOM      3  O   LIG    1        1.001  -3.985   2.117  0.00  0.00    -0.950 OA
ENDROOT
BRANCH   1  12
ATOM      4  C   LIG    1        1.164   3.545   0.002  0.00  0.00    +0.330 C 
ATOM      5  N   LIG    1        1.153   2.080   0.002  0.00  0.00    -0.530 N 
ATOM      6  C   LIG    1        2.314   1.395  -0.006  0.00  0.00    +0.590 A 
ATOM      7  N   LIG    1        2.330   0.091  -0.017  0.00  0.00    -0.540 NA
ATOM      8  C   LIG    1        1.201  -0.634  -0.022  0.00  0.00    +0.160 A 
ATOM      9  C   LIG    1        0.002  -0.004   0.002  0.00  0.00    -0.230 A 
ATOM     10  C   LIG    1       -1.314  -0.731   0.033  0.00  0.00    +0.120 C 
ATOM     11  C   LIG    1       -1.153  -2.170  -0.456  0.00  0.00    +0.310 C 
ATOM     12  N   LIG    1        0.021  -2.747   0.220  0.00  0.00    -1.000 NA
ATOM     13  C   LIG    1        1.326  -2.136  -0.057  0.00  0.00    +0.390 C 
ATOM     14  C   LIG    1       -0.017   1.411   0.010  0.00  0.00    +0.520 A 
ATOM     15  O   LIG    1       -1.076   2.017   0.018  0.00  0.00    -0.530 OA
ENDBRANCH   1  12
BRANCH   1  16
ATOM     16  C   LIG    1        0.051  -5.498   0.288  0.00  0.00    -0.640 A 
ATOM     17  C   LIG    1       -0.943  -6.180  -0.324  0.00  0.00    +0.220 A 
ATOM     18  N   LIG    1       -0.413  -7.231  -0.956  0.00  0.00    -0.480 NA
ATOM     19  C   LIG    1        0.899  -7.238  -0.763  0.00  0.00    +0.280 A 
ATOM     20  C   LIG    1        1.917  -8.109  -1.199  0.00  0.00    +0.070 A 
ATOM     21  C   LIG    1        3.207  -7.854  -0.850  0.00  0.00    +0.090 A 
ATOM     22  C   LIG    1        3.504  -6.737  -0.051  0.00  0.00    +0.040 A 
ATOM     23  C   LIG    1        2.517  -5.915   0.363  0.00  0.00    +0.240 A 
ATOM     24 CL   LIG    1       -2.628  -5.762  -0.294  0.00  0.00    +0.040 Cl
ATOM     25  N   LIG    1        1.220  -6.154   0.013  0.00  0.00    -0.300 N 
ENDBRANCH   1  16
TORSDOF 2
