REMARK  Name = ZINCrD000000BxV7.0
REMARK                            x       y       z     vdW  Elec       q    Type
REMARK                         _______ _______ _______ _____ _____    ______ ____
ROOT
ATOM      1  O   LIG    1        2.272   5.209   0.008  0.00  0.00    -0.500 OA
ATOM      2  C   LIG    1        2.341   3.995   0.001  0.00  0.00    +0.570 C 
ATOM      3  N   LIG    1        3.545   3.389  -0.013  0.00  0.00    -0.720 N 
ATOM      4  H   LIG    1        3.600   2.420  -0.018  0.00  0.00    +0.400 HD
ENDROOT
BRANCH   2   5
ATOM      5  C   LIG    1        1.109   3.187   0.008  0.00  0.00    -0.180 A 
ATOM      6  C   LIG    1        1.173   1.789   0.001  0.00  0.00    +0.120 A 
ATOM      7  C   LIG    1       -0.013   1.076   0.008  0.00  0.00    -0.030 A 
ATOM      8  C   LIG    1       -1.217   1.756   0.017  0.00  0.00    +0.320 A 
ATOM      9  N   LIG    1       -1.258   3.074   0.030  0.00  0.00    -0.480 NA
ATOM     10  C   LIG    1       -0.154   3.806   0.023  0.00  0.00    +0.160 A 
BRANCH  10  11
ATOM     11  S   LIG    1       -0.268   5.564   0.034  0.00  0.00    +0.050 S 
BRANCH  11  12
ATOM     12  C   LIG    1       -2.067   5.763   0.051  0.00  0.00    +0.370 C 
ATOM     13  F   LIG    1       -2.592   5.152   1.195  0.00  0.00    -0.180 F 
ATOM     14  F   LIG    1       -2.613   5.165  -1.089  0.00  0.00    -0.180 F 
ENDBRANCH  11  12
ENDBRANCH  10  11
ENDBRANCH   2   5
BRANCH   3  15
ATOM     15  C   LIG    1        4.770   4.192  -0.020  0.00  0.00    +0.430 C 
BRANCH  15  16
ATOM     16  C   LIG    1        5.969   3.279  -0.035  0.00  0.00    +0.130 A 
ATOM     17  N   LIG    1        6.597   2.810   1.012  0.00  0.00    -0.210 NA
ATOM     18  N   LIG    1        7.576   2.059   0.646  0.00  0.00    -0.270 NA
ATOM     19  C   LIG    1        7.629   2.016  -0.676  0.00  0.00    +0.210 A 
ATOM     20  C   LIG    1        8.480   1.367  -1.591  0.00  0.00    +0.110 A 
ATOM     21  C   LIG    1        8.267   1.527  -2.925  0.00  0.00    +0.100 A 
ATOM     22  C   LIG    1        7.205   2.333  -3.369  0.00  0.00    -0.190 A 
ATOM     23  C   LIG    1        6.397   2.949  -2.481  0.00  0.00    +0.330 A 
ATOM     24  N   LIG    1        6.599   2.798  -1.141  0.00  0.00    -0.390 N 
BRANCH  22  25
ATOM     25  C   LIG    1        6.967   2.511  -4.847  0.00  0.00    +0.520 C 
ATOM     26  F   LIG    1        5.623   2.832  -5.067  0.00  0.00    -0.170 F 
ATOM     27  F   LIG    1        7.279   1.323  -5.516  0.00  0.00    -0.160 F 
ATOM     28  F   LIG    1        7.778   3.544  -5.329  0.00  0.00    -0.170 F 
ENDBRANCH  22  25
ENDBRANCH  15  16
ENDBRANCH   3  15
TORSDOF 6
