REMARK  Name = ZINCpk00000xIkgx.0
REMARK                            x       y       z     vdW  Elec       q    Type
REMARK                         _______ _______ _______ _____ _____    ______ ____
ROOT
ATOM      1  O   LIG    1       -0.717   0.190  -2.147  0.00  0.00    -0.510 OA
ATOM      2  C   LIG    1       -1.798   0.734  -2.230  0.00  0.00    +0.530 C 
ATOM      3  N   LIG    1       -2.598   0.485  -3.286  0.00  0.00    -0.600 N 
ATOM      4  C   LIG    1       -3.913   1.132  -3.397  0.00  0.00    +0.270 C 
ATOM      5  C   LIG    1       -3.981   1.864  -4.748  0.00  0.00    +0.300 C 
ATOM      6  N   LIG    1       -3.557   0.935  -5.806  0.00  0.00    -0.990 NA
ATOM      7  C   LIG    1       -2.244   0.284  -5.691  0.00  0.00    +0.300 C 
ATOM      8  C   LIG    1       -2.174  -0.444  -4.343  0.00  0.00    +0.280 C 
ENDROOT
BRANCH   6   9
ATOM      9  S   LIG    1       -4.540   0.629  -7.103  0.00  0.00    +2.690 S 
ATOM     10  O   LIG    1       -3.692   0.188  -8.154  0.00  0.00    -0.930 OA
ATOM     11  O   LIG    1       -5.407   1.749  -7.222  0.00  0.00    -0.940 OA
BRANCH   9  12
ATOM     12  C   LIG    1       -5.557  -0.744  -6.674  0.00  0.00    -0.670 A 
ATOM     13  C   LIG    1       -6.923  -0.580  -6.548  0.00  0.00    +0.150 A 
ATOM     14  C   LIG    1       -7.722  -1.658  -6.216  0.00  0.00    +0.030 A 
ATOM     15  C   LIG    1       -7.154  -2.899  -5.999  0.00  0.00    +0.110 A 
ATOM     16  C   LIG    1       -5.786  -3.064  -6.119  0.00  0.00    -0.050 A 
ATOM     17 CL   LIG    1       -5.072  -4.623  -5.847  0.00  0.00    -0.030 Cl
ATOM     18  C   LIG    1       -4.987  -1.986  -6.457  0.00  0.00    +0.050 A 
ATOM     19 CL   LIG    1       -3.269  -2.191  -6.607  0.00  0.00    -0.020 Cl
ENDBRANCH   9  12
ENDBRANCH   6   9
BRANCH   2  20
ATOM     20  C   LIG    1       -2.246   1.688  -1.154  0.00  0.00    +0.000 C 
ATOM     21  C   LIG    1       -2.564   1.102   0.223  0.00  0.00    +0.160 C 
ATOM     22  C   LIG    1       -1.293   1.929   0.019  0.00  0.00    +0.120 C 
BRANCH  22  23
ATOM     23  N   LIG    1       -0.014   1.214   0.009  0.00  0.00    +0.010 N 
ATOM     24  O   LIG    1        1.032   1.837   0.002  0.00  0.00    -0.180 OA
ATOM     25  O   LIG    1        0.002  -0.004   0.002  0.00  0.00    -0.110 OA
ENDBRANCH  22  23
ENDBRANCH   2  20
TORSDOF 4
