REMARK  Name = ZINCpe00000MJIhc.0
REMARK                            x       y       z     vdW  Elec       q    Type
REMARK                         _______ _______ _______ _____ _____    ______ ____
ROOT
ATOM      1  C   LIG    1       -2.546   1.376   0.021  0.00  0.00    +0.200 C 
ATOM      2  C   LIG    1       -2.984   1.087   1.459  0.00  0.00    +0.170 C 
ATOM      3  O   LIG    1       -4.362   0.703   1.464  0.00  0.00    -0.370 OA
ATOM      4  C   LIG    1       -5.237   1.692   0.914  0.00  0.00    +0.230 C 
ATOM      5  C   LIG    1       -4.821   1.987  -0.530  0.00  0.00    +0.170 C 
ATOM      6  N   LIG    1       -3.415   2.414  -0.552  0.00  0.00    -0.540 NA
ATOM      7  C   LIG    1       -2.992   2.763  -1.915  0.00  0.00    +0.200 C 
ENDROOT
BRANCH   1  13
ATOM      8  C   LIG    1       -1.581   4.322   0.039  0.00  0.00    +0.370 C 
ATOM      9  N   LIG    1       -0.711   3.144   0.025  0.00  0.00    -0.350 N 
ATOM     10  N   LIG    1        0.690   3.154   0.012  0.00  0.00    -0.290 NA
ATOM     11  C   LIG    1        1.107   1.914   0.002  0.00  0.00    +0.240 A 
ATOM     12  C   LIG    1       -0.013   1.076   0.008  0.00  0.00    -0.120 A 
ATOM     13  C   LIG    1       -1.117   1.857   0.017  0.00  0.00    +0.080 A 
ENDBRANCH   1  13
BRANCH   2  14
ATOM     14  C   LIG    1       -2.134  -0.048   2.033  0.00  0.00    +0.300 C 
BRANCH  14  15
ATOM     15  N   LIG    1       -2.554  -0.324   3.409  0.00  0.00    -0.700 N 
ATOM     16  H   LIG    1       -3.273   0.190   3.809  0.00  0.00    +0.410 HD
ATOM     17  C   LIG    1       -1.942  -1.292   4.120  0.00  0.00    +0.570 C 
ATOM     18  O   LIG    1       -1.040  -1.936   3.619  0.00  0.00    -0.510 OA
BRANCH  17  19
ATOM     19  C   LIG    1       -2.365  -1.571   5.509  0.00  0.00    +0.030 A 
ATOM     20  N   LIG    1       -3.347  -0.860   6.053  0.00  0.00    -0.400 NA
ATOM     21  C   LIG    1       -3.758  -1.079   7.281  0.00  0.00    +0.260 A 
ATOM     22  C   LIG    1       -3.169  -2.061   8.068  0.00  0.00    +0.110 A 
ATOM     23  C   LIG    1       -2.136  -2.824   7.542  0.00  0.00    +0.010 A 
ATOM     24  F   LIG    1       -3.598  -2.272   9.331  0.00  0.00    -0.110 F 
ATOM     25  C   LIG    1       -1.726  -2.575   6.240  0.00  0.00    +0.150 A 
ATOM     26  F   LIG    1       -0.725  -3.293   5.687  0.00  0.00    -0.090 F 
ENDBRANCH  17  19
ENDBRANCH  14  15
ENDBRANCH   2  14
TORSDOF 4
