REMARK  Name = ZINCpe00000gMTvA.2
REMARK                            x       y       z     vdW  Elec       q    Type
REMARK                         _______ _______ _______ _____ _____    ______ ____
ROOT
ATOM      1  N   LIG    1       -2.066   4.464   1.477  0.00  0.00    -0.730 N 
ATOM      2  H   LIG    1       -2.824   4.064   1.932  0.00  0.00    +0.400 HD
ATOM      3  C   LIG    1       -1.264   3.702   0.707  0.00  0.00    +0.510 C 
ATOM      4  O   LIG    1       -0.316   4.202   0.138  0.00  0.00    -0.520 OA
ENDROOT
BRANCH   1   5
ATOM      5  C   LIG    1       -1.793   5.896   1.627  0.00  0.00    +0.290 C 
BRANCH   5   6
ATOM      6  C   LIG    1       -2.844   6.521   2.546  0.00  0.00    +0.200 C 
BRANCH   6   7
ATOM      7  O   LIG    1       -2.717   5.973   3.859  0.00  0.00    -0.310 OA
BRANCH   7  13
ATOM      8  C   LIG    1       -4.323   5.866   8.466  0.00  0.00    +0.090 C 
ATOM      9  C   LIG    1       -4.396   6.397   7.058  0.00  0.00    -0.050 A 
ATOM     10  C   LIG    1       -5.345   7.347   6.727  0.00  0.00    -0.040 A 
ATOM     11  C   LIG    1       -5.413   7.837   5.436  0.00  0.00    +0.050 A 
ATOM     12  C   LIG    1       -4.535   7.379   4.473  0.00  0.00    -0.090 A 
ATOM     13  C   LIG    1       -3.582   6.425   4.804  0.00  0.00    +0.130 A 
ATOM     14  C   LIG    1       -3.519   5.931   6.098  0.00  0.00    -0.020 A 
ENDBRANCH   7  13
ENDBRANCH   6   7
ENDBRANCH   5   6
ENDBRANCH   1   5
BRANCH   3  15
ATOM     15  C   LIG    1       -1.544   2.230   0.552  0.00  0.00    +0.210 C 
BRANCH  15  16
ATOM     16  N   LIG    1       -0.624   1.657  -0.439  0.00  0.00    -0.520 NA
ATOM     17  C   LIG    1       -0.700   0.190  -0.443  0.00  0.00    +0.190 C 
ATOM     18  C   LIG    1        0.328  -0.369  -1.429  0.00  0.00    +0.180 C 
ATOM     19  N   LIG    1        0.062   0.172  -2.769  0.00  0.00    -0.530 NA
ATOM     20  C   LIG    1        0.138   1.640  -2.766  0.00  0.00    +0.130 C 
ATOM     21  C   LIG    1       -0.160   2.170  -4.169  0.00  0.00    +0.030 C 
ATOM     22  C   LIG    1       -0.890   2.199  -1.779  0.00  0.00    +0.190 C 
BRANCH  19  23
ATOM     23  C   LIG    1        0.983  -0.401  -3.760  0.00  0.00    +0.140 C 
BRANCH  23  24
ATOM     24  C   LIG    1        0.949  -1.927  -3.666  0.00  0.00    +0.200 C 
ATOM     25  C   LIG    1        1.916  -2.523  -4.690  0.00  0.00    +0.010 C 
BRANCH  24  26
ATOM     26  O   LIG    1       -0.376  -2.392  -3.935  0.00  0.00    -0.550 OA
ATOM     27  H   LIG    1       -0.706  -2.153  -4.812  0.00  0.00    +0.370 HD
ENDBRANCH  24  26
ENDBRANCH  23  24
ENDBRANCH  19  23
ENDBRANCH  15  16
ENDBRANCH   3  15
TORSDOF 9
