REMARK  Name = ZINCpe00000MJJ94.0
REMARK                            x       y       z     vdW  Elec       q    Type
REMARK                         _______ _______ _______ _____ _____    ______ ____
ROOT
ATOM      1  C   LIG    1        0.242   1.684   0.239  0.00  0.00    +0.160 C 
ATOM      2  C   LIG    1        0.563   0.226   0.628  0.00  0.00    +0.010 C 
ATOM      3  C   LIG    1        0.468   0.248   2.176  0.00  0.00    +0.180 C 
ATOM      4  C   LIG    1       -0.691   1.250   2.404  0.00  0.00    +0.170 C 
ATOM      5  F   LIG    1        0.142  -1.018   2.676  0.00  0.00    -0.200 F 
ATOM      6  N   LIG    1       -0.512   2.279   1.358  0.00  0.00    -0.510 NA
ENDROOT
BRANCH   1   7
ATOM      7  C   LIG    1       -0.606   1.713  -1.034  0.00  0.00    +0.270 C 
BRANCH   7   9
ATOM      8  C   LIG    1        1.005   2.102  -2.821  0.00  0.00    +0.510 C 
ATOM      9  N   LIG    1        0.197   1.244  -2.166  0.00  0.00    -0.620 N 
ATOM     10  C   LIG    1        0.122  -0.157  -2.587  0.00  0.00    +0.280 C 
ATOM     11  O   LIG    1        1.133   3.240  -2.421  0.00  0.00    -0.520 OA
BRANCH   8  12
ATOM     12  C   LIG    1        1.750   1.647  -4.049  0.00  0.00    +0.140 C 
BRANCH  12  16
ATOM     13  C   LIG    1        3.406   5.758  -6.389  0.00  0.00    +0.360 C 
ATOM     14  N   LIG    1        3.356   4.552  -5.559  0.00  0.00    -0.370 N 
ATOM     15  C   LIG    1        2.276   3.765  -5.368  0.00  0.00    +0.240 A 
ATOM     16  C   LIG    1        2.641   2.760  -4.537  0.00  0.00    -0.230 A 
ATOM     17  C   LIG    1        3.991   2.935  -4.217  0.00  0.00    +0.240 A 
ATOM     18  N   LIG    1        4.421   4.008  -4.829  0.00  0.00    -0.300 NA
ENDBRANCH  12  16
ENDBRANCH   8  12
ENDBRANCH   7   9
ENDBRANCH   1   7
BRANCH   6  19
ATOM     19  C   LIG    1       -1.809   2.797   0.901  0.00  0.00    +0.250 C 
BRANCH  19  20
ATOM     20  C   LIG    1       -2.587   3.314   2.084  0.00  0.00    -0.190 A 
ATOM     21  C   LIG    1       -3.516   2.512   2.728  0.00  0.00    +0.310 A 
ATOM     22  N   LIG    1       -4.177   2.999   3.766  0.00  0.00    -0.520 NA
ATOM     23  C   LIG    1       -3.968   4.232   4.181  0.00  0.00    +0.490 A 
ATOM     24  N   LIG    1       -3.097   5.025   3.590  0.00  0.00    -0.520 NA
ATOM     25  C   LIG    1       -2.396   4.605   2.550  0.00  0.00    +0.340 A 
ENDBRANCH  19  20
ENDBRANCH   6  19
TORSDOF 6
