REMARK  Name = ZINCrH000004tgqG.2
REMARK                            x       y       z     vdW  Elec       q    Type
REMARK                         _______ _______ _______ _____ _____    ______ ____
ROOT
ATOM      1  N   LIG    1       -1.182   1.093   4.517  0.00  0.00    -0.570 N 
ATOM      2  C   LIG    1       -1.123   2.194   3.742  0.00  0.00    +0.520 C 
ATOM      3  O   LIG    1       -2.041   2.987   3.745  0.00  0.00    -0.500 OA
ENDROOT
BRANCH   1   4
ATOM      4  C   LIG    1       -2.303   0.864   5.325  0.00  0.00    +0.100 A 
ATOM      5  C   LIG    1       -3.383   0.147   4.829  0.00  0.00    +0.060 A 
ATOM      6  C   LIG    1       -4.487  -0.078   5.628  0.00  0.00    +0.020 A 
ATOM      7  C   LIG    1       -4.518   0.410   6.921  0.00  0.00    +0.060 A 
ATOM      8  C   LIG    1       -3.445   1.126   7.420  0.00  0.00    -0.010 A 
ATOM      9  C   LIG    1       -2.334   1.349   6.628  0.00  0.00    +0.110 A 
ATOM     10  F   LIG    1       -1.283   2.043   7.117  0.00  0.00    -0.130 F 
ENDBRANCH   1   4
BRANCH   1  11
ATOM     11  C   LIG    1       -0.073   0.135   4.514  0.00  0.00    +0.310 C 
BRANCH  11  12
ATOM     12  C   LIG    1        0.941   0.526   5.590  0.00  0.00    +0.180 C 
BRANCH  12  14
ATOM     13  N   LIG    1        2.915  -1.179   5.585  0.00  0.00    -0.420 NA
ATOM     14  C   LIG    1        2.055  -0.436   5.587  0.00  0.00    +0.200 C 
ENDBRANCH  12  14
ENDBRANCH  11  12
ENDBRANCH   1  11
BRANCH   2  15
ATOM     15  C   LIG    1        0.083   2.440   2.873  0.00  0.00    +0.200 C 
BRANCH  15  16
ATOM     16  N   LIG    1       -0.096   3.697   2.133  0.00  0.00    -0.490 NA
ATOM     17  C   LIG    1       -0.431   4.819   3.051  0.00  0.00    +0.180 C 
ATOM     18  C   LIG    1       -0.058   6.078   2.228  0.00  0.00    +0.030 C 
ATOM     19  C   LIG    1        1.217   5.634   1.475  0.00  0.00    +0.020 C 
ATOM     20  C   LIG    1        1.157   4.095   1.455  0.00  0.00    +0.120 C 
BRANCH  20  21
ATOM     21  C   LIG    1        1.151   3.592   0.010  0.00  0.00    +0.090 C 
BRANCH  21  22
ATOM     22  C   LIG    1        1.171   2.086   0.002  0.00  0.00    -0.080 A 
ATOM     23  C   LIG    1       -0.017   1.378   0.010  0.00  0.00    +0.020 A 
ATOM     24  C   LIG    1        0.002  -0.004   0.002  0.00  0.00    -0.010 A 
ATOM     25  C   LIG    1        1.208  -0.679  -0.013  0.00  0.00    +0.000 A 
ATOM     26  C   LIG    1        2.396   0.029  -0.021  0.00  0.00    +0.000 A 
ATOM     27  C   LIG    1        2.377   1.411  -0.015  0.00  0.00    +0.000 A 
ENDBRANCH  21  22
ENDBRANCH  20  21
ENDBRANCH  15  16
ENDBRANCH   2  15
TORSDOF 8
