REMARK  Name = ZINCrH000004rvBv.0
REMARK                            x       y       z     vdW  Elec       q    Type
REMARK                         _______ _______ _______ _____ _____    ______ ____
ROOT
ATOM      1  C   LIG    1       -2.861   4.072   1.467  0.00  0.00    +0.260 C 
ENDROOT
BRANCH   1   2
ATOM      2  N   LIG    1       -4.226   4.516   1.762  0.00  0.00    -1.110 NA
ATOM      3  H   LIG    1       -4.683   5.117   1.154  0.00  0.00    +0.420 HD
BRANCH   2   4
ATOM      4  S   LIG    1       -4.989   3.991   3.135  0.00  0.00    +2.680 S 
ATOM      5  O   LIG    1       -4.822   2.580   3.172  0.00  0.00    -0.950 OA
ATOM      6  O   LIG    1       -6.261   4.624   3.154  0.00  0.00    -0.930 OA
BRANCH   4  11
ATOM      7  C   LIG    1       -1.919   6.193   7.841  0.00  0.00    +0.110 C 
ATOM      8  C   LIG    1       -2.686   5.643   6.665  0.00  0.00    -0.020 A 
ATOM      9  C   LIG    1       -2.743   4.279   6.454  0.00  0.00    +0.010 A 
ATOM     10  C   LIG    1       -3.451   3.774   5.379  0.00  0.00    +0.140 A 
ATOM     11  C   LIG    1       -4.092   4.634   4.509  0.00  0.00    -0.670 A 
ATOM     12  C   LIG    1       -4.035   6.000   4.719  0.00  0.00    -0.000 A 
ATOM     13 BR   LIG    1       -4.919   7.178   3.533  0.00  0.00    -0.010 Br
ATOM     14  C   LIG    1       -3.332   6.505   5.798  0.00  0.00    +0.030 A 
ENDBRANCH   4  11
ENDBRANCH   2   4
ENDBRANCH   1   2
BRANCH   1  15
ATOM     15  C   LIG    1       -2.519   4.406   0.014  0.00  0.00    +0.230 C 
BRANCH  15  16
ATOM     16  C   LIG    1       -1.200   3.776  -0.349  0.00  0.00    -0.070 A 
ATOM     17  C   LIG    1       -0.047   4.539  -0.354  0.00  0.00    +0.050 A 
ATOM     18  C   LIG    1        1.164   3.960  -0.686  0.00  0.00    +0.010 A 
ATOM     19  C   LIG    1        1.223   2.619  -1.014  0.00  0.00    +0.020 A 
ATOM     20  C   LIG    1        0.071   1.855  -1.009  0.00  0.00    +0.020 A 
ATOM     21  C   LIG    1       -1.142   2.434  -0.683  0.00  0.00    -0.030 A 
ATOM     22 CL   LIG    1       -2.590   1.476  -0.684  0.00  0.00    -0.060 Cl
ENDBRANCH  15  16
BRANCH  15  23
ATOM     23  N   LIG    1       -2.426   5.863  -0.145  0.00  0.00    -0.520 NA
ATOM     24  C   LIG    1       -1.956   6.500   1.094  0.00  0.00    +0.150 C 
ATOM     25  C   LIG    1       -1.817   8.007   0.866  0.00  0.00    +0.230 C 
ATOM     26  O   LIG    1       -3.072   8.536   0.428  0.00  0.00    -0.380 OA
ATOM     27  C   LIG    1       -3.559   7.939  -0.777  0.00  0.00    +0.220 C 
ATOM     28  C   LIG    1       -3.716   6.431  -0.566  0.00  0.00    +0.150 C 
ENDBRANCH  15  23
ENDBRANCH   1  15
TORSDOF 6
