REMARK  Name = ZINCrH00000tj1fT.0
REMARK                            x       y       z     vdW  Elec       q    Type
REMARK                         _______ _______ _______ _____ _____    ______ ____
ROOT
ATOM      1  C   LIG    1        3.142  -2.684  -0.044  0.00  0.00    +0.290 C 
ENDROOT
BRANCH   1   3
ATOM      2  C   LIG    1        4.589  -4.575  -0.562  0.00  0.00    +0.570 C 
ATOM      3  N   LIG    1        4.456  -3.331  -0.061  0.00  0.00    -0.720 N 
ATOM      4  H   LIG    1        5.231  -2.864   0.289  0.00  0.00    +0.410 HD
ATOM      5  O   LIG    1        3.617  -5.160  -1.001  0.00  0.00    -0.510 OA
BRANCH   2  11
ATOM      6  C   LIG    1        6.053  -6.522  -1.095  0.00  0.00    +0.190 A 
ATOM      7  C   LIG    1        7.303  -7.123  -1.111  0.00  0.00    -0.080 A 
ATOM      8  C   LIG    1        8.400  -6.451  -0.610  0.00  0.00    +0.080 A 
ATOM      9  C   LIG    1        8.264  -5.173  -0.094  0.00  0.00    -0.040 A 
ATOM     10  C   LIG    1        7.030  -4.558  -0.076  0.00  0.00    +0.080 A 
ATOM     11  C   LIG    1        5.912  -5.227  -0.579  0.00  0.00    -0.180 A 
BRANCH   6  12
ATOM     12  O   LIG    1        4.973  -7.184  -1.581  0.00  0.00    -0.280 OA
BRANCH  12  14
ATOM     13  C   LIG    1        3.870  -9.083  -2.589  0.00  0.00    +0.070 C 
ATOM     14  C   LIG    1        5.194  -8.501  -2.090  0.00  0.00    +0.170 C 
ENDBRANCH  12  14
ENDBRANCH   6  12
ENDBRANCH   2  11
ENDBRANCH   1   3
BRANCH   1  15
ATOM     15  C   LIG    1        2.378  -3.112   1.210  0.00  0.00    -0.010 C 
ATOM     16  C   LIG    1        3.167  -2.698   2.454  0.00  0.00    +0.030 C 
ATOM     17  C   LIG    1        2.198  -4.632   1.203  0.00  0.00    +0.040 C 
ENDBRANCH   1  15
BRANCH   1  18
ATOM     18  C   LIG    1        3.319  -1.187  -0.037  0.00  0.00    +0.470 C 
ATOM     19  O   LIG    1        4.429  -0.710  -0.045  0.00  0.00    -0.500 OA
BRANCH  18  20
ATOM     20  O   LIG    1        2.244  -0.384  -0.022  0.00  0.00    -0.340 OA
BRANCH  20  21
ATOM     21  C   LIG    1        2.490   1.047  -0.017  0.00  0.00    +0.290 C 
BRANCH  21  22
ATOM     22  C   LIG    1        1.175   1.783   0.000  0.00  0.00    -0.130 A 
ATOM     23  C   LIG    1       -0.013   1.076   0.008  0.00  0.00    +0.070 A 
ATOM     24  C   LIG    1       -1.219   1.750   0.017  0.00  0.00    +0.000 A 
ATOM     25  C   LIG    1       -1.240   3.133   0.031  0.00  0.00    +0.050 A 
ATOM     26  C   LIG    1       -0.053   3.842   0.023  0.00  0.00    -0.010 A 
ATOM     27  C   LIG    1        1.156   3.167   0.008  0.00  0.00    +0.110 A 
ATOM     28  F   LIG    1        2.316   3.859   0.001  0.00  0.00    -0.140 F 
ENDBRANCH  21  22
ENDBRANCH  20  21
ENDBRANCH  18  20
ENDBRANCH   1  18
TORSDOF 9
