REMARK  Name = ZINCtV00000L6k0g.0
REMARK                            x       y       z     vdW  Elec       q    Type
REMARK                         _______ _______ _______ _____ _____    ______ ____
ROOT
ATOM      1  C   LIG    1       -3.241   2.975   1.068  0.00  0.00    +0.110 C 
ATOM      2  C   LIG    1       -1.959   3.759   1.180  0.00  0.00    -0.020 A 
ATOM      3  C   LIG    1       -1.972   5.122   0.971  0.00  0.00    +0.020 A 
ATOM      4  C   LIG    1       -0.791   5.847   1.068  0.00  0.00    +0.150 A 
ATOM      5  C   LIG    1        0.405   5.177   1.383  0.00  0.00    -0.150 A 
ATOM      6  C   LIG    1        1.647   5.950   1.483  0.00  0.00    +0.010 A 
ATOM      7  C   LIG    1        1.588   7.288   1.266  0.00  0.00    -0.060 A 
ATOM      8  C   LIG    1        0.353   7.895   0.953  0.00  0.00    +0.510 A 
ATOM      9  O   LIG    1        0.314   9.097   0.761  0.00  0.00    -0.450 OA
ATOM     10  C   LIG    1        0.395   3.795   1.596  0.00  0.00    +0.090 A 
ATOM     11  O   LIG    1       -0.780   7.181   0.863  0.00  0.00    -0.270 OA
ATOM     12  C   LIG    1       -0.778   3.102   1.496  0.00  0.00    -0.090 A 
ENDROOT
BRANCH  12  13
ATOM     13  C   LIG    1       -0.789   1.613   1.726  0.00  0.00    +0.030 C 
ATOM     14  C   LIG    1       -0.163   1.302   3.087  0.00  0.00    +0.030 C 
ATOM     15  C   LIG    1        0.016   0.921   0.624  0.00  0.00    +0.030 C 
ENDBRANCH  12  13
BRANCH   6  16
ATOM     16  C   LIG    1        2.952   5.276   1.819  0.00  0.00    +0.320 C 
BRANCH  16  17
ATOM     17  O   LIG    1        3.997   6.251   1.852  0.00  0.00    -0.290 OA
BRANCH  17  18
ATOM     18  C   LIG    1        5.242   5.808   2.141  0.00  0.00    +0.420 A 
ATOM     19  N   LIG    1        5.467   4.526   2.386  0.00  0.00    -0.580 NA
ATOM     20  C   LIG    1        6.682   4.078   2.665  0.00  0.00    +0.560 A 
ATOM     21  N   LIG    1        7.733   4.859   2.729  0.00  0.00    -0.510 NA
ATOM     22  C   LIG    1        7.615   6.176   2.504  0.00  0.00    +0.190 A 
ATOM     23  C   LIG    1        8.717   7.042   2.564  0.00  0.00    -0.020 A 
ATOM     24  C   LIG    1        8.541   8.373   2.327  0.00  0.00    +0.110 A 
ATOM     25  C   LIG    1        7.282   8.888   2.025  0.00  0.00    -0.040 A 
ATOM     26  C   LIG    1        6.189   8.073   1.958  0.00  0.00    +0.120 A 
ATOM     27 CL   LIG    1        7.101  10.589   1.730  0.00  0.00    -0.040 Cl
ATOM     28 CL   LIG    1       10.295   6.422   2.938  0.00  0.00    -0.020 Cl
ATOM     29  C   LIG    1        6.336   6.702   2.196  0.00  0.00    -0.150 A 
ENDBRANCH  17  18
ENDBRANCH  16  17
ENDBRANCH   6  16
TORSDOF 4
