REMARK  Name = ZINCrH000004joL4.0
REMARK                            x       y       z     vdW  Elec       q    Type
REMARK                         _______ _______ _______ _____ _____    ______ ____
ROOT
ATOM      1  C   LIG    1        3.399   6.280   0.010  0.00  0.00    +0.320 C 
ATOM      2  C   LIG    1        2.825   7.713  -0.009  0.00  0.00    +0.060 C 
ATOM      3  C   LIG    1        1.397   7.509  -0.582  0.00  0.00    +0.040 C 
ATOM      4  C   LIG    1        1.011   6.137   0.026  0.00  0.00    +0.290 C 
ATOM      5  N   LIG    1        2.259   5.353   0.010  0.00  0.00    -0.580 N 
ATOM      6  C   LIG    1        2.341   4.007   0.002  0.00  0.00    +0.590 C 
ATOM      7  O   LIG    1        3.428   3.465  -0.011  0.00  0.00    -0.520 OA
ENDROOT
BRANCH   1  16
ATOM      8  N   LIG    1        5.587   6.023   1.283  0.00  0.00    -0.480 N 
ATOM      9  C   LIG    1        5.960   5.825   2.597  0.00  0.00    +0.050 A 
ATOM     10  C   LIG    1        7.180   5.693   3.246  0.00  0.00    +0.010 A 
ATOM     11  C   LIG    1        7.211   5.493   4.610  0.00  0.00    +0.030 A 
ATOM     12  C   LIG    1        6.031   5.423   5.336  0.00  0.00    +0.000 A 
ATOM     13  C   LIG    1        4.821   5.551   4.715  0.00  0.00    +0.070 A 
ATOM     14  C   LIG    1        4.766   5.754   3.334  0.00  0.00    +0.050 A 
ATOM     15  N   LIG    1        3.747   5.914   2.451  0.00  0.00    -0.480 NA
ATOM     16  C   LIG    1        4.228   6.074   1.252  0.00  0.00    +0.280 A 
BRANCH   8  18
ATOM     17  C   LIG    1        6.850   7.629  -0.061  0.00  0.00    +0.030 C 
ATOM     18  C   LIG    1        6.487   6.156   0.135  0.00  0.00    +0.280 C 
ENDBRANCH   8  18
ENDBRANCH   1  16
BRANCH   6  19
ATOM     19  C   LIG    1        1.103   3.188   0.009  0.00  0.00    +0.140 A 
ATOM     20  C   LIG    1        1.175   1.795   0.001  0.00  0.00    -0.020 A 
ATOM     21  C   LIG    1       -0.013   1.076   0.008  0.00  0.00    +0.340 A 
ATOM     22  N   LIG    1       -1.161   1.730   0.017  0.00  0.00    -0.500 NA
ATOM     23  C   LIG    1       -1.193   3.048   0.030  0.00  0.00    +0.350 A 
ATOM     24  N   LIG    1       -0.094   3.771   0.023  0.00  0.00    -0.490 NA
BRANCH  23  25
ATOM     25  C   LIG    1       -2.528   3.748   0.047  0.00  0.00    +0.020 C 
ATOM     26  C   LIG    1       -3.774   2.886   0.261  0.00  0.00    +0.060 C 
ATOM     27  C   LIG    1       -3.481   3.480  -1.120  0.00  0.00    +0.060 C 
ENDBRANCH  23  25
ENDBRANCH   6  19
TORSDOF 4
