REMARK  Name = ZINCrH000004joxW.0
REMARK                            x       y       z     vdW  Elec       q    Type
REMARK                         _______ _______ _______ _____ _____    ______ ____
ROOT
ATOM      1  S   LIG    1       -5.287   4.336  -0.074  0.00  0.00    +0.060 S 
ENDROOT
BRANCH   1   3
ATOM      2  N   LIG    1       -7.898   3.401   0.286  0.00  0.00    -0.450 N 
ATOM      3  C   LIG    1       -6.582   3.146   0.026  0.00  0.00    +0.150 A 
ATOM      4  N   LIG    1       -6.460   1.846  -0.130  0.00  0.00    -0.290 NA
ATOM      5  N   LIG    1       -7.604   1.276   0.009  0.00  0.00    -0.270 NA
ATOM      6  C   LIG    1       -8.525   2.176   0.262  0.00  0.00    +0.230 A 
BRANCH   6   7
ATOM      7  C   LIG    1       -9.964   1.921   0.484  0.00  0.00    -0.020 A 
ATOM      8  C   LIG    1      -10.405   0.641   0.823  0.00  0.00    +0.070 A 
ATOM      9  C   LIG    1      -11.749   0.411   1.033  0.00  0.00    +0.010 A 
ATOM     10  C   LIG    1      -12.660   1.444   0.899  0.00  0.00    +0.030 A 
ATOM     11  C   LIG    1      -12.230   2.714   0.559  0.00  0.00    +0.010 A 
ATOM     12  C   LIG    1      -10.889   2.959   0.350  0.00  0.00    +0.010 A 
ENDBRANCH   6   7
BRANCH   2  14
ATOM     13  C   LIG    1       -8.895   5.354  -0.795  0.00  0.00    +0.050 C 
ATOM     14  C   LIG    1       -8.514   4.706   0.537  0.00  0.00    +0.300 C 
ENDBRANCH   2  14
ENDBRANCH   1   3
BRANCH   1  15
ATOM     15  C   LIG    1       -3.886   3.247  -0.430  0.00  0.00    +0.110 C 
BRANCH  15  16
ATOM     16  C   LIG    1       -2.630   4.071  -0.561  0.00  0.00    +0.420 C 
ATOM     17  O   LIG    1       -2.678   5.275  -0.428  0.00  0.00    -0.430 OA
BRANCH  16  18
ATOM     18  C   LIG    1       -1.349   3.415  -0.852  0.00  0.00    -0.170 A 
ATOM     19  C   LIG    1       -1.292   2.025  -1.013  0.00  0.00    +0.090 A 
ATOM     20  C   LIG    1       -0.087   1.414  -1.278  0.00  0.00    +0.020 A 
ATOM     21  C   LIG    1        1.073   2.171  -1.400  0.00  0.00    +0.090 A 
ATOM     22  O   LIG    1        2.249   1.544  -1.664  0.00  0.00    -0.300 OA
ATOM     23  C   LIG    1        3.320   2.362  -2.148  0.00  0.00    +0.230 C 
ATOM     24  C   LIG    1        3.399   3.620  -1.273  0.00  0.00    +0.230 C 
ATOM     25  O   LIG    1        2.149   4.311  -1.369  0.00  0.00    -0.300 OA
ATOM     26  C   LIG    1        1.022   3.556  -1.248  0.00  0.00    +0.040 A 
ATOM     27  C   LIG    1       -0.181   4.177  -0.975  0.00  0.00    +0.100 A 
ENDBRANCH  16  18
ENDBRANCH  15  16
ENDBRANCH   1  15
TORSDOF 6
