REMARK  Name = ZINCqH0000004pd0.0
REMARK                            x       y       z     vdW  Elec       q    Type
REMARK                         _______ _______ _______ _____ _____    ______ ____
ROOT
ATOM      1  N   LIG    1       -1.155   6.638  -0.837  0.00  0.00    -0.720 N 
ATOM      2  H   LIG    1       -1.922   6.072  -1.018  0.00  0.00    +0.400 HD
ATOM      3  C   LIG    1       -1.076   7.864  -1.390  0.00  0.00    +0.560 C 
ATOM      4  O   LIG    1       -0.115   8.573  -1.163  0.00  0.00    -0.520 OA
ENDROOT
BRANCH   3   5
ATOM      5  C   LIG    1       -2.159   8.348  -2.273  0.00  0.00    -0.080 A 
ATOM      6  C   LIG    1       -3.261   7.534  -2.540  0.00  0.00    +0.030 A 
ATOM      7  C   LIG    1       -4.271   7.994  -3.361  0.00  0.00    +0.120 A 
ATOM      8  C   LIG    1       -4.187   9.254  -3.927  0.00  0.00    -0.660 A 
ATOM      9  C   LIG    1       -3.094  10.063  -3.670  0.00  0.00    +0.130 A 
ATOM     10  C   LIG    1       -2.081   9.618  -2.847  0.00  0.00    +0.070 A 
BRANCH   8  11
ATOM     11  S   LIG    1       -5.477   9.830  -4.979  0.00  0.00    +2.700 S 
ATOM     12  O   LIG    1       -5.416  11.249  -4.949  0.00  0.00    -0.950 OA
ATOM     13  O   LIG    1       -6.641   9.095  -4.627  0.00  0.00    -0.950 OA
BRANCH  11  14
ATOM     14  N   LIG    1       -5.089   9.377  -6.524  0.00  0.00    -1.090 NA
ATOM     15  H   LIG    1       -4.899  10.052  -7.194  0.00  0.00    +0.420 HD
BRANCH  14  16
ATOM     16  C   LIG    1       -5.030   7.957  -6.878  0.00  0.00    +0.220 C 
ATOM     17  C   LIG    1       -3.995   7.531  -7.921  0.00  0.00    +0.010 C 
ATOM     18  C   LIG    1       -5.480   7.561  -8.286  0.00  0.00    +0.030 C 
ENDBRANCH  14  16
ENDBRANCH  11  14
ENDBRANCH   8  11
ENDBRANCH   3   5
BRANCH   1  19
ATOM     19  C   LIG    1       -0.082   6.158   0.037  0.00  0.00    +0.290 C 
BRANCH  19  20
ATOM     20  C   LIG    1       -0.061   4.651   0.028  0.00  0.00    -0.080 A 
ATOM     21  C   LIG    1        1.145   3.977   0.013  0.00  0.00    +0.040 A 
ATOM     22  C   LIG    1        1.165   2.595   0.005  0.00  0.00    +0.060 A 
ATOM     23  C   LIG    1       -0.024   1.887   0.012  0.00  0.00    -0.090 A 
ATOM     24  C   LIG    1       -1.231   2.562   0.022  0.00  0.00    +0.060 A 
ATOM     25 BR   LIG    1        0.002  -0.004   0.002  0.00  0.00    -0.040 Br
ATOM     26  C   LIG    1       -1.249   3.944   0.036  0.00  0.00    +0.020 A 
ENDBRANCH  19  20
BRANCH  19  28
ATOM     27  C   LIG    1       -0.222   8.182   1.496  0.00  0.00    +0.020 C 
ATOM     28  C   LIG    1       -0.325   6.656   1.464  0.00  0.00    +0.020 C 
ENDBRANCH  19  28
ENDBRANCH   1  19
TORSDOF 7
