REMARK  Name = ZINCrH000004ls7i.0
REMARK                            x       y       z     vdW  Elec       q    Type
REMARK                         _______ _______ _______ _____ _____    ______ ____
ROOT
ATOM      1  S   LIG    1       -2.538   1.040  -0.959  0.00  0.00    +0.090 S 
ENDROOT
BRANCH   1  10
ATOM      2  N   LIG    1       -5.129   1.891  -1.506  0.00  0.00    -0.470 N 
ATOM      3  C   LIG    1       -5.945   2.974  -1.227  0.00  0.00    +0.060 A 
ATOM      4  C   LIG    1       -7.251   3.303  -1.554  0.00  0.00    +0.010 A 
ATOM      5  C   LIG    1       -7.790   4.496  -1.115  0.00  0.00    +0.030 A 
ATOM      6  C   LIG    1       -7.034   5.368  -0.348  0.00  0.00    +0.010 A 
ATOM      7  C   LIG    1       -5.734   5.058  -0.013  0.00  0.00    +0.060 A 
ATOM      8  C   LIG    1       -5.174   3.855  -0.450  0.00  0.00    +0.060 A 
ATOM      9  N   LIG    1       -3.953   3.281  -0.289  0.00  0.00    -0.490 NA
ATOM     10  C   LIG    1       -3.924   2.125  -0.906  0.00  0.00    +0.250 A 
BRANCH   2  11
ATOM     11  C   LIG    1       -5.491   0.711  -2.296  0.00  0.00    +0.330 C 
BRANCH  11  12
ATOM     12  C   LIG    1       -6.086  -0.356  -1.374  0.00  0.00    +0.170 C 
BRANCH  12  14
ATOM     13  C   LIG    1       -7.007  -2.569  -1.375  0.00  0.00    +0.210 C 
ATOM     14  O   LIG    1       -6.439  -1.507  -2.144  0.00  0.00    -0.390 OA
ENDBRANCH  12  14
ENDBRANCH  11  12
ENDBRANCH   2  11
ENDBRANCH   1  10
BRANCH   1  15
ATOM     15  C   LIG    1       -1.352   1.996   0.019  0.00  0.00    +0.080 C 
ATOM     16  C   LIG    1       -1.856   2.112   1.459  0.00  0.00    +0.100 C 
BRANCH  15  17
ATOM     17  C   LIG    1       -0.016   1.300   0.009  0.00  0.00    +0.470 A 
ATOM     18  N   LIG    1        0.002  -0.004   0.002  0.00  0.00    -0.580 NA
ATOM     19  C   LIG    1        1.157  -0.697  -0.013  0.00  0.00    +0.540 A 
ATOM     20  C   LIG    1        2.421   0.061  -0.021  0.00  0.00    -0.210 A 
ATOM     21  C   LIG    1        3.662  -0.570  -0.036  0.00  0.00    +0.110 A 
ATOM     22  C   LIG    1        4.810   0.192  -0.043  0.00  0.00    -0.010 A 
ATOM     23  C   LIG    1        4.734   1.578  -0.034  0.00  0.00    +0.090 A 
ATOM     24  C   LIG    1        3.512   2.216  -0.019  0.00  0.00    -0.020 A 
ATOM     25  C   LIG    1        2.345   1.466  -0.013  0.00  0.00    +0.180 A 
ATOM     26  O   LIG    1        1.156  -1.916  -0.019  0.00  0.00    -0.470 OA
ATOM     27  N   LIG    1        1.096   2.056   0.003  0.00  0.00    -0.620 N 
ATOM     28  H   LIG    1        1.021   3.023   0.008  0.00  0.00    +0.420 HD
ENDBRANCH  15  17
ENDBRANCH   1  15
TORSDOF 6
