REMARK  Name = ZINCvU00000007Lg.0
REMARK                            x       y       z     vdW  Elec       q    Type
REMARK                         _______ _______ _______ _____ _____    ______ ____
ROOT
ATOM      1  C   LIG    1        0.301   6.744  -2.706  0.00  0.00    +0.320 A 
ATOM      2  N   LIG    1        0.231   5.447  -2.599  0.00  0.00    -0.250 NA
ATOM      3  N   LIG    1       -1.072   5.114  -2.204  0.00  0.00    -0.360 N 
ATOM      4  C   LIG    1       -1.767   6.264  -2.088  0.00  0.00    +0.470 A 
ATOM      5  S   LIG    1       -3.412   6.410  -1.637  0.00  0.00    -0.580 S 
ATOM      6  N   LIG    1       -0.932   7.279  -2.390  0.00  0.00    -0.480 N 
ENDROOT
BRANCH   1  10
ATOM      7  C   LIG    1        3.748   8.956  -3.842  0.00  0.00    +0.160 A 
ATOM      8  C   LIG    1        3.888   7.776  -3.124  0.00  0.00    -0.010 A 
ATOM      9  C   LIG    1        2.772   7.055  -2.754  0.00  0.00    +0.120 A 
ATOM     10  C   LIG    1        1.501   7.514  -3.101  0.00  0.00    -0.080 A 
ATOM     11  C   LIG    1        1.364   8.699  -3.826  0.00  0.00    +0.080 A 
ATOM     12  C   LIG    1        2.484   9.417  -4.188  0.00  0.00    -0.070 A 
BRANCH   7  14
ATOM     13  C   LIG    1        4.633  10.869  -4.941  0.00  0.00    +0.250 C 
ATOM     14  O   LIG    1        4.849   9.663  -4.205  0.00  0.00    -0.310 OA
ENDBRANCH   7  14
ENDBRANCH   1  10
BRANCH   6  15
ATOM     15  C   LIG    1       -1.276   8.703  -2.387  0.00  0.00    +0.250 C 
ATOM     16  C   LIG    1       -1.843   9.088  -1.019  0.00  0.00    +0.030 C 
ATOM     17  C   LIG    1       -2.201  10.575  -1.017  0.00  0.00    +0.020 C 
ATOM     18  C   LIG    1       -3.248  10.850  -2.098  0.00  0.00    +0.020 C 
ATOM     19  C   LIG    1       -2.681  10.464  -3.466  0.00  0.00    +0.020 C 
ATOM     20  C   LIG    1       -2.322   8.977  -3.469  0.00  0.00    +0.020 C 
ENDBRANCH   6  15
BRANCH   3  21
ATOM     21  C   LIG    1       -1.587   3.763  -1.966  0.00  0.00    +0.520 C 
BRANCH  21  22
ATOM     22  N   LIG    1       -1.072   3.261  -0.685  0.00  0.00    -0.540 NA
ATOM     23  C   LIG    1       -1.045   1.790  -0.668  0.00  0.00    +0.200 C 
ATOM     24  C   LIG    1       -0.176   1.334   0.504  0.00  0.00    +0.100 C 
ATOM     25  C   LIG    1       -0.612   2.034   1.766  0.00  0.00    -0.070 A 
ATOM     26  C   LIG    1       -0.204   1.514   2.985  0.00  0.00    +0.000 A 
ATOM     27  C   LIG    1       -0.578   2.127   4.165  0.00  0.00    +0.000 A 
ATOM     28  C   LIG    1       -1.362   3.264   4.130  0.00  0.00    +0.000 A 
ATOM     29  C   LIG    1       -1.766   3.782   2.920  0.00  0.00    +0.010 A 
ATOM     30  C   LIG    1       -1.394   3.167   1.734  0.00  0.00    -0.080 A 
ATOM     31  C   LIG    1       -1.869   3.767   0.436  0.00  0.00    +0.250 C 
ENDBRANCH  21  22
ENDBRANCH   3  21
TORSDOF 5
