REMARK  Name = ZINCpe00001v355F.0
REMARK                            x       y       z     vdW  Elec       q    Type
REMARK                         _______ _______ _______ _____ _____    ______ ____
ROOT
ATOM      1  C   LIG    1       -1.247   2.223   0.017  0.00  0.00    +0.230 C 
ENDROOT
BRANCH   1   2
ATOM      2  C   LIG    1        0.182   1.789   0.220  0.00  0.00    -0.240 A 
ATOM      3  C   LIG    1        0.631   0.513   0.243  0.00  0.00    +0.250 A 
ATOM      4  N   LIG    1        1.965   0.550   0.442  0.00  0.00    -0.370 N 
ATOM      5  N   LIG    1        2.349   1.893   0.545  0.00  0.00    -0.290 NA
ATOM      6  C   LIG    1        1.279   2.635   0.412  0.00  0.00    +0.280 A 
BRANCH   4   7
ATOM      7  C   LIG    1        2.855  -0.610   0.534  0.00  0.00    +0.340 C 
BRANCH   7   8
ATOM      8  C   LIG    1        3.984  -0.469  -0.489  0.00  0.00    +0.180 C 
BRANCH   8   9
ATOM      9  O   LIG    1        4.853  -1.600  -0.399  0.00  0.00    -0.570 OA
ATOM     10  H   LIG    1        5.593  -1.577  -1.020  0.00  0.00    +0.390 HD
ENDBRANCH   8   9
ENDBRANCH   7   8
ENDBRANCH   4   7
ENDBRANCH   1   2
BRANCH   1  13
ATOM     11  N   LIG    1       -1.775   1.744  -2.351  0.00  0.00    -0.730 N 
ATOM     12  H   LIG    1       -1.888   0.812  -2.105  0.00  0.00    +0.400 HD
ATOM     13  C   LIG    1       -1.443   2.653  -1.414  0.00  0.00    +0.530 C 
ATOM     14  O   LIG    1       -1.302   3.818  -1.721  0.00  0.00    -0.510 OA
BRANCH  11  15
ATOM     15  C   LIG    1       -1.966   2.162  -3.742  0.00  0.00    +0.300 C 
BRANCH  15  16
ATOM     16  C   LIG    1       -2.334   0.946  -4.595  0.00  0.00    +0.070 C 
BRANCH  16  18
ATOM     17  C   LIG    1       -2.994  -0.087  -7.156  0.00  0.00    +0.150 C 
ATOM     18  S   LIG    1       -2.570   1.464  -6.317  0.00  0.00    -0.240 S 
ENDBRANCH  16  18
ENDBRANCH  15  16
ENDBRANCH  11  15
ENDBRANCH   1  13
BRANCH   1  19
ATOM     19  N   LIG    1       -1.550   3.347   0.913  0.00  0.00    -0.510 NA
ATOM     20  C   LIG    1       -2.931   3.811   0.728  0.00  0.00    +0.200 C 
BRANCH  19  21
ATOM     21  C   LIG    1       -1.299   2.986   2.314  0.00  0.00    +0.300 C 
BRANCH  21  22
ATOM     22  C   LIG    1       -1.380   4.222   3.174  0.00  0.00    +0.030 A 
ATOM     23  N   LIG    1       -0.425   5.075   3.405  0.00  0.00    -0.340 NA
ATOM     24  O   LIG    1       -0.792   5.967   4.135  0.00  0.00    +0.100 OA
ATOM     25  C   LIG    1       -2.075   5.815   4.492  0.00  0.00    -0.030 A 
ATOM     26  C   LIG    1       -2.876   6.724   5.388  0.00  0.00    +0.180 C 
ATOM     27  C   LIG    1       -2.511   4.686   3.883  0.00  0.00    -0.070 A 
ENDBRANCH  21  22
ENDBRANCH  19  21
ENDBRANCH   1  19
TORSDOF 11
