REMARK  Name = ZINCrD000000Bhrn.0
REMARK                            x       y       z     vdW  Elec       q    Type
REMARK                         _______ _______ _______ _____ _____    ______ ____
ROOT
ATOM      1  C   LIG    1        1.590  -0.006   4.919  0.00  0.00    +0.220 A 
ATOM      2  C   LIG    1        2.001   1.155   4.277  0.00  0.00    +0.010 A 
ATOM      3  C   LIG    1        1.258   1.663   3.230  0.00  0.00    +0.150 A 
ATOM      4  C   LIG    1        0.106   1.018   2.820  0.00  0.00    -0.680 A 
ATOM      5  C   LIG    1       -0.309  -0.135   3.461  0.00  0.00    +0.150 A 
ATOM      6  C   LIG    1        0.432  -0.651   4.506  0.00  0.00    -0.030 A 
ENDROOT
BRANCH   1   9
ATOM      7  O   LIG    1        2.861   1.513   6.699  0.00  0.00    -0.560 OA
ATOM      8  C   LIG    1        2.998   0.310   6.811  0.00  0.00    +0.700 C 
ATOM      9  N   LIG    1        2.341  -0.524   5.981  0.00  0.00    -0.690 N 
ATOM     10  H   LIG    1        2.389  -1.483   6.118  0.00  0.00    +0.410 HD
ATOM     11  N   LIG    1        3.806  -0.190   7.767  0.00  0.00    -0.740 N 
ATOM     12  H   LIG    1        3.915  -1.149   7.857  0.00  0.00    +0.400 HD
BRANCH  11  13
ATOM     13  C   LIG    1        4.520   0.716   8.670  0.00  0.00    +0.280 C 
BRANCH  13  14
ATOM     14  C   LIG    1        5.362  -0.101   9.652  0.00  0.00    +0.020 C 
ATOM     15  C   LIG    1        6.557  -0.765   8.921  0.00  0.00    +0.020 C 
ATOM     16  C   LIG    1        7.578  -0.988  10.065  0.00  0.00    +0.020 C 
ATOM     17  C   LIG    1        7.430   0.264  10.955  0.00  0.00    +0.050 C 
ATOM     18  C   LIG    1        6.024   0.821  10.691  0.00  0.00    -0.120 C 
ATOM     19  C   LIG    1        5.204   1.452  11.811  0.00  0.00    +0.020 C 
ATOM     20  C   LIG    1        5.761   2.323  10.682  0.00  0.00    +0.030 C 
ENDBRANCH  13  14
ENDBRANCH  11  13
ENDBRANCH   1   9
BRANCH   4  21
ATOM     21  S   LIG    1       -0.839   1.669   1.484  0.00  0.00    +2.500 S 
ATOM     22  O   LIG    1       -2.158   1.200   1.726  0.00  0.00    -0.920 OA
ATOM     23  O   LIG    1       -0.543   3.059   1.490  0.00  0.00    -0.940 OA
BRANCH  21  24
ATOM     24  C   LIG    1       -0.142   0.877   0.008  0.00  0.00    -0.320 C 
BRANCH  24  25
ATOM     25  C   LIG    1       -0.888   1.368  -1.234  0.00  0.00    +0.170 C 
ATOM     26  C   LIG    1       -0.356   0.650  -2.500  0.00  0.00    +0.040 C 
ATOM     27  C   LIG    1       -1.584   0.766  -3.443  0.00  0.00    +0.010 C 
ATOM     28  C   LIG    1       -2.766   0.661  -2.457  0.00  0.00    +0.210 C 
ATOM     29  O   LIG    1       -2.277   1.010  -1.156  0.00  0.00    -0.380 OA
ENDBRANCH  24  25
ENDBRANCH  21  24
ENDBRANCH   4  21
TORSDOF 6
