REMARK  Name = ZINCqH00000073S2.0
REMARK                            x       y       z     vdW  Elec       q    Type
REMARK                         _______ _______ _______ _____ _____    ______ ____
ROOT
ATOM      1  C   LIG    1       -0.014   1.212   0.009  0.00  0.00    +0.570 C 
ATOM      2  N   LIG    1        1.143   1.901   0.001  0.00  0.00    -0.710 N 
ATOM      3  H   LIG    1        1.130   2.871   0.007  0.00  0.00    +0.410 HD
ATOM      4  O   LIG    1        0.002  -0.004   0.002  0.00  0.00    -0.530 OA
ENDROOT
BRANCH   1   8
ATOM      5  C   LIG    1       -3.720   3.292   0.037  0.00  0.00    +0.130 A 
ATOM      6  C   LIG    1       -2.527   4.000   0.036  0.00  0.00    -0.040 A 
ATOM      7  C   LIG    1       -1.323   3.329   0.032  0.00  0.00    +0.050 A 
ATOM      8  C   LIG    1       -1.303   1.932   0.019  0.00  0.00    -0.140 A 
ATOM      9  C   LIG    1       -2.504   1.218   0.021  0.00  0.00    +0.040 A 
ATOM     10  C   LIG    1       -3.707   1.897   0.030  0.00  0.00    +0.090 A 
BRANCH   5  12
ATOM     11  C   LIG    1       -4.845   5.386   0.054  0.00  0.00    +0.240 C 
ATOM     12  O   LIG    1       -4.904   3.958   0.047  0.00  0.00    -0.300 OA
ENDBRANCH   5  12
BRANCH  10  13
ATOM     13  O   LIG    1       -4.878   1.206   0.031  0.00  0.00    -0.300 OA
ATOM     14  C   LIG    1       -4.790  -0.220   0.023  0.00  0.00    +0.240 C 
ENDBRANCH  10  13
ENDBRANCH   1   8
BRANCH   2  15
ATOM     15  C   LIG    1        2.422   1.186  -0.015  0.00  0.00    +0.340 C 
BRANCH  15  16
ATOM     16  C   LIG    1        3.483   2.068  -0.621  0.00  0.00    +0.270 A 
ATOM     17  N   LIG    1        3.907   3.185  -0.106  0.00  0.00    -0.470 NA
ATOM     18  C   LIG    1        4.866   3.721  -0.904  0.00  0.00    +0.040 A 
ATOM     19  C   LIG    1        5.643   4.880  -0.832  0.00  0.00    +0.070 A 
ATOM     20  C   LIG    1        6.545   5.157  -1.821  0.00  0.00    +0.000 A 
ATOM     21  C   LIG    1        6.699   4.298  -2.899  0.00  0.00    +0.030 A 
ATOM     22  C   LIG    1        5.943   3.149  -2.991  0.00  0.00    +0.010 A 
ATOM     23  C   LIG    1        5.022   2.851  -1.997  0.00  0.00    +0.050 A 
ATOM     24  N   LIG    1        4.134   1.815  -1.788  0.00  0.00    -0.590 N 
ATOM     25  H   LIG    1        3.998   1.048  -2.367  0.00  0.00    +0.420 HD
ENDBRANCH  15  16
BRANCH  15  26
ATOM     26  C   LIG    1        2.819   0.820   1.417  0.00  0.00    -0.020 C 
ATOM     27  C   LIG    1        1.807  -0.174   1.988  0.00  0.00    +0.030 C 
ATOM     28  C   LIG    1        2.838   2.083   2.280  0.00  0.00    +0.030 C 
ENDBRANCH  15  26
ENDBRANCH   2  15
TORSDOF 6
