REMARK  Name = ZINCpk00000y6uLK.0
REMARK                            x       y       z     vdW  Elec       q    Type
REMARK                         _______ _______ _______ _____ _____    ______ ____
ROOT
ATOM      1  C   LIG    1        3.287  -3.510   0.720  0.00  0.00    -0.100 A 
ATOM      2  C   LIG    1        2.508  -4.222   1.633  0.00  0.00    +0.060 A 
ATOM      3  C   LIG    1        1.321  -3.688   2.092  0.00  0.00    +0.030 A 
ATOM      4  C   LIG    1        0.900  -2.447   1.651  0.00  0.00    +0.070 A 
ATOM      5  C   LIG    1        1.669  -1.730   0.741  0.00  0.00    +0.130 A 
ATOM      6  C   LIG    1        2.859  -2.260   0.270  0.00  0.00    +0.080 A 
ENDROOT
BRANCH   1   8
ATOM      7  O   LIG    1        5.013  -3.719  -0.842  0.00  0.00    -0.480 OA
ATOM      8  C   LIG    1        4.559  -4.079   0.227  0.00  0.00    +0.570 C 
ATOM      9  N   LIG    1        5.216  -4.999   0.961  0.00  0.00    -0.610 N 
ATOM     10  C   LIG    1        4.849  -5.433   2.321  0.00  0.00    +0.230 C 
ATOM     11  C   LIG    1        6.163  -5.969   2.937  0.00  0.00    +0.180 C 
ATOM     12  C   LIG    1        6.830  -6.649   1.712  0.00  0.00    +0.070 C 
ATOM     13  C   LIG    1        6.421  -5.730   0.542  0.00  0.00    +0.230 C 
BRANCH  11  14
ATOM     14  O   LIG    1        6.968  -4.895   3.429  0.00  0.00    -0.550 OA
ATOM     15  H   LIG    1        6.592  -4.440   4.194  0.00  0.00    +0.380 HD
ENDBRANCH  11  14
BRANCH  13  16
ATOM     16  C   LIG    1        6.113  -6.572  -0.698  0.00  0.00    +0.150 C 
BRANCH  16  17
ATOM     17  O   LIG    1        5.832  -5.709  -1.802  0.00  0.00    -0.540 OA
ATOM     18  H   LIG    1        5.628  -6.176  -2.624  0.00  0.00    +0.370 HD
ENDBRANCH  16  17
ENDBRANCH  13  16
ENDBRANCH   1   8
BRANCH   5  19
ATOM     19  N   LIG    1        1.237  -0.473   0.296  0.00  0.00    -0.300 N 
ATOM     20  N   LIG    1       -0.067  -0.140  -0.093  0.00  0.00    -0.250 NA
ATOM     21  C   LIG    1       -0.080   1.121  -0.443  0.00  0.00    +0.270 A 
ATOM     22  C   LIG    1        1.214   1.632  -0.288  0.00  0.00    -0.020 A 
ATOM     23  C   LIG    1        2.004   0.633   0.168  0.00  0.00    -0.020 A 
BRANCH  23  24
ATOM     24  C   LIG    1        3.476   0.734   0.476  0.00  0.00    +0.540 C 
ATOM     25  F   LIG    1        4.213   0.206  -0.590  0.00  0.00    -0.160 F 
ATOM     26  F   LIG    1        3.759   0.012   1.641  0.00  0.00    -0.170 F 
ATOM     27  F   LIG    1        3.822   2.076   0.663  0.00  0.00    -0.160 F 
ENDBRANCH  23  24
ENDBRANCH   5  19
TORSDOF 6
