REMARK  Name = ZINCwl0000000cfz.0
REMARK                            x       y       z     vdW  Elec       q    Type
REMARK                         _______ _______ _______ _____ _____    ______ ____
ROOT
ATOM      1  N   LIG    1        1.244   4.046   1.393  0.00  0.00    -0.720 N 
ATOM      2  H   LIG    1        1.240   3.412   2.127  0.00  0.00    +0.400 HD
ATOM      3  C   LIG    1        1.271   5.369   1.646  0.00  0.00    +0.560 C 
ATOM      4  O   LIG    1        1.276   6.164   0.726  0.00  0.00    -0.510 OA
ENDROOT
BRANCH   3   5
ATOM      5  C   LIG    1        1.293   5.854   3.040  0.00  0.00    -0.140 A 
ATOM      6  C   LIG    1        1.287   4.941   4.098  0.00  0.00    +0.110 A 
ATOM      7  C   LIG    1        1.307   5.396   5.397  0.00  0.00    -0.010 A 
ATOM      8  C   LIG    1        1.335   6.763   5.657  0.00  0.00    +0.190 A 
ATOM      9  C   LIG    1        1.341   7.675   4.604  0.00  0.00    -0.030 A 
ATOM     10  C   LIG    1        1.327   7.226   3.304  0.00  0.00    +0.180 A 
BRANCH   8  11
ATOM     11  N   LIG    1        1.355   7.220   6.970  0.00  0.00    -0.500 N 
ATOM     12  C   LIG    1        2.584   6.794   7.657  0.00  0.00    +0.170 C 
ATOM     13  C   LIG    1        2.593   7.367   9.076  0.00  0.00    +0.240 C 
ATOM     14  O   LIG    1        1.414   6.941   9.764  0.00  0.00    -0.380 OA
ATOM     15  C   LIG    1        0.199   7.339   9.124  0.00  0.00    +0.240 C 
ATOM     16  C   LIG    1        0.165   6.766   7.704  0.00  0.00    +0.160 C 
ENDBRANCH   8  11
BRANCH   9  17
ATOM     17  N   LIG    1        1.371   9.128   4.885  0.00  0.00    +0.020 N 
ATOM     18  O   LIG    1        1.390   9.525   6.036  0.00  0.00    -0.090 OA
ATOM     19  O   LIG    1        1.377   9.926   3.965  0.00  0.00    -0.180 OA
ENDBRANCH   9  17
ENDBRANCH   3   5
BRANCH   1  20
ATOM     20  C   LIG    1        1.222   3.565   0.009  0.00  0.00    +0.340 C 
BRANCH  20  24
ATOM     21  C   LIG    1        1.226  -0.664  -0.013  0.00  0.00    +0.300 A 
ATOM     22  C   LIG    1        0.002  -0.004   0.002  0.00  0.00    -0.040 A 
ATOM     23  C   LIG    1       -0.017   1.379   0.010  0.00  0.00    +0.120 A 
ATOM     24  C   LIG    1        1.194   2.058   0.002  0.00  0.00    -0.170 A 
ATOM     25  C   LIG    1        2.373   1.339  -0.014  0.00  0.00    +0.320 A 
ATOM     26  N   LIG    1        2.361   0.020  -0.021  0.00  0.00    -0.520 NA
BRANCH  21  31
ATOM     27  C   LIG    1        1.929  -6.082   1.002  0.00  0.00    +0.330 C 
ATOM     28  N   LIG    1        1.921  -4.614   1.058  0.00  0.00    -0.390 N 
ATOM     29  C   LIG    1        2.637  -4.076  -0.105  0.00  0.00    +0.270 C 
ATOM     30  C   LIG    1        2.644  -2.547  -0.037  0.00  0.00    +0.250 C 
ATOM     31  N   LIG    1        1.260  -2.054  -0.021  0.00  0.00    -0.480 N 
ATOM     32  C   LIG    1        0.523  -2.605   1.125  0.00  0.00    +0.230 C 
ATOM     33  C   LIG    1        0.533  -4.133   1.047  0.00  0.00    +0.280 C 
ATOM     34  H   LIG    1        2.376  -4.308   1.905  0.00  0.00    +0.420 HD
ENDBRANCH  21  31
ENDBRANCH  20  24
ENDBRANCH   1  20
TORSDOF 6
