REMARK  Name = ZINCvU0000000Emy.0
REMARK                            x       y       z     vdW  Elec       q    Type
REMARK                         _______ _______ _______ _____ _____    ______ ____
ROOT
ATOM      1  C   LIG    1        0.023  -0.013  -0.148  0.00  0.00    +0.250 A 
ATOM      2  N   LIG    1        1.067  -0.776   0.083  0.00  0.00    -0.270 NA
ATOM      3  N   LIG    1        0.699  -2.002   0.193  0.00  0.00    -0.280 NA
ATOM      4  C   LIG    1       -0.602  -2.101   0.039  0.00  0.00    +0.150 A 
ATOM      5  N   LIG    1       -1.080  -0.837  -0.179  0.00  0.00    -0.420 N 
ENDROOT
BRANCH   1   9
ATOM      6  C   LIG    1        0.046   4.202  -0.685  0.00  0.00    +0.150 A 
ATOM      7  C   LIG    1        1.133   3.573  -0.092  0.00  0.00    -0.010 A 
ATOM      8  C   LIG    1        1.129   2.206   0.084  0.00  0.00    +0.110 A 
ATOM      9  C   LIG    1        0.031   1.453  -0.335  0.00  0.00    -0.070 A 
ATOM     10  C   LIG    1       -1.058   2.088  -0.935  0.00  0.00    +0.070 A 
ATOM     11  C   LIG    1       -1.049   3.456  -1.103  0.00  0.00    -0.070 A 
BRANCH   6  13
ATOM     12  C   LIG    1       -1.098   6.131  -1.472  0.00  0.00    +0.240 C 
ATOM     13  O   LIG    1        0.053   5.550  -0.856  0.00  0.00    -0.310 OA
ENDBRANCH   6  13
ENDBRANCH   1   9
BRANCH   5  14
ATOM     14  C   LIG    1       -2.414  -0.460  -0.391  0.00  0.00    +0.100 A 
ATOM     15  C   LIG    1       -3.084   0.292   0.564  0.00  0.00    +0.040 A 
ATOM     16  C   LIG    1       -4.397   0.666   0.350  0.00  0.00    +0.030 A 
ATOM     17  C   LIG    1       -5.046   0.282  -0.809  0.00  0.00    +0.040 A 
ATOM     18  C   LIG    1       -4.383  -0.472  -1.759  0.00  0.00    +0.040 A 
ATOM     19  C   LIG    1       -3.069  -0.844  -1.554  0.00  0.00    +0.030 A 
ENDBRANCH   5  14
BRANCH   4  20
ATOM     20  S   LIG    1       -1.554  -3.582   0.107  0.00  0.00    +0.080 S 
BRANCH  20  21
ATOM     21  C   LIG    1       -0.240  -4.785   0.429  0.00  0.00    +0.100 C 
BRANCH  21  22
ATOM     22  C   LIG    1       -0.837  -6.165   0.530  0.00  0.00    +0.420 C 
ATOM     23  O   LIG    1       -2.033  -6.320   0.397  0.00  0.00    -0.420 OA
BRANCH  22  24
ATOM     24  C   LIG    1        0.030  -7.324   0.790  0.00  0.00    -0.150 A 
ATOM     25  C   LIG    1       -0.521  -8.606   0.884  0.00  0.00    +0.120 A 
ATOM     26  C   LIG    1        0.296  -9.689   1.127  0.00  0.00    +0.020 A 
ATOM     27  C   LIG    1        1.662  -9.510   1.279  0.00  0.00    +0.110 A 
ATOM     28  C   LIG    1        2.217  -8.240   1.187  0.00  0.00    +0.060 A 
ATOM     29  F   LIG    1        3.550  -8.073   1.336  0.00  0.00    -0.120 F 
ATOM     30  F   LIG    1        2.458 -10.576   1.516  0.00  0.00    -0.120 F 
ATOM     31  C   LIG    1        1.410  -7.149   0.939  0.00  0.00    +0.080 A 
ENDBRANCH  22  24
ENDBRANCH  21  22
ENDBRANCH  20  21
ENDBRANCH   4  20
TORSDOF 7
