REMARK  Name = ZINCrD0000072QVx.0
REMARK                            x       y       z     vdW  Elec       q    Type
REMARK                         _______ _______ _______ _____ _____    ______ ____
ROOT
ATOM      1  C   LIG    1       -1.236   1.771   0.018  0.00  0.00    +0.470 A 
ATOM      2  N   LIG    1       -1.250   3.091   0.019  0.00  0.00    -0.540 NA
ATOM      3  C   LIG    1       -0.109   3.793   0.011  0.00  0.00    +0.310 A 
ATOM      4  C   LIG    1        0.151   5.157   0.004  0.00  0.00    -0.260 A 
ATOM      5  C   LIG    1        1.529   5.322  -0.003  0.00  0.00    +0.290 A 
ATOM      6  N   LIG    1        2.100   4.140  -0.001  0.00  0.00    -0.320 NA
ATOM      7  C   LIG    1       -0.876   6.260   0.004  0.00  0.00    +0.120 C 
ATOM      8  N   LIG    1        1.105   3.157   0.008  0.00  0.00    -0.330 N 
ATOM      9  C   LIG    1        1.156   1.782   0.013  0.00  0.00    +0.270 A 
ATOM     10  C   LIG    1       -0.013   1.076   0.020  0.00  0.00    -0.090 A 
ENDROOT
BRANCH   1  15
ATOM     11  C   LIG    1       -3.357  -0.789  -1.264  0.00  0.00    +0.020 C 
ATOM     12  C   LIG    1       -4.740  -0.171  -1.043  0.00  0.00    +0.060 C 
ATOM     13  C   LIG    1       -4.620   1.355  -1.016  0.00  0.00    -0.020 C 
ATOM     14  C   LIG    1       -3.713   1.771   0.146  0.00  0.00    +0.300 C 
ATOM     15  N   LIG    1       -2.429   1.067   0.020  0.00  0.00    -0.580 N 
ATOM     16  C   LIG    1       -4.018   1.843  -2.334  0.00  0.00    +0.020 C 
ATOM     17  C   LIG    1       -2.436  -0.396  -0.111  0.00  0.00    +0.310 C 
BRANCH  11  18
ATOM     18  C   LIG    1       -3.481  -2.290  -1.324  0.00  0.00    +0.470 C 
ATOM     19  O   LIG    1       -4.563  -2.812  -1.202  0.00  0.00    -0.500 OA
BRANCH  18  21
ATOM     20  C   LIG    1       -2.582  -4.484  -1.560  0.00  0.00    +0.260 C 
ATOM     21  O   LIG    1       -2.388  -3.046  -1.513  0.00  0.00    -0.360 OA
ENDBRANCH  18  21
ENDBRANCH  11  18
ENDBRANCH   1  15
BRANCH   9  22
ATOM     22  C   LIG    1        2.457   1.081   0.011  0.00  0.00    -0.070 A 
ATOM     23  C   LIG    1        3.323   1.206   1.098  0.00  0.00    +0.050 A 
ATOM     24  C   LIG    1        4.533   0.544   1.092  0.00  0.00    +0.010 A 
ATOM     25  C   LIG    1        4.894  -0.234   0.006  0.00  0.00    +0.030 A 
ATOM     26  C   LIG    1        4.043  -0.358  -1.077  0.00  0.00    +0.010 A 
ATOM     27  C   LIG    1        2.827   0.294  -1.082  0.00  0.00    +0.050 A 
ENDBRANCH   9  22
TORSDOF 4
