REMARK  Name = ZINCrg000000qNlQ.0
REMARK                            x       y       z     vdW  Elec       q    Type
REMARK                         _______ _______ _______ _____ _____    ______ ____
ROOT
ATOM      1  C   LIG    1       -4.578   4.112   3.717  0.00  0.00    +0.580 C 
ATOM      2  N   LIG    1       -3.458   3.461   3.347  0.00  0.00    -0.720 N 
ATOM      3  H   LIG    1       -2.856   3.109   4.021  0.00  0.00    +0.400 HD
ATOM      4  O   LIG    1       -5.332   4.553   2.871  0.00  0.00    -0.500 OA
ENDROOT
BRANCH   1   9
ATOM      5  C   LIG    1       -5.934   3.505   7.176  0.00  0.00    +0.110 A 
ATOM      6  C   LIG    1       -5.472   4.628   7.842  0.00  0.00    +0.000 A 
ATOM      7  C   LIG    1       -4.722   5.580   7.172  0.00  0.00    +0.040 A 
ATOM      8  C   LIG    1       -4.424   5.417   5.834  0.00  0.00    +0.110 A 
ATOM      9  C   LIG    1       -4.889   4.289   5.147  0.00  0.00    -0.150 A 
ATOM     10  F   LIG    1       -3.687   6.347   5.187  0.00  0.00    -0.130 F 
ATOM     11  C   LIG    1       -5.647   3.328   5.827  0.00  0.00    +0.130 A 
BRANCH   5  13
ATOM     12  C   LIG    1       -6.927   2.821   9.226  0.00  0.00    +0.250 C 
ATOM     13  O   LIG    1       -6.670   2.575   7.843  0.00  0.00    -0.300 OA
ENDBRANCH   5  13
BRANCH  11  14
ATOM     14  O   LIG    1       -6.099   2.228   5.173  0.00  0.00    -0.310 OA
ATOM     15  C   LIG    1       -5.248   1.079   5.169  0.00  0.00    +0.220 C 
ENDBRANCH  11  14
ENDBRANCH   1   9
BRANCH   2  16
ATOM     16  C   LIG    1       -3.148   3.284   1.925  0.00  0.00    +0.310 C 
BRANCH  16  17
ATOM     17  C   LIG    1       -1.832   2.518   1.781  0.00  0.00    -0.380 C 
BRANCH  17  18
ATOM     18  S   LIG    1       -1.449   2.300   0.021  0.00  0.00    +2.620 S 
ATOM     19  O   LIG    1       -2.377   1.411  -0.584  0.00  0.00    -0.940 OA
ATOM     20  O   LIG    1       -1.133   3.549  -0.579  0.00  0.00    -0.940 OA
BRANCH  18  21
ATOM     21  N   LIG    1       -0.018   1.467   0.010  0.00  0.00    -1.000 NA
ATOM     22  C   LIG    1        1.271   2.176   0.002  0.00  0.00    +0.280 C 
ATOM     23  C   LIG    1        2.151   1.593   1.113  0.00  0.00    +0.190 C 
ATOM     24  O   LIG    1        2.208   0.172   0.972  0.00  0.00    -0.370 OA
ATOM     25  C   LIG    1        0.944  -0.481   1.114  0.00  0.00    +0.140 C 
ATOM     26  C   LIG    1        1.135  -1.995   1.007  0.00  0.00    +0.070 C 
ATOM     27  C   LIG    1        1.556   1.948   2.477  0.00  0.00    +0.010 C 
ATOM     28  C   LIG    1        0.002  -0.004   0.002  0.00  0.00    +0.280 C 
ENDBRANCH  18  21
ENDBRANCH  17  18
ENDBRANCH  16  17
ENDBRANCH   2  16
TORSDOF 7
