REMARK  Name = ZINCpe000000Tjjm.0
REMARK                            x       y       z     vdW  Elec       q    Type
REMARK                         _______ _______ _______ _____ _____    ______ ____
ROOT
ATOM      1  C   LIG    1       -0.656  -1.109   0.632  0.00  0.00    +0.600 C 
ATOM      2  N   LIG    1        0.186  -0.198   0.106  0.00  0.00    -0.600 N 
ATOM      3  C   LIG    1       -0.007   1.263   0.126  0.00  0.00    +0.280 C 
ATOM      4  C   LIG    1        1.419   1.853  -0.004  0.00  0.00    -0.010 C 
ATOM      5  C   LIG    1        2.083   0.851  -0.985  0.00  0.00    +0.190 C 
ATOM      6  C   LIG    1        1.378   3.261  -0.603  0.00  0.00    +0.050 C 
ATOM      7  C   LIG    1        1.451  -0.497  -0.581  0.00  0.00    +0.220 C 
ATOM      8  O   LIG    1       -0.395  -2.294   0.557  0.00  0.00    -0.520 OA
ENDROOT
BRANCH   1  11
ATOM      9  N   LIG    1       -3.247   1.047   1.948  0.00  0.00    -0.340 N 
ATOM     10  N   LIG    1       -2.181   0.614   1.379  0.00  0.00    -0.180 NA
ATOM     11  C   LIG    1       -1.900  -0.668   1.299  0.00  0.00    +0.020 A 
ATOM     12  C   LIG    1       -2.787  -1.627   1.845  0.00  0.00    +0.130 A 
ATOM     13  C   LIG    1       -3.921  -1.182   2.458  0.00  0.00    -0.020 A 
ATOM     14  C   LIG    1       -4.146   0.212   2.500  0.00  0.00    +0.480 A 
ATOM     15  O   LIG    1       -5.150   0.655   3.034  0.00  0.00    -0.520 OA
BRANCH   9  16
ATOM     16  C   LIG    1       -3.491   2.491   1.997  0.00  0.00    +0.320 C 
BRANCH  16  17
ATOM     17  C   LIG    1       -2.875   3.069   3.272  0.00  0.00    +0.010 C 
BRANCH  17  19
ATOM     18  C   LIG    1       -2.513   5.155   4.599  0.00  0.00    +0.020 C 
ATOM     19  C   LIG    1       -3.130   4.577   3.324  0.00  0.00    +0.020 C 
ENDBRANCH  17  19
ENDBRANCH  16  17
ENDBRANCH   9  16
ENDBRANCH   1  11
BRANCH   5  20
ATOM     20  N   LIG    1        3.540   0.820  -0.794  0.00  0.00    -0.520 NA
ATOM     21  C   LIG    1        4.175  -0.111  -1.739  0.00  0.00    +0.150 C 
ATOM     22  C   LIG    1        5.693  -0.068  -1.547  0.00  0.00    +0.220 C 
ATOM     23  O   LIG    1        6.005  -0.380  -0.186  0.00  0.00    -0.380 OA
ATOM     24  C   LIG    1        5.404   0.508   0.760  0.00  0.00    +0.220 C 
ATOM     25  C   LIG    1        3.883   0.471   0.592  0.00  0.00    +0.150 C 
ENDBRANCH   5  20
TORSDOF 5
