REMARK  Name = ZINCrg00000SjSqO.0
REMARK                            x       y       z     vdW  Elec       q    Type
REMARK                         _______ _______ _______ _____ _____    ______ ____
ROOT
ATOM      1  N   LIG    1        3.060   1.429   2.310  0.00  0.00    -0.450 N 
ATOM      2  C   LIG    1        1.761   2.078   2.001  0.00  0.00    +0.210 C 
ATOM      3  C   LIG    1        1.572   1.873   0.483  0.00  0.00    +0.020 C 
ATOM      4  C   LIG    1        0.119   1.450   0.209  0.00  0.00    +0.280 C 
ATOM      5  N   LIG    1        0.110  -0.021   0.193  0.00  0.00    -0.610 N 
ATOM      6  C   LIG    1        1.426  -0.444  -0.314  0.00  0.00    +0.270 C 
ATOM      7  C   LIG    1       -0.904  -0.825   0.569  0.00  0.00    +0.620 C 
ATOM      8  O   LIG    1       -1.906  -0.347   1.066  0.00  0.00    -0.510 OA
ATOM      9  C   LIG    1        2.431   0.628   0.139  0.00  0.00    -0.070 C 
ATOM     10  C   LIG    1        3.491   0.909  -0.927  0.00  0.00    +0.080 C 
ATOM     11  C   LIG    1        3.059   0.197   1.481  0.00  0.00    +0.230 C 
ENDROOT
BRANCH   1  16
ATOM     12  C   LIG    1        3.315  -0.448   5.337  0.00  0.00    +0.380 A 
ATOM     13  N   LIG    1        3.335   0.481   6.271  0.00  0.00    -0.570 NA
ATOM     14  C   LIG    1        3.265   1.771   5.953  0.00  0.00    +0.380 A 
ATOM     15  C   LIG    1        3.171   2.132   4.615  0.00  0.00    -0.090 A 
ATOM     16  C   LIG    1        3.153   1.120   3.658  0.00  0.00    +0.370 A 
ATOM     17  N   LIG    1        3.221  -0.147   4.058  0.00  0.00    -0.560 NA
BRANCH  14  18
ATOM     18  O   LIG    1        3.287   2.720   6.921  0.00  0.00    -0.300 OA
ATOM     19  C   LIG    1        3.385   2.266   8.272  0.00  0.00    +0.260 C 
ENDBRANCH  14  18
BRANCH  12  20
ATOM     20  C   LIG    1        3.396  -1.897   5.745  0.00  0.00    +0.290 C 
BRANCH  20  22
ATOM     21  C   LIG    1        2.042  -3.781   6.346  0.00  0.00    +0.220 C 
ATOM     22  O   LIG    1        2.078  -2.407   5.954  0.00  0.00    -0.380 OA
ENDBRANCH  20  22
ENDBRANCH  12  20
ENDBRANCH   1  16
BRANCH   7  23
ATOM     23  C   LIG    1       -0.800  -2.280   0.377  0.00  0.00    -0.290 A 
ATOM     24  C   LIG    1       -1.671  -3.268   0.797  0.00  0.00    +0.300 A 
ATOM     25  N   LIG    1       -1.261  -4.464   0.446  0.00  0.00    -0.250 NA
ATOM     26  N   LIG    1       -0.170  -4.601  -0.196  0.00  0.00    -0.260 NA
ATOM     27  S   LIG    1        0.478  -3.197  -0.443  0.00  0.00    +0.430 S 
ENDBRANCH   7  23
TORSDOF 5
