REMARK  Name = ZINCpe00000MJIMt.0
REMARK                            x       y       z     vdW  Elec       q    Type
REMARK                         _______ _______ _______ _____ _____    ______ ____
ROOT
ATOM      1  O   LIG    1       -3.918   4.346  -2.147  0.00  0.00    -0.540 OA
ATOM      2  C   LIG    1       -3.289   3.325  -1.966  0.00  0.00    +0.520 C 
ATOM      3  C   LIG    1       -1.784   3.350  -2.068  0.00  0.00    +0.040 C 
ATOM      4  C   LIG    1       -1.184   3.231  -0.663  0.00  0.00    +0.320 C 
ATOM      5  N   LIG    1       -1.185   1.824  -0.256  0.00  0.00    -0.580 N 
ATOM      6  C   LIG    1       -2.431   1.071  -0.137  0.00  0.00    +0.080 C 
ATOM      7  C   LIG    1       -3.317   1.526   1.032  0.00  0.00    +0.230 C 
ATOM      8  O   LIG    1       -3.514   0.118   1.276  0.00  0.00    -0.380 OA
ATOM      9  C   LIG    1       -3.189   0.945  -1.453  0.00  0.00    +0.320 C 
ATOM     10  C   LIG    1       -2.288  -0.258   0.616  0.00  0.00    +0.270 C 
ATOM     11  C   LIG    1       -0.014   1.211   0.009  0.00  0.00    +0.570 C 
ATOM     12  O   LIG    1        0.037  -0.002   0.066  0.00  0.00    -0.510 OA
ATOM     13  N   LIG    1       -3.941   2.192  -1.678  0.00  0.00    -0.730 N 
ATOM     14  H   LIG    1       -4.910   2.192  -1.616  0.00  0.00    +0.410 HD
ENDROOT
BRANCH  11  15
ATOM     15  C   LIG    1        1.214   2.017   0.225  0.00  0.00    +0.130 A 
ATOM     16  C   LIG    1        2.460   1.397   0.322  0.00  0.00    +0.000 A 
ATOM     17  C   LIG    1        3.581   2.193   0.518  0.00  0.00    +0.350 A 
ATOM     18  N   LIG    1        3.434   3.501   0.617  0.00  0.00    -0.490 NA
ATOM     19  C   LIG    1        2.235   4.062   0.526  0.00  0.00    +0.370 A 
ATOM     20  N   LIG    1        1.142   3.340   0.334  0.00  0.00    -0.490 NA
BRANCH  19  21
ATOM     21  C   LIG    1        2.115   5.536   0.642  0.00  0.00    -0.060 A 
ATOM     22  C   LIG    1        0.867   6.146   0.543  0.00  0.00    +0.060 A 
ATOM     23  C   LIG    1        0.761   7.518   0.659  0.00  0.00    +0.000 A 
ATOM     24  C   LIG    1        1.893   8.287   0.859  0.00  0.00    +0.040 A 
ATOM     25  C   LIG    1        3.136   7.686   0.953  0.00  0.00    +0.000 A 
ATOM     26  C   LIG    1        3.253   6.315   0.845  0.00  0.00    +0.070 A 
ENDBRANCH  19  21
ENDBRANCH  11  15
TORSDOF 2
