REMARK  Name = ZINCrH000004tB5u.0
REMARK                            x       y       z     vdW  Elec       q    Type
REMARK                         _______ _______ _______ _____ _____    ______ ____
ROOT
ATOM      1  O   LIG    1       -2.208   0.903  -1.776  0.00  0.00    -0.520 OA
ATOM      2  C   LIG    1       -1.187   1.089  -2.403  0.00  0.00    +0.520 C 
ATOM      3  N   LIG    1       -0.027   0.550  -1.977  0.00  0.00    -0.600 N 
ATOM      4  C   LIG    1        1.178   0.714  -2.813  0.00  0.00    +0.260 C 
ATOM      5  C   LIG    1        2.427   1.037  -1.972  0.00  0.00    +0.020 C 
ATOM      6  C   LIG    1        2.075   2.009  -0.873  0.00  0.00    +0.020 C 
ATOM      7  C   LIG    1        1.698   1.233   0.386  0.00  0.00    +0.010 C 
ATOM      8  C   LIG    1        0.291   0.807   0.436  0.00  0.00    +0.030 C 
ATOM      9  C   LIG    1       -0.017  -0.171  -0.724  0.00  0.00    +0.350 C 
ENDROOT
BRANCH   2  10
ATOM     10  C   LIG    1       -1.214   1.924  -3.657  0.00  0.00    -0.020 C 
ATOM     11  C   LIG    1       -0.962   3.393  -3.301  0.00  0.00    +0.020 C 
ATOM     12  C   LIG    1       -1.069   4.243  -4.569  0.00  0.00    +0.210 C 
ATOM     13  O   LIG    1       -2.358   4.058  -5.157  0.00  0.00    -0.380 OA
ATOM     14  C   LIG    1       -2.631   2.713  -5.554  0.00  0.00    +0.210 C 
ATOM     15  C   LIG    1       -2.586   1.801  -4.325  0.00  0.00    +0.010 C 
ENDBRANCH   2  10
BRANCH   9  16
ATOM     16  C   LIG    1       -1.365  -0.807  -0.500  0.00  0.00    +0.190 A 
ATOM     17  N   LIG    1       -2.278  -0.398   0.330  0.00  0.00    -0.350 NA
ATOM     18  O   LIG    1       -3.252  -1.119   0.280  0.00  0.00    +0.090 OA
ATOM     19  C   LIG    1       -3.046  -2.094  -0.620  0.00  0.00    +0.220 A 
ATOM     20  N   LIG    1       -1.841  -1.895  -1.125  0.00  0.00    -0.470 NA
BRANCH  19  21
ATOM     21  C   LIG    1       -3.987  -3.175  -0.980  0.00  0.00    -0.040 A 
ATOM     22  C   LIG    1       -3.632  -4.120  -1.946  0.00  0.00    +0.110 A 
ATOM     23  C   LIG    1       -4.511  -5.130  -2.274  0.00  0.00    -0.010 A 
ATOM     24  C   LIG    1       -5.750  -5.202  -1.656  0.00  0.00    +0.130 A 
ATOM     25  C   LIG    1       -6.109  -4.264  -0.700  0.00  0.00    +0.000 A 
ATOM     26  F   LIG    1       -6.610  -6.190  -1.986  0.00  0.00    -0.130 F 
ATOM     27  C   LIG    1       -5.235  -3.253  -0.361  0.00  0.00    +0.100 A 
ENDBRANCH  19  21
ENDBRANCH   9  16
TORSDOF 3
