REMARK  Name = ZINCqH0000001UVb.0
REMARK                            x       y       z     vdW  Elec       q    Type
REMARK                         _______ _______ _______ _____ _____    ______ ____
ROOT
ATOM      1  N   LIG    1        0.015   0.870   0.030  0.00  0.00    -0.730 N 
ATOM      2  H   LIG    1        0.070  -0.098   0.046  0.00  0.00    +0.400 HD
ATOM      3  C   LIG    1       -1.188   1.478   0.021  0.00  0.00    +0.510 C 
ATOM      4  O   LIG    1       -1.257   2.684  -0.091  0.00  0.00    -0.520 OA
ENDROOT
BRANCH   1   9
ATOM      5  C   LIG    1        3.847   1.356  -2.356  0.00  0.00    +0.030 C 
ATOM      6  C   LIG    1        2.567   0.518  -2.334  0.00  0.00    -0.070 C 
ATOM      7  C   LIG    1        2.478  -0.244  -1.011  0.00  0.00    +0.020 C 
ATOM      8  C   LIG    1        2.455   0.752   0.151  0.00  0.00    +0.040 C 
ATOM      9  C   LIG    1        1.241   1.672   0.010  0.00  0.00    +0.170 C 
ATOM     10  C   LIG    1        1.330   2.434  -1.314  0.00  0.00    +0.050 C 
ATOM     11  C   LIG    1        2.589  -0.478  -3.496  0.00  0.00    +0.030 C 
ATOM     12  C   LIG    1        1.353   1.439  -2.475  0.00  0.00    +0.030 C 
BRANCH   9  13
ATOM     13  C   LIG    1        1.219   2.653   1.153  0.00  0.00    +0.530 C 
ATOM     14  O   LIG    1        1.690   3.762   1.011  0.00  0.00    -0.530 OA
ATOM     15  N   LIG    1        0.676   2.299   2.335  0.00  0.00    -0.850 N 
ATOM     16  H   LIG    1        0.726   2.902   3.092  0.00  0.00    +0.400 HD
ATOM     17  H   LIG    1        0.235   1.440   2.428  0.00  0.00    +0.400 HD
ENDBRANCH   9  13
ENDBRANCH   1   9
BRANCH   3  18
ATOM     18  C   LIG    1       -2.446   0.659   0.149  0.00  0.00    +0.060 C 
BRANCH  18  19
ATOM     19  C   LIG    1       -3.663   1.585   0.110  0.00  0.00    +0.090 C 
BRANCH  19  20
ATOM     20  C   LIG    1       -4.922   0.767   0.238  0.00  0.00    -0.070 A 
ATOM     21  C   LIG    1       -5.599   0.375  -0.875  0.00  0.00    +0.010 A 
ATOM     22  C   LIG    1       -6.762  -0.388  -0.777  0.00  0.00    +0.010 A 
ATOM     23  C   LIG    1       -7.260  -0.753   0.436  0.00  0.00    +0.020 A 
ATOM     24  C   LIG    1       -6.591  -0.361   1.609  0.00  0.00    -0.050 A 
ATOM     25  C   LIG    1       -7.075  -0.720   2.878  0.00  0.00    +0.020 A 
ATOM     26  C   LIG    1       -6.400  -0.323   3.992  0.00  0.00    +0.000 A 
ATOM     27  C   LIG    1       -5.235   0.434   3.894  0.00  0.00    +0.000 A 
ATOM     28  C   LIG    1       -4.737   0.800   2.681  0.00  0.00    +0.020 A 
ATOM     29  C   LIG    1       -5.406   0.409   1.508  0.00  0.00    -0.050 A 
ENDBRANCH  19  20
ENDBRANCH  18  19
ENDBRANCH   3  18
TORSDOF 5
