REMARK  Name = ZINCue00000008Ff.0
REMARK                            x       y       z     vdW  Elec       q    Type
REMARK                         _______ _______ _______ _____ _____    ______ ____
ROOT
ATOM      1  N   LIG    1        5.532   7.228   3.186  0.00  0.00    -0.600 N 
ATOM      2  C   LIG    1        4.621   6.127   2.852  0.00  0.00    +0.370 C 
ATOM      3  C   LIG    1        5.472   5.050   2.227  0.00  0.00    -0.020 A 
ATOM      4  C   LIG    1        5.189   3.790   1.716  0.00  0.00    -0.110 A 
ATOM      5  C   LIG    1        6.224   3.006   1.196  0.00  0.00    +0.090 A 
ATOM      6  C   LIG    1        7.517   3.489   1.183  0.00  0.00    +0.010 A 
ATOM      7  C   LIG    1        7.802   4.741   1.691  0.00  0.00    +0.120 A 
ATOM      8  C   LIG    1        6.780   5.534   2.218  0.00  0.00    -0.170 A 
ATOM      9  C   LIG    1        6.778   6.882   2.818  0.00  0.00    +0.570 C 
ATOM     10  O   LIG    1        7.763   7.581   2.960  0.00  0.00    -0.520 OA
ENDROOT
BRANCH   1  15
ATOM     11  O   LIG    1        6.278  12.062   5.393  0.00  0.00    -0.500 OA
ATOM     12  C   LIG    1        5.937  10.998   4.923  0.00  0.00    +0.520 C 
ATOM     13  C   LIG    1        5.202  10.973   3.609  0.00  0.00    +0.100 C 
ATOM     14  C   LIG    1        5.510   9.658   2.885  0.00  0.00    +0.060 C 
ATOM     15  C   LIG    1        5.147   8.494   3.814  0.00  0.00    +0.290 C 
ATOM     16  C   LIG    1        5.884   8.653   5.118  0.00  0.00    +0.510 C 
ATOM     17  O   LIG    1        6.179   7.666   5.758  0.00  0.00    -0.480 OA
ATOM     18  N   LIG    1        6.222   9.865   5.583  0.00  0.00    -0.670 N 
ATOM     19  H   LIG    1        6.690   9.925   6.431  0.00  0.00    +0.410 HD
ENDBRANCH   1  15
BRANCH   4  20
ATOM     20  C   LIG    1        3.802   3.279   1.726  0.00  0.00    +0.560 C 
ATOM     21  N   LIG    1        3.531   2.056   1.229  0.00  0.00    -0.710 N 
ATOM     22  H   LIG    1        4.246   1.511   0.864  0.00  0.00    +0.400 HD
ATOM     23  O   LIG    1        2.906   3.961   2.183  0.00  0.00    -0.540 OA
BRANCH  21  24
ATOM     24  C   LIG    1        2.157   1.548   1.239  0.00  0.00    +0.230 C 
ATOM     25  C   LIG    1        1.417   2.055  -0.000  0.00  0.00    +0.000 C 
ATOM     26  C   LIG    1       -0.019   1.526   0.010  0.00  0.00    +0.000 C 
ATOM     27  C   LIG    1        0.002  -0.004   0.002  0.00  0.00    +0.030 C 
ATOM     28  C   LIG    1        0.742  -0.511   1.242  0.00  0.00    -0.090 C 
ATOM     29  C   LIG    1        2.178   0.019   1.231  0.00  0.00    +0.030 C 
BRANCH  28  30
ATOM     30  C   LIG    1        0.762  -2.018   1.233  0.00  0.00    +0.500 C 
ATOM     31  O   LIG    1        1.307  -2.625   2.139  0.00  0.00    -0.700 OA
ATOM     32  O   LIG    1        0.234  -2.630   0.321  0.00  0.00    -0.700 OA
ENDBRANCH  28  30
ENDBRANCH  21  24
ENDBRANCH   4  20
TORSDOF 4
