REMARK  Name = ZINCDN0000000dSD.0
REMARK                            x       y       z     vdW  Elec       q    Type
REMARK                         _______ _______ _______ _____ _____    ______ ____
ROOT
ATOM      1  O   LIG    1        1.268  -0.413  -0.437  0.00  0.00    -0.540 OA
ATOM      2  C   LIG    1        0.162   0.020  -0.175  0.00  0.00    +0.580 C 
ATOM      3  N   LIG    1       -0.016   1.344   0.009  0.00  0.00    -0.680 N 
ATOM      4  H   LIG    1       -0.909   1.699   0.139  0.00  0.00    +0.410 HD
ENDROOT
BRANCH   2   5
ATOM      5  C   LIG    1       -0.983  -0.902  -0.058  0.00  0.00    -0.260 A 
ATOM      6  C   LIG    1       -2.253  -0.405   0.250  0.00  0.00    +0.090 A 
ATOM      7  C   LIG    1       -3.321  -1.268   0.353  0.00  0.00    -0.170 A 
ATOM      8  C   LIG    1       -3.135  -2.634   0.163  0.00  0.00    +0.320 A 
ATOM      9  C   LIG    1       -1.870  -3.132  -0.138  0.00  0.00    -0.070 A 
ATOM     10  C   LIG    1       -0.799  -2.274  -0.248  0.00  0.00    +0.110 A 
BRANCH   8  11
ATOM     11  N   LIG    1       -4.214  -3.503   0.272  0.00  0.00    -1.070 NA
BRANCH  11  12
ATOM     12  S   LIG    1       -5.720  -2.913   0.630  0.00  0.00    +2.600 S 
ATOM     13  O   LIG    1       -6.117  -2.126  -0.484  0.00  0.00    -1.000 OA
ATOM     14  O   LIG    1       -5.646  -2.403   1.954  0.00  0.00    -1.010 OA
BRANCH  12  15
ATOM     15  C   LIG    1       -6.819  -4.288   0.687  0.00  0.00    -0.620 A 
ATOM     16  C   LIG    1       -7.425  -4.640   1.878  0.00  0.00    +0.230 A 
ATOM     17  C   LIG    1       -8.292  -5.717   1.921  0.00  0.00    -0.070 A 
ATOM     18  C   LIG    1       -8.545  -6.447   0.776  0.00  0.00    +0.160 A 
ATOM     19  C   LIG    1       -7.936  -6.100  -0.415  0.00  0.00    +0.020 A 
ATOM     20  C   LIG    1       -7.072  -5.020  -0.461  0.00  0.00    +0.100 A 
ATOM     21 CL   LIG    1       -6.306  -4.583  -1.956  0.00  0.00    +0.000 Cl
BRANCH  17  22
ATOM     22  N   LIG    1       -8.945  -6.090   3.196  0.00  0.00    +0.030 N 
ATOM     23  O   LIG    1       -8.722  -5.446   4.206  0.00  0.00    -0.150 OA
ATOM     24  O   LIG    1       -9.705  -7.041   3.236  0.00  0.00    -0.160 OA
ENDBRANCH  17  22
ENDBRANCH  12  15
ENDBRANCH  11  12
ENDBRANCH   8  11
ENDBRANCH   2   5
BRANCH   3  25
ATOM     25  C   LIG    1        1.086   2.205   0.008  0.00  0.00    +0.150 A 
ATOM     26  C   LIG    1        2.308   1.771   0.503  0.00  0.00    +0.080 A 
ATOM     27  C   LIG    1        3.396   2.623   0.497  0.00  0.00    +0.020 A 
ATOM     28  C   LIG    1        3.265   3.909   0.007  0.00  0.00    +0.090 A 
ATOM     29  C   LIG    1        2.048   4.346  -0.483  0.00  0.00    -0.660 A 
ATOM     30  C   LIG    1        0.958   3.498  -0.483  0.00  0.00    +0.090 A 
BRANCH  29  31
ATOM     31  S   LIG    1        1.887   5.986  -1.106  0.00  0.00    +2.700 S 
ATOM     32  O   LIG    1        0.783   5.969  -2.000  0.00  0.00    -0.950 OA
ATOM     33  O   LIG    1        3.191   6.399  -1.490  0.00  0.00    -0.950 OA
BRANCH  31  34
ATOM     34  N   LIG    1        1.445   6.952   0.164  0.00  0.00    -1.120 NA
ATOM     35  H   LIG    1        0.577   7.386   0.165  0.00  0.00    +0.420 HD
BRANCH  34  36
ATOM     36  C   LIG    1        2.365   7.151   1.287  0.00  0.00    +0.400 C 
BRANCH  36  37
ATOM     37  C   LIG    1        1.905   8.328   2.110  0.00  0.00    -0.030 A 
ATOM     38  C   LIG    1        1.055   8.275   3.151  0.00  0.00    -0.030 A 
ATOM     39  C   LIG    1        0.906   9.599   3.625  0.00  0.00    -0.070 A 
ATOM     40  C   LIG    1        1.668  10.382   2.840  0.00  0.00    +0.170 A 
ATOM     41  O   LIG    1        2.271   9.607   1.924  0.00  0.00    -0.170 OA
ENDBRANCH  36  37
ENDBRANCH  34  36
ENDBRANCH  31  34
ENDBRANCH  29  31
ENDBRANCH   3  25
TORSDOF 10
