REMARK  Name = ZINCpe000000Y1O3.0
REMARK                            x       y       z     vdW  Elec       q    Type
REMARK                         _______ _______ _______ _____ _____    ______ ____
ROOT
ATOM      1  C   LIG    1       -5.395   1.731   3.420  0.00  0.00    +0.530 C 
ATOM      2  N   LIG    1       -4.220   1.238   3.861  0.00  0.00    -0.610 N 
ATOM      3  C   LIG    1       -4.090   0.539   5.148  0.00  0.00    +0.360 C 
ATOM      4  S   LIG    1       -2.345  -0.027   5.206  0.00  0.00    -0.240 S 
ATOM      5  C   LIG    1       -2.067   0.137   3.392  0.00  0.00    +0.170 C 
ATOM      6  C   LIG    1       -2.982   1.358   3.095  0.00  0.00    +0.220 C 
ATOM      7  O   LIG    1       -5.465   2.240   2.321  0.00  0.00    -0.500 OA
ENDROOT
BRANCH   6   8
ATOM      8  C   LIG    1       -3.303   1.399   1.623  0.00  0.00    +0.550 C 
ATOM      9  N   LIG    1       -2.637   2.244   0.811  0.00  0.00    -0.620 N 
ATOM     10  C   LIG    1       -1.648   3.250   1.242  0.00  0.00    +0.240 C 
ATOM     11  C   LIG    1       -0.761   3.492  -0.004  0.00  0.00    +0.040 C 
ATOM     12  C   LIG    1       -1.802   3.403  -1.151  0.00  0.00    +0.030 C 
ATOM     13  C   LIG    1       -2.775   2.314  -0.651  0.00  0.00    +0.250 C 
ATOM     14  O   LIG    1       -4.160   0.671   1.169  0.00  0.00    -0.510 OA
ENDBRANCH   6   8
BRANCH   1  15
ATOM     15  C   LIG    1       -6.621   1.650   4.293  0.00  0.00    +0.070 C 
BRANCH  15  16
ATOM     16  C   LIG    1       -7.810   2.277   3.561  0.00  0.00    +0.140 C 
BRANCH  16  26
ATOM     17  C   LIG    1       -9.454  -0.133   3.573  0.00  0.00    +0.150 C 
ATOM     18  C   LIG    1       -9.825   1.042   4.441  0.00  0.00    +0.290 A 
ATOM     19  N   LIG    1      -10.895   0.985   5.209  0.00  0.00    -0.550 NA
ATOM     20  C   LIG    1      -11.237   2.017   5.983  0.00  0.00    +0.630 A 
ATOM     21  N   LIG    1      -10.500   3.144   6.001  0.00  0.00    -0.620 N 
ATOM     22  H   LIG    1      -10.762   3.885   6.569  0.00  0.00    +0.420 HD
ATOM     23  C   LIG    1       -9.386   3.242   5.229  0.00  0.00    +0.220 A 
ATOM     24  C   LIG    1       -8.553   4.498   5.249  0.00  0.00    +0.150 C 
ATOM     25  O   LIG    1      -12.232   1.939   6.684  0.00  0.00    -0.530 OA
ATOM     26  C   LIG    1       -9.036   2.196   4.434  0.00  0.00    -0.260 A 
ENDBRANCH  16  26
ENDBRANCH  15  16
ENDBRANCH   1  15
TORSDOF 4
