REMARK  Name = ZINCvU0000000EuU.0
REMARK                            x       y       z     vdW  Elec       q    Type
REMARK                         _______ _______ _______ _____ _____    ______ ____
ROOT
ATOM      1  C   LIG    1        8.413   2.008  -2.978  0.00  0.00    -0.070 A 
ATOM      2  C   LIG    1        7.632   1.730  -4.091  0.00  0.00    +0.070 A 
ATOM      3  C   LIG    1        8.183   1.875  -5.374  0.00  0.00    +0.190 A 
ATOM      4  N   LIG    1        9.428   2.257  -5.565  0.00  0.00    -0.440 NA
ATOM      5  C   LIG    1       10.251   2.539  -4.554  0.00  0.00    +0.130 A 
ATOM      6  C   LIG    1       11.577   2.946  -4.790  0.00  0.00    +0.050 A 
ATOM      7  C   LIG    1       12.394   3.227  -3.738  0.00  0.00    +0.040 A 
ATOM      8  C   LIG    1       11.939   3.119  -2.426  0.00  0.00    +0.030 A 
ATOM      9  C   LIG    1       10.660   2.729  -2.159  0.00  0.00    +0.050 A 
ATOM     10  C   LIG    1        9.794   2.431  -3.216  0.00  0.00    -0.060 A 
ENDROOT
BRANCH   3  11
ATOM     11  C   LIG    1        7.335   1.580  -6.554  0.00  0.00    -0.070 A 
ATOM     12  C   LIG    1        6.014   1.168  -6.381  0.00  0.00    +0.070 A 
ATOM     13  C   LIG    1        5.228   0.901  -7.482  0.00  0.00    -0.020 A 
ATOM     14  C   LIG    1        5.752   1.030  -8.758  0.00  0.00    +0.120 A 
ATOM     15  C   LIG    1        7.066   1.434  -8.935  0.00  0.00    -0.020 A 
ATOM     16  F   LIG    1        4.979   0.762  -9.834  0.00  0.00    -0.130 F 
ATOM     17  C   LIG    1        7.858   1.709  -7.840  0.00  0.00    +0.110 A 
ENDBRANCH   3  11
BRANCH   1  19
ATOM     18  O   LIG    1        8.608   2.025  -0.651  0.00  0.00    -0.480 OA
ATOM     19  C   LIG    1        7.875   1.875  -1.608  0.00  0.00    +0.530 C 
BRANCH  19  20
ATOM     20  O   LIG    1        6.572   1.589  -1.421  0.00  0.00    -0.350 OA
BRANCH  20  21
ATOM     21  C   LIG    1        6.113   1.474  -0.048  0.00  0.00    +0.410 C 
BRANCH  21  22
ATOM     22  C   LIG    1        4.641   1.152  -0.036  0.00  0.00    +0.150 A 
ATOM     23  N   LIG    1        4.114  -0.040  -0.041  0.00  0.00    -0.240 NA
ATOM     24  N   LIG    1        2.831   0.056  -0.027  0.00  0.00    -0.270 NA
ATOM     25  C   LIG    1        2.491   1.326  -0.013  0.00  0.00    +0.260 A 
ATOM     26  O   LIG    1        3.634   2.044  -0.025  0.00  0.00    -0.210 OA
BRANCH  25  27
ATOM     27  C   LIG    1        1.123   1.864   0.005  0.00  0.00    -0.160 A 
ATOM     28  C   LIG    1       -0.016   1.118   0.011  0.00  0.00    +0.110 A 
ATOM     29  C   LIG    1       -1.180   1.855   0.022  0.00  0.00    +0.020 A 
ATOM     30  C   LIG    1       -1.014   3.181   0.036  0.00  0.00    -0.010 A 
ATOM     31  S   LIG    1        0.701   3.571   0.022  0.00  0.00    +0.180 S 
ENDBRANCH  25  27
ENDBRANCH  21  22
ENDBRANCH  20  21
ENDBRANCH  19  20
ENDBRANCH   1  19
TORSDOF 6
