REMARK  Name = ZINCrD00000lcEBK.0
REMARK                            x       y       z     vdW  Elec       q    Type
REMARK                         _______ _______ _______ _____ _____    ______ ____
ROOT
ATOM      1  N   LIG    1        4.894   0.841  -0.434  0.00  0.00    -0.650 N 
ATOM      2  H   LIG    1        4.865   0.047  -0.990  0.00  0.00    +0.420 HD
ATOM      3  C   LIG    1        3.768   1.296   0.150  0.00  0.00    +0.560 C 
ATOM      4  O   LIG    1        3.786   2.340   0.773  0.00  0.00    -0.470 OA
ENDROOT
BRANCH   3   5
ATOM      5  C   LIG    1        2.510   0.525   0.032  0.00  0.00    +0.190 A 
ATOM      6  C   LIG    1        1.357   0.918   0.729  0.00  0.00    -0.140 A 
ATOM      7  C   LIG    1        1.017   2.003   1.642  0.00  0.00    -0.150 A 
ATOM      8  C   LIG    1       -0.275   1.839   1.980  0.00  0.00    +0.310 A 
ATOM      9  N   LIG    1       -0.787   0.736   1.349  0.00  0.00    -0.560 N 
ATOM     10  H   LIG    1       -1.700   0.420   1.434  0.00  0.00    +0.430 HD
ATOM     11 BR   LIG    1        2.171   3.377   2.238  0.00  0.00    +0.040 Br
ATOM     12  C   LIG    1        0.180   0.145   0.580  0.00  0.00    +0.330 A 
ATOM     13  N   LIG    1        0.217  -0.918  -0.210  0.00  0.00    -0.510 NA
ATOM     14  C   LIG    1        1.324  -1.248  -0.845  0.00  0.00    +0.530 A 
ATOM     15  N   LIG    1        2.442  -0.560  -0.738  0.00  0.00    -0.510 NA
ENDBRANCH   3   5
BRANCH   1  20
ATOM     16  C   LIG    1        8.483   1.464   0.062  0.00  0.00    -0.060 A 
ATOM     17  C   LIG    1        8.499   2.843   0.150  0.00  0.00    -0.010 A 
ATOM     18  C   LIG    1        7.321   3.560   0.044  0.00  0.00    +0.020 A 
ATOM     19  C   LIG    1        6.125   2.900  -0.155  0.00  0.00    +0.020 A 
ATOM     20  C   LIG    1        6.104   1.513  -0.238  0.00  0.00    +0.140 A 
ATOM     21  C   LIG    1        7.289   0.796  -0.132  0.00  0.00    +0.020 A 
BRANCH  16  23
ATOM     22  C   LIG    1       10.828   1.553   0.865  0.00  0.00    +0.000 C 
ATOM     23  C   LIG    1        9.769   0.687   0.178  0.00  0.00    +0.220 C 
BRANCH  23  24
ATOM     24  N   LIG    1        9.538  -0.526   0.973  0.00  0.00    -0.530 NA
ATOM     25  C   LIG    1        9.140  -0.188   2.348  0.00  0.00    +0.150 C 
ATOM     26  C   LIG    1        8.852  -1.477   3.122  0.00  0.00    +0.220 C 
ATOM     27  O   LIG    1       10.009  -2.318   3.085  0.00  0.00    -0.390 OA
ATOM     28  C   LIG    1       10.424  -2.667   1.762  0.00  0.00    +0.220 C 
ATOM     29  C   LIG    1       10.728  -1.391   0.974  0.00  0.00    +0.150 C 
ENDBRANCH  23  24
ENDBRANCH  16  23
ENDBRANCH   1  20
TORSDOF 4
