REMARK  Name = ZINCkj000005lslB.0
REMARK                            x       y       z     vdW  Elec       q    Type
REMARK                         _______ _______ _______ _____ _____    ______ ____
ROOT
ATOM      1  C   LIG    1        3.474  -4.802   0.819  0.00  0.00    +0.160 C 
ATOM      2  C   LIG    1        4.834  -4.111   0.702  0.00  0.00    +0.050 C 
ATOM      3  C   LIG    1        4.665  -2.607   0.928  0.00  0.00    +0.050 C 
ATOM      4  C   LIG    1        3.737  -2.034  -0.148  0.00  0.00    +0.280 C 
ATOM      5  N   LIG    1        2.478  -2.791  -0.139  0.00  0.00    -0.610 N 
ATOM      6  C   LIG    1        1.295  -2.155  -0.022  0.00  0.00    +0.580 C 
ATOM      7  O   LIG    1        0.267  -2.797   0.077  0.00  0.00    -0.480 OA
ATOM      8  C   LIG    1        2.533  -4.255  -0.253  0.00  0.00    +0.310 C 
ENDROOT
BRANCH   6   9
ATOM      9  C   LIG    1        1.248  -0.680  -0.015  0.00  0.00    -0.080 A 
ATOM     10  C   LIG    1        2.087   0.051  -0.841  0.00  0.00    +0.070 A 
ATOM     11  C   LIG    1        2.047   1.443  -0.839  0.00  0.00    +0.110 A 
ATOM     12  C   LIG    1        1.185   2.122  -0.029  0.00  0.00    +0.080 A 
ATOM     13  C   LIG    1        0.316   1.419   0.825  0.00  0.00    +0.100 A 
ATOM     14  N   LIG    1       -0.532   2.068   1.629  0.00  0.00    -0.420 NA
ATOM     15  C   LIG    1       -1.336   1.388   2.414  0.00  0.00    +0.290 A 
ATOM     16  C   LIG    1       -1.309  -0.007   2.424  0.00  0.00    +0.280 A 
ATOM     17  N   LIG    1       -0.480  -0.667   1.645  0.00  0.00    -0.410 NA
ATOM     18  F   LIG    1        2.876   2.132  -1.654  0.00  0.00    -0.120 F 
ATOM     19  C   LIG    1        0.343   0.003   0.836  0.00  0.00    +0.100 A 
ENDBRANCH   6   9
BRANCH   1  20
ATOM     20  N   LIG    1        3.642  -6.250   0.633  0.00  0.00    -0.630 N 
ATOM     21  H   LIG    1        4.032  -6.428  -0.280  0.00  0.00    +0.430 HD
ATOM     22  H   LIG    1        2.745  -6.705   0.710  0.00  0.00    +0.440 HD
ATOM     23  H   LIG    1        4.264  -6.610   1.341  0.00  0.00    +0.440 HD
ENDBRANCH   1  20
TORSDOF 2
