REMARK  Name = ZINCkj000005hbHR.0
REMARK                            x       y       z     vdW  Elec       q    Type
REMARK                         _______ _______ _______ _____ _____    ______ ____
ROOT
ATOM      1  N   LIG    1        0.561   1.038  -0.660  0.00  0.00    -0.640 N 
ATOM      2  H   LIG    1        0.581   0.075  -0.542  0.00  0.00    +0.420 HD
ATOM      3  C   LIG    1       -0.494   1.620  -1.262  0.00  0.00    +0.590 C 
ATOM      4  O   LIG    1       -0.485   2.817  -1.481  0.00  0.00    -0.510 OA
ENDROOT
BRANCH   1  10
ATOM      5  C   LIG    1        2.445   1.378   0.836  0.00  0.00    +0.280 A 
ATOM      6  N   LIG    1        3.459   2.115   1.257  0.00  0.00    -0.490 NA
ATOM      7  C   LIG    1        3.733   3.290   0.720  0.00  0.00    +0.270 A 
ATOM      8  C   LIG    1        2.969   3.794  -0.313  0.00  0.00    -0.030 A 
ATOM      9  C   LIG    1        1.898   3.053  -0.793  0.00  0.00    +0.090 A 
ATOM     10  C   LIG    1        1.632   1.821  -0.210  0.00  0.00    +0.090 A 
BRANCH   5  12
ATOM     11  C   LIG    1        3.349  -0.309   2.213  0.00  0.00    +0.220 C 
ATOM     12  N   LIG    1        2.190   0.148   1.436  0.00  0.00    -0.490 N 
ATOM     13  C   LIG    1        0.985   0.211   2.275  0.00  0.00    +0.220 C 
ENDBRANCH   5  12
ENDBRANCH   1  10
BRANCH   3  14
ATOM     14  C   LIG    1       -1.658   0.809  -1.655  0.00  0.00    +0.010 A 
ATOM     15  C   LIG    1       -2.752   1.328  -2.257  0.00  0.00    +0.000 A 
ATOM     16  S   LIG    1       -3.870   0.069  -2.552  0.00  0.00    +0.270 S 
ATOM     17  C   LIG    1       -2.817  -1.076  -1.846  0.00  0.00    -0.020 A 
ATOM     18  N   LIG    1       -1.735  -0.508  -1.446  0.00  0.00    -0.420 NA
BRANCH  17  19
ATOM     19  C   LIG    1       -3.115  -2.547  -1.712  0.00  0.00    +0.160 C 
BRANCH  19  20
ATOM     20  C   LIG    1       -3.818  -2.805  -0.378  0.00  0.00    +0.270 C 
BRANCH  20  21
ATOM     21  N   LIG    1       -4.108  -4.240  -0.247  0.00  0.00    -0.640 N 
ATOM     22  H   LIG    1       -4.707  -4.532  -1.005  0.00  0.00    +0.440 HD
ATOM     23  H   LIG    1       -4.572  -4.410   0.633  0.00  0.00    +0.440 HD
ATOM     24  H   LIG    1       -3.245  -4.762  -0.279  0.00  0.00    +0.440 HD
ENDBRANCH  20  21
ENDBRANCH  19  20
ENDBRANCH  17  19
ENDBRANCH   3  14
TORSDOF 6
