REMARK  Name = ZINCpk00000RBQwl.0
REMARK                            x       y       z     vdW  Elec       q    Type
REMARK                         _______ _______ _______ _____ _____    ______ ____
ROOT
ATOM      1  C   LIG    1       -3.690   5.836  -0.535  0.00  0.00    +0.300 C 
ATOM      2  N   LIG    1       -3.804   7.275  -0.334  0.00  0.00    -0.710 N 
ATOM      3  H   LIG    1       -4.431   7.763  -0.890  0.00  0.00    +0.410 HD
ATOM      4  C   LIG    1       -3.100   7.962   0.566  0.00  0.00    +0.520 C 
ATOM      5  C   LIG    1       -2.063   7.342   1.457  0.00  0.00    +0.090 C 
ATOM      6  C   LIG    1       -2.244   5.823   1.492  0.00  0.00    +0.020 C 
ATOM      7  O   LIG    1       -3.310   9.152   0.672  0.00  0.00    -0.550 OA
ATOM      8  C   LIG    1       -2.377   5.316   0.051  0.00  0.00    +0.260 C 
ENDROOT
BRANCH   1  11
ATOM      9  N   LIG    1       -4.177   4.587  -3.926  0.00  0.00    -0.360 N 
ATOM     10  C   LIG    1       -4.390   4.508  -2.596  0.00  0.00    +0.250 A 
ATOM     11  C   LIG    1       -3.730   5.534  -2.011  0.00  0.00    -0.270 A 
ATOM     12  C   LIG    1       -3.096   6.269  -3.019  0.00  0.00    +0.250 A 
ATOM     13  N   LIG    1       -3.359   5.699  -4.167  0.00  0.00    -0.290 NA
BRANCH   9  15
ATOM     14  C   LIG    1       -5.471   4.470  -5.998  0.00  0.00    +0.040 C 
ATOM     15  C   LIG    1       -4.707   3.672  -4.940  0.00  0.00    +0.320 C 
ENDBRANCH   9  15
ENDBRANCH   1  11
BRANCH   8  16
ATOM     16  N   LIG    1       -2.381   3.851   0.044  0.00  0.00    -0.690 N 
ATOM     17  H   LIG    1       -3.222   3.368   0.050  0.00  0.00    +0.410 HD
BRANCH  16  18
ATOM     18  C   LIG    1       -1.183   3.155   0.029  0.00  0.00    +0.450 A 
ATOM     19  N   LIG    1       -0.039   3.824   0.022  0.00  0.00    -0.530 NA
ATOM     20  C   LIG    1        1.123   3.204   0.008  0.00  0.00    +0.370 A 
ATOM     21  C   LIG    1        1.184   1.810   0.001  0.00  0.00    -0.250 A 
ATOM     22  C   LIG    1       -0.013   1.076   0.008  0.00  0.00    +0.200 A 
ATOM     23  C   LIG    1       -1.199   1.760   0.017  0.00  0.00    -0.160 A 
ATOM     24 CL   LIG    1       -2.707   0.900   0.020  0.00  0.00    -0.050 Cl
BRANCH  21  25
ATOM     25  C   LIG    1        2.486   1.118  -0.015  0.00  0.00    +0.580 C 
ATOM     26  O   LIG    1        2.529  -0.098  -0.021  0.00  0.00    -0.540 OA
ATOM     27  N   LIG    1        3.629   1.832  -0.022  0.00  0.00    -0.850 N 
ATOM     28  H   LIG    1        4.486   1.377  -0.032  0.00  0.00    +0.410 HD
ATOM     29  H   LIG    1        3.595   2.801  -0.017  0.00  0.00    +0.400 HD
ENDBRANCH  21  25
ENDBRANCH  16  18
ENDBRANCH   8  16
TORSDOF 5
