REMARK  Name = ZINCrg000000nFug.0
REMARK                            x       y       z     vdW  Elec       q    Type
REMARK                         _______ _______ _______ _____ _____    ______ ____
ROOT
ATOM      1  S   LIG    1        3.801   0.909  -0.030  0.00  0.00    +0.070 S 
ENDROOT
BRANCH   1   2
ATOM      2  C   LIG    1        2.045   0.771  -0.013  0.00  0.00    +0.100 A 
ATOM      3  N   LIG    1        1.186   1.764   0.000  0.00  0.00    -0.280 NA
ATOM      4  N   LIG    1       -0.016   1.308   0.009  0.00  0.00    -0.280 NA
ATOM      5  C   LIG    1        0.002  -0.004   0.002  0.00  0.00    +0.310 A 
ATOM      6  N   LIG    1        1.322  -0.390  -0.013  0.00  0.00    -0.300 N 
BRANCH   5   7
ATOM      7  C   LIG    1       -1.175  -0.899   0.008  0.00  0.00    -0.140 A 
ATOM      8  C   LIG    1       -2.485  -0.533   0.028  0.00  0.00    +0.070 A 
ATOM      9  O   LIG    1       -3.236  -1.645   0.024  0.00  0.00    -0.170 OA
ATOM     10  C   LIG    1       -2.463  -2.741   0.011  0.00  0.00    +0.170 A 
ATOM     11  C   LIG    1       -3.005   0.881   0.048  0.00  0.00    +0.200 C 
ATOM     12  C   LIG    1       -1.173  -2.368   0.000  0.00  0.00    -0.020 A 
ENDBRANCH   5   7
BRANCH   6  13
ATOM     13  N   LIG    1        1.810  -1.666  -0.024  0.00  0.00    -0.580 N 
ATOM     14  H   LIG    1        2.674  -1.727   0.494  0.00  0.00    +0.380 HD
ATOM     15  H   LIG    1        1.929  -1.999  -0.968  0.00  0.00    +0.370 HD
ENDBRANCH   6  13
ENDBRANCH   1   2
BRANCH   1  16
ATOM     16  C   LIG    1        3.976   2.710  -0.022  0.00  0.00    +0.120 C 
BRANCH  16  18
ATOM     17  N   LIG    1        5.811   4.369  -0.031  0.00  0.00    -0.590 N 
ATOM     18  C   LIG    1        5.438   3.074  -0.034  0.00  0.00    +0.540 C 
ATOM     19  O   LIG    1        6.280   2.200  -0.048  0.00  0.00    -0.520 OA
BRANCH  17  20
ATOM     20  C   LIG    1        7.232   4.722  -0.043  0.00  0.00    +0.280 C 
ATOM     21  C   LIG    1        7.920   4.096  -1.269  0.00  0.00    +0.070 C 
ATOM     22  C   LIG    1        9.448   4.190  -1.080  0.00  0.00    -0.310 C 
ATOM     23  S   LIG    1        9.705   4.185   0.731  0.00  0.00    +2.390 S 
ATOM     24  O   LIG    1       10.330   2.969   1.115  0.00  0.00    -0.930 OA
ATOM     25  O   LIG    1       10.266   5.428   1.130  0.00  0.00    -0.930 OA
ATOM     26  C   LIG    1        7.936   4.136   1.208  0.00  0.00    -0.310 C 
ENDBRANCH  17  20
BRANCH  17  27
ATOM     27  C   LIG    1        4.794   5.423  -0.015  0.00  0.00    +0.280 C 
BRANCH  27  29
ATOM     28  C   LIG    1        3.393   6.884   1.450  0.00  0.00    +0.030 C 
ATOM     29  C   LIG    1        4.455   5.782   1.433  0.00  0.00    -0.010 C 
ENDBRANCH  27  29
ENDBRANCH  17  27
ENDBRANCH  16  18
ENDBRANCH   1  16
TORSDOF 8
