REMARK  Name = ZINCqH0000038rZa.0
REMARK                            x       y       z     vdW  Elec       q    Type
REMARK                         _______ _______ _______ _____ _____    ______ ____
ROOT
ATOM      1  C   LIG    1       -1.284   2.445  -2.369  0.00  0.00    +0.140 A 
ATOM      2  C   LIG    1       -0.076   2.340  -1.682  0.00  0.00    +0.050 A 
ATOM      3  C   LIG    1        1.107   2.185  -2.371  0.00  0.00    +0.050 A 
ATOM      4  C   LIG    1        1.101   2.145  -3.758  0.00  0.00    +0.050 A 
ATOM      5  N   LIG    1        2.089   2.009  -4.716  0.00  0.00    -0.590 N 
ATOM      6  H   LIG    1        3.040   1.910  -4.553  0.00  0.00    +0.430 HD
ATOM      7  C   LIG    1        1.473   2.039  -5.938  0.00  0.00    +0.320 A 
ATOM      8  N   LIG    1        0.181   2.183  -5.781  0.00  0.00    -0.470 NA
ATOM      9  C   LIG    1       -0.113   2.255  -4.460  0.00  0.00    +0.070 A 
ATOM     10  C   LIG    1       -1.308   2.406  -3.750  0.00  0.00    +0.070 A 
ENDROOT
BRANCH   7  11
ATOM     11  C   LIG    1        2.164   1.924  -7.242  0.00  0.00    +0.020 A 
ATOM     12  C   LIG    1        3.554   1.777  -7.308  0.00  0.00    -0.030 A 
ATOM     13  C   LIG    1        4.157   1.667  -8.545  0.00  0.00    +0.270 A 
ATOM     14  N   LIG    1        3.442   1.711  -9.653  0.00  0.00    -0.470 NA
ATOM     15  C   LIG    1        2.131   1.854  -9.635  0.00  0.00    +0.280 A 
ATOM     16  C   LIG    1        1.447   1.965  -8.442  0.00  0.00    +0.020 A 
ENDBRANCH   7  11
BRANCH   1  17
ATOM     17  N   LIG    1       -2.478   2.596  -1.656  0.00  0.00    -1.050 N 
ATOM     18  H   LIG    1       -3.122   3.269  -1.926  0.00  0.00    +0.430 HD
BRANCH  17  19
ATOM     19  S   LIG    1       -2.793   1.626  -0.351  0.00  0.00    +2.690 S 
ATOM     20  O   LIG    1       -1.660   1.720   0.501  0.00  0.00    -0.950 OA
ATOM     21  O   LIG    1       -4.112   1.938   0.072  0.00  0.00    -0.950 OA
BRANCH  19  28
ATOM     22  C   LIG    1       -4.852   0.564  -2.297  0.00  0.00    +0.110 C 
ATOM     23  C   LIG    1       -3.820  -0.428  -1.827  0.00  0.00    +0.020 A 
ATOM     24  C   LIG    1       -3.853  -1.730  -2.290  0.00  0.00    -0.010 A 
ATOM     25  C   LIG    1       -2.906  -2.641  -1.859  0.00  0.00    +0.070 A 
ATOM     26  C   LIG    1       -1.928  -2.250  -0.964  0.00  0.00    -0.020 A 
ATOM     27  C   LIG    1       -1.895  -0.948  -0.501  0.00  0.00    +0.130 A 
ATOM     28  C   LIG    1       -2.838  -0.036  -0.936  0.00  0.00    -0.680 A 
ENDBRANCH  19  28
ENDBRANCH  17  19
ENDBRANCH   1  17
TORSDOF 4
