REMARK  Name = ZINCqH0000038rZa.1
REMARK                            x       y       z     vdW  Elec       q    Type
REMARK                         _______ _______ _______ _____ _____    ______ ____
ROOT
ATOM      1  C   LIG    1        1.161   3.422  -0.062  0.00  0.00    +0.170 A 
ATOM      2  C   LIG    1        0.981   2.039  -0.067  0.00  0.00    +0.010 A 
ATOM      3  C   LIG    1       -0.272   1.502  -0.135  0.00  0.00    +0.110 A 
ATOM      4  C   LIG    1       -1.390   2.341  -0.205  0.00  0.00    +0.040 A 
ATOM      5  N   LIG    1       -2.723   2.110  -0.273  0.00  0.00    -0.460 NA
ATOM      6  C   LIG    1       -3.367   3.249  -0.312  0.00  0.00    +0.320 A 
ATOM      7  N   LIG    1       -2.475   4.288  -0.267  0.00  0.00    -0.590 N 
ATOM      8  H   LIG    1       -2.691   5.234  -0.282  0.00  0.00    +0.430 HD
ATOM      9  C   LIG    1       -1.211   3.737  -0.195  0.00  0.00    +0.070 A 
ATOM     10  C   LIG    1        0.068   4.270  -0.126  0.00  0.00    +0.000 A 
ENDROOT
BRANCH   6  11
ATOM     11  C   LIG    1       -4.837   3.393  -0.395  0.00  0.00    +0.020 A 
ATOM     12  C   LIG    1       -5.435   4.658  -0.427  0.00  0.00    -0.030 A 
ATOM     13  C   LIG    1       -6.810   4.746  -0.509  0.00  0.00    +0.270 A 
ATOM     14  N   LIG    1       -7.557   3.660  -0.547  0.00  0.00    -0.480 NA
ATOM     15  C   LIG    1       -7.035   2.449  -0.513  0.00  0.00    +0.280 A 
ATOM     16  C   LIG    1       -5.669   2.269  -0.437  0.00  0.00    +0.020 A 
ENDBRANCH   6  11
BRANCH   1  17
ATOM     17  N   LIG    1        2.451   3.954   0.008  0.00  0.00    -1.050 N 
ATOM     18  H   LIG    1        2.642   4.687   0.614  0.00  0.00    +0.430 HD
BRANCH  17  19
ATOM     19  S   LIG    1        3.656   3.334  -0.945  0.00  0.00    +2.690 S 
ATOM     20  O   LIG    1        3.635   1.926  -0.752  0.00  0.00    -0.950 OA
ATOM     21  O   LIG    1        4.807   4.133  -0.708  0.00  0.00    -0.940 OA
BRANCH  19  28
ATOM     22  C   LIG    1        3.410   6.073  -2.205  0.00  0.00    +0.090 C 
ATOM     23  C   LIG    1        3.106   4.905  -3.108  0.00  0.00    +0.020 A 
ATOM     24  C   LIG    1        2.746   5.124  -4.425  0.00  0.00    -0.010 A 
ATOM     25  C   LIG    1        2.463   4.053  -5.252  0.00  0.00    +0.070 A 
ATOM     26  C   LIG    1        2.544   2.763  -4.763  0.00  0.00    -0.020 A 
ATOM     27  C   LIG    1        2.908   2.543  -3.448  0.00  0.00    +0.140 A 
ATOM     28  C   LIG    1        3.192   3.614  -2.621  0.00  0.00    -0.680 A 
ENDBRANCH  19  28
ENDBRANCH  17  19
ENDBRANCH   1  17
TORSDOF 4
