REMARK  Name = ZINCrD00000l3Jl5.0
REMARK                            x       y       z     vdW  Elec       q    Type
REMARK                         _______ _______ _______ _____ _____    ______ ____
ROOT
ATOM      1  C   LIG    1        7.343  -0.282  -0.094  0.00  0.00    +0.510 C 
ATOM      2  O   LIG    1        7.476   0.915  -0.249  0.00  0.00    -0.500 OA
ENDROOT
BRANCH   1   3
ATOM      3  C   LIG    1        8.524  -1.164  -0.105  0.00  0.00    -0.140 A 
ATOM      4  C   LIG    1        8.373  -2.542   0.079  0.00  0.00    +0.110 A 
ATOM      5  C   LIG    1        9.478  -3.362   0.064  0.00  0.00    -0.020 A 
ATOM      6  C   LIG    1       10.746  -2.821  -0.125  0.00  0.00    +0.180 A 
ATOM      7  C   LIG    1       10.901  -1.450  -0.304  0.00  0.00    +0.010 A 
ATOM      8  C   LIG    1        9.800  -0.624  -0.294  0.00  0.00    +0.110 A 
BRANCH   6   9
ATOM      9  N   LIG    1       11.864  -3.654  -0.134  0.00  0.00    -0.670 N 
ATOM     10  H   LIG    1       11.794  -4.554  -0.490  0.00  0.00    +0.420 HD
ATOM     11  C   LIG    1       13.040  -3.210   0.350  0.00  0.00    +0.520 C 
ATOM     12  O   LIG    1       13.104  -2.121   0.882  0.00  0.00    -0.500 OA
BRANCH  11  13
ATOM     13  C   LIG    1       14.275  -4.065   0.233  0.00  0.00    +0.260 C 
BRANCH  13  14
ATOM     14  C   LIG    1       15.419  -3.360   0.833  0.00  0.00    +0.210 C 
ATOM     15  N   LIG    1       16.302  -2.816   1.297  0.00  0.00    -0.400 NA
ENDBRANCH  13  14
ENDBRANCH  11  13
ENDBRANCH   6   9
ENDBRANCH   1   3
BRANCH   1  16
ATOM     16  O   LIG    1        6.114  -0.805   0.089  0.00  0.00    -0.330 OA
BRANCH  16  17
ATOM     17  C   LIG    1        4.997   0.122   0.089  0.00  0.00    +0.240 C 
BRANCH  17  18
ATOM     18  C   LIG    1        3.713  -0.637   0.305  0.00  0.00    +0.400 C 
ATOM     19  O   LIG    1        3.738  -1.842   0.446  0.00  0.00    -0.420 OA
BRANCH  18  23
ATOM     20  C   LIG    1        0.016   1.436   0.421  0.00  0.00    +0.190 A 
ATOM     21  C   LIG    1        1.199   2.139   0.221  0.00  0.00    -0.060 A 
ATOM     22  C   LIG    1        2.402   1.471   0.183  0.00  0.00    +0.120 A 
ATOM     23  C   LIG    1        2.433   0.080   0.346  0.00  0.00    -0.200 A 
ATOM     24  C   LIG    1        1.239  -0.624   0.547  0.00  0.00    +0.160 A 
ATOM     25  C   LIG    1        0.041   0.054   0.583  0.00  0.00    -0.140 A 
ATOM     26 BR   LIG    1       -1.572  -0.894   0.854  0.00  0.00    -0.020 Br
BRANCH  20  28
ATOM     27  C   LIG    1       -1.121   3.517   0.278  0.00  0.00    +0.250 C 
ATOM     28  O   LIG    1       -1.167   2.099   0.452  0.00  0.00    -0.300 OA
ENDBRANCH  20  28
ENDBRANCH  18  23
ENDBRANCH  17  18
ENDBRANCH  16  17
ENDBRANCH   1  16
TORSDOF 9
