REMARK  Name = ZINCrD000000AthU.0
REMARK                            x       y       z     vdW  Elec       q    Type
REMARK                         _______ _______ _______ _____ _____    ______ ____
ROOT
ATOM      1  C   LIG    1        0.425   1.387  -2.831  0.00  0.00    +0.360 A 
ATOM      2  N   LIG    1        1.483   0.687  -2.499  0.00  0.00    -0.510 NA
ATOM      3  C   LIG    1        1.996  -0.248  -3.326  0.00  0.00    +0.090 A 
ATOM      4  C   LIG    1        1.405  -0.472  -4.560  0.00  0.00    -0.220 A 
ATOM      5  C   LIG    1        2.088  -1.512  -5.336  0.00  0.00    -0.050 A 
ATOM      6  C   LIG    1        3.135  -2.042  -4.719  0.00  0.00    -0.230 A 
ATOM      7  C   LIG    1        3.785  -3.111  -5.592  0.00  0.00    +0.130 C 
ATOM      8  C   LIG    1        3.247  -2.843  -7.012  0.00  0.00    +0.050 C 
ATOM      9  C   LIG    1        1.899  -2.160  -6.707  0.00  0.00    +0.100 C 
ATOM     10  C   LIG    1        0.258   0.299  -4.912  0.00  0.00    +0.560 A 
ATOM     11  O   LIG    1       -0.295   0.137  -5.986  0.00  0.00    -0.500 OA
ATOM     12  S   LIG    1        3.378  -1.314  -3.132  0.00  0.00    +0.220 S 
ATOM     13  N   LIG    1       -0.203   1.211  -4.033  0.00  0.00    -0.470 N 
ENDROOT
BRANCH  13  14
ATOM     14  C   LIG    1       -1.328   1.983  -4.352  0.00  0.00    +0.090 A 
ATOM     15  C   LIG    1       -2.598   1.531  -4.021  0.00  0.00    +0.040 A 
ATOM     16  C   LIG    1       -3.705   2.296  -4.333  0.00  0.00    +0.030 A 
ATOM     17  C   LIG    1       -3.549   3.506  -4.984  0.00  0.00    +0.030 A 
ATOM     18  C   LIG    1       -2.286   3.956  -5.320  0.00  0.00    +0.030 A 
ATOM     19  C   LIG    1       -1.175   3.198  -5.006  0.00  0.00    +0.040 A 
ENDBRANCH  13  14
BRANCH   1  20
ATOM     20  S   LIG    1       -0.200   2.588  -1.703  0.00  0.00    +0.110 S 
BRANCH  20  21
ATOM     21  C   LIG    1        0.978   2.385  -0.344  0.00  0.00    +0.100 C 
BRANCH  21  23
ATOM     22  O   LIG    1       -0.320   4.085   0.654  0.00  0.00    -0.520 OA
ATOM     23  C   LIG    1        0.631   3.340   0.769  0.00  0.00    +0.540 C 
ATOM     24  N   LIG    1        1.377   3.367   1.891  0.00  0.00    -0.690 N 
ATOM     25  H   LIG    1        2.137   2.772   1.983  0.00  0.00    +0.410 HD
BRANCH  24  26
ATOM     26  C   LIG    1        1.039   4.296   2.973  0.00  0.00    +0.220 C 
ATOM     27  C   LIG    1        2.189   5.056   3.636  0.00  0.00    +0.020 C 
ATOM     28  C   LIG    1        1.485   3.924   4.388  0.00  0.00    +0.020 C 
ENDBRANCH  24  26
ENDBRANCH  21  23
ENDBRANCH  20  21
ENDBRANCH   1  20
TORSDOF 5
