REMARK  Name = ZINCpe00000MJJ42.0
REMARK                            x       y       z     vdW  Elec       q    Type
REMARK                         _______ _______ _______ _____ _____    ______ ____
ROOT
ATOM      1  C   LIG    1        3.236   4.687   3.268  0.00  0.00    +0.590 C 
ATOM      2  N   LIG    1        3.019   4.681   1.938  0.00  0.00    -0.720 N 
ATOM      3  H   LIG    1        3.751   4.504   1.328  0.00  0.00    +0.400 HD
ATOM      4  O   LIG    1        2.341   5.000   4.030  0.00  0.00    -0.530 OA
ENDROOT
BRANCH   1   8
ATOM      5  C   LIG    1        7.900   3.515   2.428  0.00  0.00    +0.320 C 
ATOM      6  N   LIG    1        6.832   3.741   3.405  0.00  0.00    -0.520 N 
ATOM      7  C   LIG    1        5.600   4.081   2.954  0.00  0.00    +0.330 A 
ATOM      8  C   LIG    1        4.556   4.314   3.799  0.00  0.00    -0.220 A 
ATOM      9  C   LIG    1        4.767   4.180   5.251  0.00  0.00    +0.020 A 
ATOM     10  C   LIG    1        3.743   4.399   6.167  0.00  0.00    +0.050 A 
ATOM     11  C   LIG    1        3.995   4.261   7.516  0.00  0.00    +0.050 A 
ATOM     12  C   LIG    1        5.259   3.907   7.967  0.00  0.00    +0.000 A 
ATOM     13  C   LIG    1        6.288   3.686   7.077  0.00  0.00    +0.090 A 
ATOM     14  C   LIG    1        6.053   3.820   5.709  0.00  0.00    -0.150 A 
ATOM     15  C   LIG    1        7.111   3.598   4.714  0.00  0.00    +0.550 A 
ATOM     16  O   LIG    1        8.232   3.287   5.071  0.00  0.00    -0.510 OA
ENDBRANCH   1   8
BRANCH   2  17
ATOM     17  C   LIG    1        1.676   4.943   1.415  0.00  0.00    +0.260 C 
ATOM     18  C   LIG    1        1.531   6.322   0.747  0.00  0.00    +0.020 C 
ATOM     19  C   LIG    1        0.673   5.627  -0.324  0.00  0.00    +0.180 C 
ATOM     20  C   LIG    1        1.426   4.333   0.025  0.00  0.00    +0.270 C 
BRANCH  20  21
ATOM     21  N   LIG    1        0.570   3.144   0.051  0.00  0.00    -0.370 N 
ATOM     22  C   LIG    1       -0.779   3.138   0.070  0.00  0.00    +0.220 A 
ATOM     23  C   LIG    1       -1.185   1.847   0.085  0.00  0.00    -0.120 A 
ATOM     24  C   LIG    1       -0.045   1.037   0.084  0.00  0.00    +0.230 A 
ATOM     25  N   LIG    1        1.008   1.814   0.060  0.00  0.00    -0.290 NA
ENDBRANCH  20  21
BRANCH  19  26
ATOM     26  O   LIG    1        0.922   6.094  -1.651  0.00  0.00    -0.550 OA
ATOM     27  H   LIG    1        0.451   6.908  -1.877  0.00  0.00    +0.390 HD
ENDBRANCH  19  26
ENDBRANCH   2  17
TORSDOF 4
