REMARK  Name = ZINCpe000000YTQw.0
REMARK                            x       y       z     vdW  Elec       q    Type
REMARK                         _______ _______ _______ _____ _____    ______ ____
ROOT
ATOM      1  O   UNK A  0        2.005   1.761  -0.175  0.00  0.00    -0.540 OA
ATOM      2  C   UNK A  0        0.985   2.413  -0.256  0.00  0.00    +0.520 C 
ATOM      3  N   PHE A  1       -0.209   1.791  -0.318  0.00  0.00    -0.690 N 
ATOM      4  H   PHE A  1       -1.024   2.312  -0.387  0.00  0.00    +0.390 HD
ENDROOT
BRANCH   3   5
ATOM      5  CA  PHE A  1       -0.276   0.328  -0.287  0.00  0.00    +0.170 C 
BRANCH   5   6
ATOM      6  C   PHE A  1       -0.084  -0.213  -1.681  0.00  0.00    +0.490 C 
ATOM      7  OXT PHE A  1       -0.105  -1.417  -1.875  0.00  0.00    -0.690 OA
ATOM      8  O   PHE A  1        0.091   0.552  -2.613  0.00  0.00    -0.680 OA
ENDBRANCH   5   6
BRANCH   5   9
ATOM      9  CB  PHE A  1       -1.641  -0.109   0.247  0.00  0.00    +0.090 C 
BRANCH   9  10
ATOM     10  CG  PHE A  1       -1.782   0.327   1.682  0.00  0.00    -0.070 A 
ATOM     11  CD2 PHE A  1       -1.378  -0.514   2.703  0.00  0.00    +0.000 A 
ATOM     12  CE2 PHE A  1       -1.503  -0.112   4.020  0.00  0.00    +0.000 A 
ATOM     13  CZ  PHE A  1       -2.042   1.126   4.316  0.00  0.00    -0.010 A 
ATOM     14  CE1 PHE A  1       -2.451   1.965   3.296  0.00  0.00    +0.000 A 
ATOM     15  CD1 PHE A  1       -2.321   1.565   1.979  0.00  0.00    +0.000 A 
ENDBRANCH   9  10
ENDBRANCH   5   9
ENDBRANCH   3   5
BRANCH   2  16
ATOM     16  C   UNK A  0        1.054   3.918  -0.288  0.00  0.00    +0.220 C 
BRANCH  16  17
ATOM     17  N   UNK A  0        2.457   4.346  -0.208  0.00  0.00    -0.520 NA
ATOM     18  C   UNK A  0        3.039   4.002   1.097  0.00  0.00    +0.210 C 
ATOM     19  C   UNK A  0        4.514   4.410   1.117  0.00  0.00    +0.270 C 
ATOM     20  N   UNK A  0        4.626   5.855   0.877  0.00  0.00    -0.380 N 
ATOM     21  C   UNK A  0        4.063   6.179  -0.440  0.00  0.00    +0.270 C 
ATOM     22  H   UNK A  0        4.119   6.355   1.592  0.00  0.00    +0.420 HD
ATOM     23  C   UNK A  0        2.584   5.786  -0.474  0.00  0.00    +0.210 C 
BRANCH  20  24
ATOM     24  C   UNK A  0        6.041   6.249   0.915  0.00  0.00    +0.290 C 
BRANCH  24  25
ATOM     25  C   UNK A  0        6.835   5.394  -0.075  0.00  0.00    -0.080 C 
ATOM     26  C   UNK A  0        7.915   4.473   0.496  0.00  0.00    +0.040 C 
ATOM     27  C   UNK A  0        8.313   5.733  -0.275  0.00  0.00    +0.060 C 
ENDBRANCH  24  25
ENDBRANCH  20  24
ENDBRANCH  16  17
ENDBRANCH   2  16
TORSDOF 8
