REMARK  Name = ZINCvU00000005nd.0
REMARK                            x       y       z     vdW  Elec       q    Type
REMARK                         _______ _______ _______ _____ _____    ______ ____
ROOT
ATOM      1  C   LIG    1       -6.004  -2.438  -1.690  0.00  0.00    +0.250 A 
ATOM      2  N   LIG    1       -7.078  -2.589  -2.443  0.00  0.00    -0.230 NA
ATOM      3  N   LIG    1       -7.410  -1.464  -2.972  0.00  0.00    -0.240 NA
ATOM      4  C   LIG    1       -6.560  -0.523  -2.584  0.00  0.00    +0.120 A 
ATOM      5  C   LIG    1       -6.449   0.854  -2.851  0.00  0.00    +0.210 A 
ATOM      6  C   LIG    1       -5.435   1.559  -2.281  0.00  0.00    -0.020 A 
ATOM      7  C   LIG    1       -4.512   0.912  -1.437  0.00  0.00    +0.420 A 
ATOM      8  N   LIG    1       -4.612  -0.374  -1.192  0.00  0.00    -0.330 NA
ATOM      9  N   LIG    1       -5.644  -1.124  -1.757  0.00  0.00    -0.270 N 
ENDROOT
BRANCH   1  16
ATOM     10  F   LIG    1       -6.897  -5.112  -1.671  0.00  0.00    -0.110 F 
ATOM     11  C   LIG    1       -5.802  -4.807  -0.942  0.00  0.00    +0.140 A 
ATOM     12  C   LIG    1       -5.155  -5.790  -0.218  0.00  0.00    -0.010 A 
ATOM     13  C   LIG    1       -4.033  -5.478   0.528  0.00  0.00    +0.070 A 
ATOM     14  C   LIG    1       -3.551  -4.181   0.555  0.00  0.00    +0.010 A 
ATOM     15  C   LIG    1       -4.183  -3.190  -0.167  0.00  0.00    +0.090 A 
ATOM     16  C   LIG    1       -5.319  -3.495  -0.918  0.00  0.00    -0.060 A 
ENDBRANCH   1  16
BRANCH   7  17
ATOM     17  N   LIG    1       -3.479   1.644  -0.860  0.00  0.00    -0.690 N 
ATOM     18  H   LIG    1       -3.397   2.593  -1.041  0.00  0.00    +0.420 HD
BRANCH  17  19
ATOM     19  C   LIG    1       -2.514   0.980   0.019  0.00  0.00    +0.370 C 
BRANCH  19  20
ATOM     20  C   LIG    1       -1.219   1.751   0.017  0.00  0.00    -0.070 A 
ATOM     21  C   LIG    1       -1.238   3.133   0.030  0.00  0.00    +0.020 A 
ATOM     22  C   LIG    1       -0.050   3.841   0.022  0.00  0.00    +0.040 A 
ATOM     23  C   LIG    1        1.156   3.167   0.007  0.00  0.00    +0.040 A 
ATOM     24  C   LIG    1        1.176   1.784   0.000  0.00  0.00    -0.030 A 
ATOM     25 CL   LIG    1        2.691   0.937  -0.017  0.00  0.00    -0.060 Cl
ATOM     26  C   LIG    1       -0.013   1.076   0.008  0.00  0.00    +0.060 A 
ENDBRANCH  19  20
BRANCH  19  27
ATOM     27  C   LIG    1       -3.065   0.927   1.421  0.00  0.00    +0.120 A 
ATOM     28  C   LIG    1       -4.350   1.371   1.666  0.00  0.00    -0.030 A 
ATOM     29  C   LIG    1       -4.848   1.318   2.960  0.00  0.00    +0.060 A 
ATOM     30  C   LIG    1       -4.030   0.819   3.961  0.00  0.00    -0.030 A 
ATOM     31  C   LIG    1       -2.755   0.393   3.640  0.00  0.00    +0.270 A 
ATOM     32  N   LIG    1       -2.317   0.453   2.398  0.00  0.00    -0.470 NA
ENDBRANCH  19  27
ENDBRANCH  17  19
ENDBRANCH   7  17
TORSDOF 5
