REMARK  Name = ZINCpk00000y6w5P.0
REMARK                            x       y       z     vdW  Elec       q    Type
REMARK                         _______ _______ _______ _____ _____    ______ ____
ROOT
ATOM      1  C   LIG    1       -1.349   2.073  -2.197  0.00  0.00    +0.300 C 
ENDROOT
BRANCH   1   6
ATOM      2  C   LIG    1       -2.137   1.939   0.187  0.00  0.00    +0.090 C 
ATOM      3  C   LIG    1       -2.836   0.651   0.684  0.00  0.00    +0.020 C 
ATOM      4  C   LIG    1       -3.990   0.492  -0.338  0.00  0.00    +0.210 C 
ATOM      5  O   LIG    1       -3.400   0.923  -1.583  0.00  0.00    -0.350 OA
ATOM      6  C   LIG    1       -2.578   2.064  -1.285  0.00  0.00    +0.150 C 
BRANCH   2  11
ATOM      7  C   LIG    1        2.548   0.052   0.265  0.00  0.00    +0.200 C 
ATOM      8  C   LIG    1        1.368   0.988   0.310  0.00  0.00    +0.180 A 
ATOM      9  N   LIG    1        1.412   2.280   0.489  0.00  0.00    -0.290 NA
ATOM     10  N   LIG    1        0.219   2.760   0.471  0.00  0.00    -0.280 NA
ATOM     11  C   LIG    1       -0.640   1.796   0.279  0.00  0.00    +0.180 A 
ATOM     12  N   LIG    1        0.065   0.644   0.171  0.00  0.00    -0.580 N 
ATOM     13  H   LIG    1       -0.291  -0.246   0.024  0.00  0.00    +0.430 HD
ENDBRANCH   2  11
ENDBRANCH   1   6
BRANCH   1  14
ATOM     14  N   LIG    1       -1.770   2.312  -3.580  0.00  0.00    -0.610 N 
ATOM     15  C   LIG    1       -2.076   1.271  -4.380  0.00  0.00    +0.570 C 
ATOM     16  O   LIG    1       -2.105   0.143  -3.926  0.00  0.00    -0.510 OA
ATOM     17  C   LIG    1       -1.857   3.681  -4.093  0.00  0.00    +0.280 C 
BRANCH  15  18
ATOM     18  C   LIG    1       -2.376   1.500  -5.804  0.00  0.00    -0.150 A 
ATOM     19  C   LIG    1       -3.305   0.713  -6.465  0.00  0.00    +0.170 A 
ATOM     20  C   LIG    1       -3.568   0.963  -7.820  0.00  0.00    -0.020 A 
ATOM     21  C   LIG    1       -4.417   0.376  -8.743  0.00  0.00    +0.200 A 
ATOM     22  N   LIG    1       -4.253   1.016  -9.899  0.00  0.00    -0.460 NA
ATOM     23  C   LIG    1       -3.360   1.964  -9.761  0.00  0.00    +0.370 A 
ATOM     24  N   LIG    1       -2.904   1.973  -8.491  0.00  0.00    -0.370 N 
ATOM     25  C   LIG    1       -1.978   2.756  -7.846  0.00  0.00    +0.210 A 
ATOM     26  C   LIG    1       -1.693   2.562  -6.549  0.00  0.00    +0.040 A 
ENDBRANCH  15  18
ENDBRANCH   1  14
TORSDOF 4
