REMARK  Name = ZINCrg000000tco0.0
REMARK                            x       y       z     vdW  Elec       q    Type
REMARK                         _______ _______ _______ _____ _____    ______ ____
ROOT
ATOM      1  O   LIG    1       -1.348   3.410   3.922  0.00  0.00    -0.520 OA
ATOM      2  C   LIG    1       -0.140   3.353   4.004  0.00  0.00    +0.500 C 
ATOM      3  N   LIG    1        0.465   3.541   5.194  0.00  0.00    -0.610 N 
ATOM      4  C   LIG    1        1.928   3.469   5.309  0.00  0.00    +0.270 C 
ATOM      5  C   LIG    1        2.431   4.779   5.938  0.00  0.00    +0.300 C 
ATOM      6  N   LIG    1        1.638   5.054   7.145  0.00  0.00    -0.990 NA
ATOM      7  C   LIG    1        0.174   5.120   7.030  0.00  0.00    +0.300 C 
ATOM      8  C   LIG    1       -0.328   3.815   6.400  0.00  0.00    +0.280 C 
ENDROOT
BRANCH   6   9
ATOM      9  S   LIG    1        2.380   5.283   8.607  0.00  0.00    +2.690 S 
ATOM     10  O   LIG    1        1.478   6.041   9.401  0.00  0.00    -0.940 OA
ATOM     11  O   LIG    1        3.707   5.705   8.322  0.00  0.00    -0.950 OA
BRANCH   9  12
ATOM     12  C   LIG    1        2.515   3.704   9.377  0.00  0.00    -0.720 A 
ATOM     13  C   LIG    1        3.760   3.151   9.605  0.00  0.00    +0.150 A 
ATOM     14  C   LIG    1        3.866   1.914  10.215  0.00  0.00    -0.010 A 
ATOM     15  C   LIG    1        2.727   1.226  10.587  0.00  0.00    +0.100 A 
ATOM     16  C   LIG    1        1.480   1.775  10.355  0.00  0.00    -0.020 A 
ATOM     17  C   LIG    1        1.373   3.016   9.749  0.00  0.00    +0.190 A 
ATOM     18  F   LIG    1        0.154   3.554   9.522  0.00  0.00    -0.120 F 
ENDBRANCH   9  12
ENDBRANCH   6   9
BRANCH   2  19
ATOM     19  C   LIG    1        0.687   3.073   2.775  0.00  0.00    +0.320 C 
BRANCH  19  20
ATOM     20  N   LIG    1       -0.198   2.908   1.619  0.00  0.00    -0.590 N 
ATOM     21  C   LIG    1       -0.715   1.572   1.277  0.00  0.00    +0.270 C 
ATOM     22  C   LIG    1       -0.013   1.086   0.008  0.00  0.00    +0.010 C 
ATOM     23  C   LIG    1       -0.733   1.582  -1.232  0.00  0.00    +0.020 C 
ATOM     24  C   LIG    1       -0.662   3.086  -1.422  0.00  0.00    +0.040 C 
ATOM     25  C   LIG    1       -1.439   3.809  -0.318  0.00  0.00    +0.050 C 
ATOM     26  C   LIG    1       -0.530   3.969   0.883  0.00  0.00    +0.520 C 
ATOM     27  O   LIG    1       -0.103   5.066   1.176  0.00  0.00    -0.550 OA
ENDBRANCH  19  20
ENDBRANCH   2  19
TORSDOF 4
