REMARK  Name = ZINCpk00000eaCb3.0
REMARK                            x       y       z     vdW  Elec       q    Type
REMARK                         _______ _______ _______ _____ _____    ______ ____
ROOT
ATOM      1  N   LIG    1        0.615   3.057   3.654  0.00  0.00    -0.710 N 
ATOM      2  H   LIG    1        1.008   3.807   3.181  0.00  0.00    +0.400 HD
ATOM      3  C   LIG    1        1.407   2.172   4.291  0.00  0.00    +0.560 C 
ATOM      4  O   LIG    1        0.914   1.231   4.883  0.00  0.00    -0.540 OA
ENDROOT
BRANCH   3   5
ATOM      5  C   LIG    1        2.873   2.346   4.271  0.00  0.00    -0.180 A 
ATOM      6  C   LIG    1        3.441   3.423   3.586  0.00  0.00    +0.090 A 
ATOM      7  C   LIG    1        4.809   3.585   3.575  0.00  0.00    -0.090 A 
ATOM      8  C   LIG    1        5.624   2.671   4.233  0.00  0.00    +0.160 A 
ATOM      9  C   LIG    1        5.063   1.595   4.910  0.00  0.00    -0.020 A 
ATOM     10  C   LIG    1        3.696   1.430   4.931  0.00  0.00    +0.120 A 
BRANCH   8  11
ATOM     11  O   LIG    1        6.971   2.831   4.214  0.00  0.00    -0.290 OA
BRANCH  11  12
ATOM     12  C   LIG    1        7.481   3.959   3.499  0.00  0.00    +0.210 C 
BRANCH  12  13
ATOM     13  C   LIG    1        8.986   3.971   3.588  0.00  0.00    +0.380 C 
ATOM     14  O   LIG    1        9.562   3.104   4.200  0.00  0.00    -0.430 OA
BRANCH  13  15
ATOM     15  C   LIG    1        9.771   5.066   2.913  0.00  0.00    -0.090 C 
ATOM     16  C   LIG    1       11.025   4.660   2.136  0.00  0.00    +0.060 C 
ATOM     17  C   LIG    1       11.157   5.390   3.475  0.00  0.00    +0.070 C 
ENDBRANCH  13  15
ENDBRANCH  12  13
ENDBRANCH  11  12
ENDBRANCH   8  11
ENDBRANCH   3   5
BRANCH   1  19
ATOM     18  C   LIG    1       -1.410   3.514   4.947  0.00  0.00    +0.040 C 
ATOM     19  C   LIG    1       -0.840   2.885   3.674  0.00  0.00    +0.230 C 
BRANCH  19  20
ATOM     20  C   LIG    1       -1.451   3.568   2.449  0.00  0.00    +0.180 C 
BRANCH  20  21
ATOM     21  N   LIG    1       -0.817   3.048   1.230  0.00  0.00    -0.530 NA
ATOM     22  C   LIG    1       -0.731   1.580   1.266  0.00  0.00    +0.140 C 
ATOM     23  C   LIG    1       -0.013   1.086   0.008  0.00  0.00    +0.220 C 
ATOM     24  O   LIG    1       -0.706   1.560  -1.149  0.00  0.00    -0.380 OA
ATOM     25  C   LIG    1       -0.807   2.985  -1.216  0.00  0.00    +0.220 C 
ATOM     26  C   LIG    1       -1.534   3.499   0.029  0.00  0.00    +0.150 C 
ENDBRANCH  20  21
ENDBRANCH  19  20
ENDBRANCH   1  19
TORSDOF 8
