REMARK  Name = ZINCqH0000000nil.0
REMARK                            x       y       z     vdW  Elec       q    Type
REMARK                         _______ _______ _______ _____ _____    ______ ____
ROOT
ATOM      1  C   LIG    1       -2.819  -2.172   1.641  0.00  0.00    +0.350 C 
ENDROOT
BRANCH   1   2
ATOM      2  C   LIG    1       -2.987  -1.276   2.841  0.00  0.00    +0.080 A 
ATOM      3  N   LIG    1       -3.980  -1.312   3.693  0.00  0.00    -0.280 NA
ATOM      4  N   LIG    1       -3.764  -0.321   4.660  0.00  0.00    -0.320 N 
ATOM      5  C   LIG    1       -2.607   0.309   4.357  0.00  0.00    +0.240 A 
ATOM      6  C   LIG    1       -2.104  -0.267   3.241  0.00  0.00    -0.070 A 
BRANCH   4   7
ATOM      7  C   LIG    1       -4.601  -0.033   5.748  0.00  0.00    +0.120 A 
ATOM      8  C   LIG    1       -5.766  -0.762   5.941  0.00  0.00    +0.100 A 
ATOM      9  C   LIG    1       -6.589  -0.477   7.013  0.00  0.00    +0.030 A 
ATOM     10  C   LIG    1       -6.253   0.535   7.897  0.00  0.00    +0.120 A 
ATOM     11  C   LIG    1       -5.092   1.265   7.707  0.00  0.00    +0.000 A 
ATOM     12  F   LIG    1       -7.060   0.811   8.944  0.00  0.00    -0.120 F 
ATOM     13  C   LIG    1       -4.262   0.980   6.639  0.00  0.00    +0.110 A 
ATOM     14  F   LIG    1       -3.125   1.687   6.457  0.00  0.00    -0.120 F 
ENDBRANCH   4   7
ENDBRANCH   1   2
BRANCH   1  15
ATOM     15  O   LIG    1       -1.593  -1.825   0.946  0.00  0.00    -0.350 OA
BRANCH  15  16
ATOM     16  C   LIG    1       -1.295  -2.535  -0.154  0.00  0.00    +0.480 C 
ATOM     17  O   LIG    1       -2.034  -3.417  -0.523  0.00  0.00    -0.480 OA
BRANCH  16  18
ATOM     18  C   LIG    1       -0.038  -2.232  -0.928  0.00  0.00    -0.040 C 
ATOM     19  C   LIG    1        1.203  -2.595  -0.086  0.00  0.00    +0.060 C 
ATOM     20  C   LIG    1        1.579  -4.021  -0.559  0.00  0.00    +0.010 C 
ATOM     21  C   LIG    1        1.298  -3.962  -2.081  0.00  0.00    +0.010 C 
ATOM     22  C   LIG    1        0.022  -3.102  -2.196  0.00  0.00    +0.050 C 
BRANCH  18  23
ATOM     23  C   LIG    1        0.000  -0.750  -1.306  0.00  0.00    +0.070 C 
BRANCH  23  25
ATOM     24  C   LIG    1       -1.500   1.029  -2.488  0.00  0.00    +0.080 C 
ATOM     25  C   LIG    1       -1.232  -0.403  -2.101  0.00  0.00    +0.340 C 
ATOM     26  O   LIG    1       -2.005  -1.271  -2.428  0.00  0.00    -0.440 OA
ENDBRANCH  23  25
ENDBRANCH  18  23
ENDBRANCH  16  18
ENDBRANCH  15  16
ENDBRANCH   1  15
TORSDOF 7
