REMARK  Name = ZINCpe00000VVGQ8.1
REMARK                            x       y       z     vdW  Elec       q    Type
REMARK                         _______ _______ _______ _____ _____    ______ ____
ROOT
ATOM      1  C   LIG    1        3.714  -2.163   0.067  0.00  0.00    -0.280 A 
ATOM      2  C   LIG    1        4.837  -2.960   0.163  0.00  0.00    +0.390 A 
ATOM      3  N   LIG    1        4.415  -4.240   0.238  0.00  0.00    -0.340 N 
ATOM      4  N   LIG    1        3.017  -4.249   0.190  0.00  0.00    -0.310 NA
ATOM      5  C   LIG    1        2.589  -3.022   0.094  0.00  0.00    +0.360 A 
ENDROOT
BRANCH   1   7
ATOM      6  O   LIG    1        4.733  -0.074  -0.140  0.00  0.00    -0.440 OA
ATOM      7  C   LIG    1        3.691  -0.693  -0.036  0.00  0.00    +0.490 C 
BRANCH   7   8
ATOM      8  C   LIG    1        2.404   0.028  -0.014  0.00  0.00    -0.170 A 
ATOM      9  C   LIG    1        1.872   0.551  -1.196  0.00  0.00    +0.060 A 
ATOM     10  C   LIG    1        0.669   1.223  -1.168  0.00  0.00    +0.000 A 
ATOM     11  C   LIG    1       -0.016   1.383   0.026  0.00  0.00    +0.050 A 
ATOM     12  C   LIG    1        0.499   0.871   1.200  0.00  0.00    -0.010 A 
ATOM     13  C   LIG    1        1.708   0.192   1.192  0.00  0.00    +0.140 A 
BRANCH  13  14
ATOM     14  O   LIG    1        2.216  -0.311   2.345  0.00  0.00    -0.490 OA
ATOM     15  H   LIG    1        2.790   0.303   2.823  0.00  0.00    +0.400 HD
ENDBRANCH  13  14
ENDBRANCH   7   8
ENDBRANCH   1   7
BRANCH   3  16
ATOM     16  C   LIG    1        5.207  -5.325   0.343  0.00  0.00    +0.560 C 
ATOM     17  S   LIG    1        6.909  -5.142   0.390  0.00  0.00    -0.520 S 
BRANCH  16  18
ATOM     18  N   LIG    1        4.660  -6.555   0.410  0.00  0.00    -0.640 N 
ATOM     19  H   LIG    1        3.696  -6.659   0.383  0.00  0.00    +0.410 HD
BRANCH  18  20
ATOM     20  C   LIG    1        5.521  -7.735   0.524  0.00  0.00    +0.320 C 
BRANCH  20  21
ATOM     21  C   LIG    1        4.654  -8.995   0.582  0.00  0.00    +0.180 C 
BRANCH  21  22
ATOM     22  N   LIG    1        5.518 -10.178   0.696  0.00  0.00    -0.530 NA
ATOM     23  C   LIG    1        6.316 -10.367  -0.523  0.00  0.00    +0.150 C 
ATOM     24  C   LIG    1        7.242 -11.572  -0.339  0.00  0.00    +0.220 C 
ATOM     25  O   LIG    1        6.458 -12.725  -0.021  0.00  0.00    -0.380 OA
ATOM     26  C   LIG    1        5.668 -12.576   1.161  0.00  0.00    +0.220 C 
ATOM     27  C   LIG    1        4.726 -11.381   0.992  0.00  0.00    +0.160 C 
ENDBRANCH  21  22
ENDBRANCH  20  21
ENDBRANCH  18  20
ENDBRANCH  16  18
ENDBRANCH   3  16
TORSDOF 8
