REMARK  Name = ZINCqH0000004bUH.0
REMARK                            x       y       z     vdW  Elec       q    Type
REMARK                         _______ _______ _______ _____ _____    ______ ____
ROOT
ATOM      1  N   LIG    1        4.837   1.506  -0.025  0.00  0.00    -0.720 N 
ATOM      2  H   LIG    1        4.849   0.536  -0.027  0.00  0.00    +0.400 HD
ATOM      3  C   LIG    1        3.661   2.164  -0.016  0.00  0.00    +0.570 C 
ATOM      4  O   LIG    1        3.645   3.380  -0.013  0.00  0.00    -0.520 OA
ENDROOT
BRANCH   3   5
ATOM      5  C   LIG    1        2.390   1.408  -0.008  0.00  0.00    -0.130 A 
ATOM      6  C   LIG    1        2.403   0.013  -0.011  0.00  0.00    +0.040 A 
ATOM      7  C   LIG    1        1.213  -0.682  -0.006  0.00  0.00    +0.010 A 
ATOM      8  C   LIG    1        0.002  -0.004   0.002  0.00  0.00    -0.090 A 
ATOM      9  C   LIG    1       -1.273  -0.807  -0.004  0.00  0.00    +0.280 C 
ATOM     10  O   LIG    1       -2.376   0.014   0.378  0.00  0.00    -0.370 OA
ATOM     11  C   LIG    1       -2.466   1.225  -0.381  0.00  0.00    +0.220 C 
ATOM     12  C   LIG    1       -1.315   2.143   0.033  0.00  0.00    +0.060 C 
ATOM     13  C   LIG    1       -0.017   1.377   0.010  0.00  0.00    -0.080 A 
ATOM     14  C   LIG    1        1.171   2.085   0.002  0.00  0.00    +0.090 A 
ENDBRANCH   3   5
BRANCH   1  15
ATOM     15  C   LIG    1        6.096   2.255  -0.033  0.00  0.00    +0.180 C 
ATOM     16  C   LIG    1        6.157   3.138  -1.281  0.00  0.00    +0.040 C 
BRANCH  15  18
ATOM     17  C   LIG    1        6.114   2.250   2.466  0.00  0.00    +0.010 C 
ATOM     18  C   LIG    1        6.174   3.133   1.218  0.00  0.00    +0.030 C 
ENDBRANCH  15  18
BRANCH  15  19
ATOM     19  C   LIG    1        7.272   1.276  -0.043  0.00  0.00    +0.220 C 
BRANCH  19  20
ATOM     20  O   LIG    1        8.500   2.006  -0.050  0.00  0.00    -0.280 OA
BRANCH  20  21
ATOM     21  C   LIG    1        9.647   1.282  -0.060  0.00  0.00    +0.340 A 
ATOM     22  N   LIG    1        9.588  -0.039  -0.062  0.00  0.00    -0.530 NA
ATOM     23  C   LIG    1       10.680  -0.781  -0.071  0.00  0.00    +0.310 A 
ATOM     24  C   LIG    1       11.931  -0.199  -0.079  0.00  0.00    -0.050 A 
ATOM     25  C   LIG    1       12.037   1.185  -0.077  0.00  0.00    +0.120 A 
ATOM     26  C   LIG    1       10.874   1.936  -0.073  0.00  0.00    -0.110 A 
ATOM     27 CL   LIG    1       10.947   3.671  -0.077  0.00  0.00    -0.040 Cl
ENDBRANCH  20  21
ENDBRANCH  19  20
ENDBRANCH  15  19
ENDBRANCH   1  15
TORSDOF 6
