REMARK  Name = ZINCrH000004tIAh.0
REMARK                            x       y       z     vdW  Elec       q    Type
REMARK                         _______ _______ _______ _____ _____    ______ ____
ROOT
ATOM      1  O   LIG    1        2.161   0.425   4.864  0.00  0.00    -0.500 OA
ATOM      2  C   LIG    1        2.226  -0.717   4.461  0.00  0.00    +0.520 C 
ATOM      3  N   LIG    1        2.226  -1.741   5.337  0.00  0.00    -0.620 N 
ATOM      4  H   LIG    1        2.278  -2.655   5.015  0.00  0.00    +0.430 HD
ENDROOT
BRANCH   3   5
ATOM      5  C   LIG    1        2.150  -1.489   6.701  0.00  0.00    +0.280 A 
ATOM      6  N   LIG    1        2.142  -2.393   7.631  0.00  0.00    -0.500 NA
ATOM      7  C   LIG    1        2.065  -1.967   8.884  0.00  0.00    +0.130 A 
ATOM      8  C   LIG    1        2.004  -0.631   9.036  0.00  0.00    -0.110 A 
ATOM      9  S   LIG    1        2.058   0.108   7.437  0.00  0.00    +0.210 S 
BRANCH   7  10
ATOM     10  C   LIG    1        2.047  -2.898  10.038  0.00  0.00    -0.070 A 
ATOM     11  C   LIG    1        2.211  -4.272   9.845  0.00  0.00    +0.090 A 
ATOM     12  C   LIG    1        2.192  -5.098  10.956  0.00  0.00    -0.030 A 
ATOM     13  C   LIG    1        2.001  -4.544  12.208  0.00  0.00    +0.260 A 
ATOM     14  N   LIG    1        1.844  -3.243  12.359  0.00  0.00    -0.480 NA
ATOM     15  C   LIG    1        1.861  -2.417  11.333  0.00  0.00    +0.280 A 
ENDBRANCH   7  10
ENDBRANCH   3   5
BRANCH   2  16
ATOM     16  C   LIG    1        2.308  -0.991   2.982  0.00  0.00    +0.080 C 
BRANCH  16  17
ATOM     17  C   LIG    1        2.291   0.334   2.216  0.00  0.00    +0.080 C 
BRANCH  17  18
ATOM     18  C   LIG    1        2.374   0.056   0.714  0.00  0.00    +0.010 C 
ATOM     19  C   LIG    1        2.491   1.380  -0.042  0.00  0.00    +0.120 C 
ATOM     20  C   LIG    1        1.173   2.109   0.002  0.00  0.00    -0.120 A 
ATOM     21  C   LIG    1        1.148   3.489   0.027  0.00  0.00    +0.050 A 
ATOM     22  C   LIG    1       -0.061   4.160   0.050  0.00  0.00    -0.010 A 
ATOM     23  C   LIG    1       -1.248   3.451   0.047  0.00  0.00    +0.040 A 
ATOM     24  C   LIG    1       -1.230   2.070   0.031  0.00  0.00    -0.020 A 
ATOM     25  C   LIG    1       -0.017   1.393   0.010  0.00  0.00    +0.160 A 
ATOM     26  N   LIG    1        0.002  -0.004   0.002  0.00  0.00    -0.660 N 
ATOM     27  H   LIG    1       -0.810  -0.494  -0.199  0.00  0.00    +0.410 HD
ATOM     28  C   LIG    1        1.135  -0.676   0.271  0.00  0.00    +0.520 C 
ATOM     29  O   LIG    1        1.159  -1.883   0.156  0.00  0.00    -0.520 OA
ENDBRANCH  17  18
ENDBRANCH  16  17
ENDBRANCH   2  16
TORSDOF 5
