REMARK  Name = ZINCrD00000741mY.0
REMARK                            x       y       z     vdW  Elec       q    Type
REMARK                         _______ _______ _______ _____ _____    ______ ____
ROOT
ATOM      1  N   LIG    1        0.298   5.685  -2.570  0.00  0.00    -0.690 N 
ATOM      2  H   LIG    1        0.100   5.146  -1.789  0.00  0.00    +0.400 HD
ATOM      3  C   LIG    1       -0.516   6.704  -2.911  0.00  0.00    +0.700 C 
ATOM      4  N   LIG    1       -1.545   7.040  -2.108  0.00  0.00    -0.620 N 
ATOM      5  C   LIG    1       -1.722   6.387  -0.804  0.00  0.00    +0.250 C 
ATOM      6  C   LIG    1       -3.144   5.822  -0.725  0.00  0.00    +0.010 C 
ATOM      7  C   LIG    1       -4.150   6.939  -1.010  0.00  0.00    +0.020 C 
ATOM      8  C   LIG    1       -3.924   7.483  -2.422  0.00  0.00    +0.020 C 
ATOM      9  C   LIG    1       -2.511   8.067  -2.521  0.00  0.00    +0.320 C 
ATOM     10  O   LIG    1       -0.323   7.318  -3.942  0.00  0.00    -0.540 OA
ENDROOT
BRANCH   1  14
ATOM     11  C   LIG    1        3.673   4.853  -4.876  0.00  0.00    +0.090 A 
ATOM     12  C   LIG    1        3.159   6.143  -4.838  0.00  0.00    +0.010 A 
ATOM     13  C   LIG    1        2.041   6.418  -4.075  0.00  0.00    +0.050 A 
ATOM     14  C   LIG    1        1.432   5.405  -3.346  0.00  0.00    +0.150 A 
ATOM     15  C   LIG    1        1.950   4.117  -3.380  0.00  0.00    -0.010 A 
ATOM     16  C   LIG    1        3.064   3.841  -4.147  0.00  0.00    -0.020 A 
BRANCH  11  20
ATOM     17  C   LIG    1        6.800   1.419  -6.319  0.00  0.00    +0.050 C 
ATOM     18  C   LIG    1        6.452   2.908  -6.358  0.00  0.00    +0.160 C 
ATOM     19  C   LIG    1        5.178   3.156  -5.546  0.00  0.00    +0.170 C 
ATOM     20  N   LIG    1        4.805   4.574  -5.650  0.00  0.00    -0.490 N 
ATOM     21  C   LIG    1        4.591   4.956  -7.053  0.00  0.00    +0.160 C 
ATOM     22  C   LIG    1        5.872   4.690  -7.850  0.00  0.00    +0.220 C 
ATOM     23  O   LIG    1        6.235   3.313  -7.712  0.00  0.00    -0.380 OA
ENDBRANCH  11  20
ENDBRANCH   1  14
BRANCH   9  24
ATOM     24  C   LIG    1       -2.233   8.480  -3.943  0.00  0.00    -0.220 A 
ATOM     25  C   LIG    1       -1.976   9.738  -4.372  0.00  0.00    +0.230 A 
ATOM     26  N   LIG    1       -1.786   9.687  -5.707  0.00  0.00    -0.480 N 
ATOM     27  H   LIG    1       -1.587  10.440  -6.284  0.00  0.00    +0.430 HD
ATOM     28  N   LIG    1       -1.921   8.352  -6.111  0.00  0.00    -0.300 NA
ATOM     29  C   LIG    1       -2.189   7.630  -5.053  0.00  0.00    +0.280 A 
ENDBRANCH   9  24
TORSDOF 3
