REMARK  Name = ZINCvU0000000DPB.0
REMARK                            x       y       z     vdW  Elec       q    Type
REMARK                         _______ _______ _______ _____ _____    ______ ____
ROOT
ATOM      1  C   LIG    1       -3.384   8.202  -1.029  0.00  0.00    +0.290 A 
ATOM      2  N   LIG    1       -3.770   8.606  -2.204  0.00  0.00    -0.480 NA
ATOM      3  C   LIG    1       -2.706   8.646  -3.046  0.00  0.00    +0.050 A 
ATOM      4  C   LIG    1       -2.552   8.998  -4.389  0.00  0.00    +0.070 A 
ATOM      5  C   LIG    1       -1.316   8.947  -4.969  0.00  0.00    +0.000 A 
ATOM      6  C   LIG    1       -0.209   8.537  -4.241  0.00  0.00    +0.030 A 
ATOM      7  C   LIG    1       -0.337   8.181  -2.915  0.00  0.00    +0.010 A 
ATOM      8  C   LIG    1       -1.584   8.234  -2.307  0.00  0.00    +0.060 A 
ATOM      9  N   LIG    1       -2.046   7.955  -1.036  0.00  0.00    -0.480 N 
ENDROOT
BRANCH   1  12
ATOM     10  N   LIG    1       -6.612   7.600   0.561  0.00  0.00    -0.560 N 
ATOM     11  C   LIG    1       -5.446   7.062  -0.151  0.00  0.00    +0.300 C 
ATOM     12  C   LIG    1       -4.287   8.032   0.166  0.00  0.00    +0.090 C 
ATOM     13  C   LIG    1       -5.047   9.343   0.475  0.00  0.00    +0.100 C 
ATOM     14  C   LIG    1       -6.417   8.881   0.920  0.00  0.00    +0.520 C 
ATOM     15  O   LIG    1       -7.222   9.566   1.514  0.00  0.00    -0.500 OA
BRANCH  10  21
ATOM     16  C   LIG    1       -9.254   3.488   0.029  0.00  0.00    +0.090 C 
ATOM     17  C   LIG    1       -9.083   4.877   0.587  0.00  0.00    -0.060 A 
ATOM     18  C   LIG    1      -10.078   5.435   1.368  0.00  0.00    -0.020 A 
ATOM     19  C   LIG    1       -9.925   6.709   1.883  0.00  0.00    +0.040 A 
ATOM     20  C   LIG    1       -8.775   7.427   1.622  0.00  0.00    -0.010 A 
ATOM     21  C   LIG    1       -7.776   6.873   0.833  0.00  0.00    +0.170 A 
ATOM     22  C   LIG    1       -7.933   5.593   0.318  0.00  0.00    -0.040 A 
ENDBRANCH  10  21
ENDBRANCH   1  12
BRANCH   9  23
ATOM     23  C   LIG    1       -1.244   7.485   0.096  0.00  0.00    +0.350 C 
BRANCH  23  24
ATOM     24  C   LIG    1       -1.219   5.979   0.104  0.00  0.00    -0.060 C 
ATOM     25  C   LIG    1       -0.061   5.334   0.105  0.00  0.00    +0.040 C 
BRANCH  25  26
ATOM     26  C   LIG    1       -0.037   3.856   0.113  0.00  0.00    -0.070 A 
ATOM     27  C   LIG    1        1.181   3.175   0.115  0.00  0.00    +0.030 A 
ATOM     28  C   LIG    1        1.197   1.796   0.122  0.00  0.00    +0.010 A 
ATOM     29  C   LIG    1        0.008   1.088   0.130  0.00  0.00    +0.010 A 
ATOM     30  C   LIG    1       -1.203   1.757   0.123  0.00  0.00    +0.000 A 
ATOM     31  C   LIG    1       -1.232   3.136   0.120  0.00  0.00    +0.010 A 
ENDBRANCH  25  26
ENDBRANCH  23  24
ENDBRANCH   9  23
TORSDOF 5
