REMARK  Name = ZINCtV00001bB3kk.0
REMARK                            x       y       z     vdW  Elec       q    Type
REMARK                         _______ _______ _______ _____ _____    ______ ____
ROOT
ATOM      1  C   LIG    1       -0.011   4.452  -0.147  0.00  0.00    +0.220 C 
ATOM      2  N   LIG    1       -1.085   3.761   0.094  0.00  0.00    -0.200 NA
ENDROOT
BRANCH   1   6
ATOM      3  C   LIG    1        3.798   2.577  -0.003  0.00  0.00    +0.190 A 
ATOM      4  C   LIG    1        3.700   3.930  -0.303  0.00  0.00    -0.120 A 
ATOM      5  C   LIG    1        2.466   4.543  -0.347  0.00  0.00    +0.130 A 
ATOM      6  C   LIG    1        1.310   3.802  -0.095  0.00  0.00    -0.120 A 
ATOM      7  C   LIG    1        1.411   2.437   0.214  0.00  0.00    +0.200 A 
ATOM      8  C   LIG    1        2.655   1.833   0.255  0.00  0.00    -0.110 A 
BRANCH   3   9
ATOM      9  O   LIG    1        5.018   1.980   0.039  0.00  0.00    -0.310 OA
BRANCH   9  10
ATOM     10  C   LIG    1        6.153   2.803  -0.237  0.00  0.00    +0.200 C 
BRANCH  10  12
ATOM     11  C   LIG    1        8.643   2.843  -0.439  0.00  0.00    +0.040 C 
ATOM     12  C   LIG    1        7.427   1.962  -0.144  0.00  0.00    +0.020 C 
ENDBRANCH  10  12
ENDBRANCH   9  10
ENDBRANCH   3   9
BRANCH   7  13
ATOM     13  O   LIG    1        0.292   1.710   0.466  0.00  0.00    -0.280 OA
BRANCH  13  14
ATOM     14  C   LIG    1        0.472   0.325   0.767  0.00  0.00    +0.170 C 
BRANCH  14  15
ATOM     15  C   LIG    1       -0.890  -0.323   1.020  0.00  0.00    +0.020 C 
ATOM     16  C   LIG    1       -0.697  -1.806   1.343  0.00  0.00    +0.040 C 
ENDBRANCH  14  15
ENDBRANCH  13  14
ENDBRANCH   7  13
ENDBRANCH   1   6
BRANCH   2  17
ATOM     17  N   LIG    1       -2.333   4.397   0.136  0.00  0.00    -0.430 N 
BRANCH  17  18
ATOM     18  C   LIG    1       -3.498   3.640   0.273  0.00  0.00    +0.210 A 
ATOM     19  C   LIG    1       -4.712   4.269   0.525  0.00  0.00    -0.050 A 
ATOM     20  C   LIG    1       -5.863   3.518   0.655  0.00  0.00    +0.040 A 
ATOM     21  C   LIG    1       -5.808   2.140   0.545  0.00  0.00    -0.040 A 
ATOM     22  C   LIG    1       -4.601   1.510   0.300  0.00  0.00    +0.030 A 
ATOM     23  C   LIG    1       -3.447   2.256   0.164  0.00  0.00    -0.010 A 
ENDBRANCH  17  18
BRANCH  17  24
ATOM     24  C   LIG    1       -2.410   5.788   0.041  0.00  0.00    +0.120 A 
ATOM     25  C   LIG    1       -3.180   6.376  -0.956  0.00  0.00    +0.010 A 
ATOM     26  C   LIG    1       -3.259   7.752  -1.044  0.00  0.00    +0.030 A 
ATOM     27  C   LIG    1       -2.565   8.545  -0.148  0.00  0.00    +0.010 A 
ATOM     28  C   LIG    1       -1.793   7.963   0.841  0.00  0.00    +0.030 A 
ATOM     29  C   LIG    1       -1.714   6.588   0.939  0.00  0.00    -0.010 A 
ENDBRANCH  17  24
ENDBRANCH   2  17
TORSDOF 10
