REMARK  Name = ZINCvU0000000H7V.0
REMARK                            x       y       z     vdW  Elec       q    Type
REMARK                         _______ _______ _______ _____ _____    ______ ____
ROOT
ATOM      1  C   LIG    1       -2.363  -2.567   1.702  0.00  0.00    -0.270 A 
ATOM      2  C   LIG    1       -1.352  -3.076   0.982  0.00  0.00    +0.190 A 
ATOM      3  C   LIG    1       -0.512  -2.131   0.378  0.00  0.00    -0.220 A 
ATOM      4  C   LIG    1       -0.889  -0.824   0.642  0.00  0.00    +0.010 A 
ATOM      5  N   LIG    1        0.002  -0.004   0.002  0.00  0.00    -0.300 N 
ATOM      6  N   LIG    1        0.930  -0.809  -0.665  0.00  0.00    -0.260 NA
ATOM      7  C   LIG    1        0.650  -2.059  -0.452  0.00  0.00    +0.150 A 
ATOM      8  C   LIG    1        1.417  -3.238  -0.996  0.00  0.00    +0.180 C 
ATOM      9  S   LIG    1       -2.320  -0.812   1.665  0.00  0.00    +0.210 S 
ENDROOT
BRANCH   1  14
ATOM     10  C   LIG    1       -6.558  -2.396   3.950  0.00  0.00    +0.050 C 
ATOM     11  C   LIG    1       -5.777  -1.064   4.105  0.00  0.00    +0.050 C 
ATOM     12  C   LIG    1       -4.518  -1.297   3.245  0.00  0.00    +0.240 C 
ATOM     13  N   LIG    1       -4.340  -2.751   3.117  0.00  0.00    -0.620 N 
ATOM     14  C   LIG    1       -3.362  -3.364   2.421  0.00  0.00    +0.610 C 
ATOM     15  O   LIG    1       -3.309  -4.580   2.388  0.00  0.00    -0.520 OA
ATOM     16  C   LIG    1       -5.404  -3.427   3.881  0.00  0.00    +0.290 C 
BRANCH  10  22
ATOM     17  C   LIG    1       -8.791  -2.900   4.973  0.00  0.00    +0.140 A 
ATOM     18  C   LIG    1       -9.598  -3.133   6.077  0.00  0.00    -0.080 A 
ATOM     19  C   LIG    1       -9.053  -3.115   7.347  0.00  0.00    +0.050 A 
ATOM     20  C   LIG    1       -7.704  -2.865   7.517  0.00  0.00    -0.020 A 
ATOM     21  C   LIG    1       -6.896  -2.638   6.418  0.00  0.00    +0.050 A 
ATOM     22  C   LIG    1       -7.438  -2.649   5.147  0.00  0.00    -0.110 A 
BRANCH  17  24
ATOM     23  C   LIG    1      -10.726  -3.181   3.621  0.00  0.00    +0.250 C 
ATOM     24  O   LIG    1       -9.326  -2.917   3.724  0.00  0.00    -0.320 OA
ENDBRANCH  17  24
ENDBRANCH  10  22
ENDBRANCH   1  14
BRANCH   5  25
ATOM     25  C   LIG    1       -0.017   1.397   0.010  0.00  0.00    +0.160 A 
ATOM     26  C   LIG    1       -1.228   2.076   0.019  0.00  0.00    +0.020 A 
ATOM     27  C   LIG    1       -1.244   3.457   0.032  0.00  0.00    +0.070 A 
ATOM     28  C   LIG    1       -0.054   4.164   0.025  0.00  0.00    -0.040 A 
ATOM     29  C   LIG    1        1.154   3.490   0.010  0.00  0.00    +0.060 A 
ATOM     30 CL   LIG    1       -0.078   5.900   0.035  0.00  0.00    -0.060 Cl
ATOM     31  C   LIG    1        1.175   2.109   0.002  0.00  0.00    +0.050 A 
ENDBRANCH   5  25
TORSDOF 4
