REMARK  Name = ZINCrH000004mTVP.0
REMARK                            x       y       z     vdW  Elec       q    Type
REMARK                         _______ _______ _______ _____ _____    ______ ____
ROOT
ATOM      1  C   LIG    1        6.726   4.226   3.045  0.00  0.00    +0.190 C 
ATOM      2  C   LIG    1        8.188   4.707   2.866  0.00  0.00    +0.050 C 
ATOM      3  C   LIG    1        8.098   5.631   1.629  0.00  0.00    +0.020 C 
ATOM      4  C   LIG    1        6.619   6.054   1.550  0.00  0.00    +0.170 C 
ATOM      5  N   LIG    1        5.927   5.428   2.697  0.00  0.00    -0.490 NA
ENDROOT
BRANCH   1  10
ATOM      6  C   LIG    1        5.714   4.343   6.684  0.00  0.00    +0.090 A 
ATOM      7  C   LIG    1        6.009   3.052   7.096  0.00  0.00    -0.040 A 
ATOM      8  C   LIG    1        6.536   2.144   6.199  0.00  0.00    -0.040 A 
ATOM      9  C   LIG    1        6.764   2.521   4.884  0.00  0.00    +0.100 A 
ATOM     10  C   LIG    1        6.473   3.814   4.473  0.00  0.00    -0.070 A 
ATOM     11  C   LIG    1        5.947   4.722   5.371  0.00  0.00    +0.060 A 
BRANCH   6  13
ATOM     12  C   LIG    1        4.981   4.778   8.905  0.00  0.00    +0.230 C 
ATOM     13  O   LIG    1        5.195   5.237   7.568  0.00  0.00    -0.320 OA
ENDBRANCH   6  13
BRANCH   9  14
ATOM     14  O   LIG    1        7.277   1.625   3.998  0.00  0.00    -0.320 OA
ATOM     15  C   LIG    1        7.552   0.312   4.490  0.00  0.00    +0.230 C 
ENDBRANCH   9  14
ENDBRANCH   1  10
BRANCH   5  16
ATOM     16  C   LIG    1        4.549   5.060   2.344  0.00  0.00    +0.200 C 
BRANCH  16  17
ATOM     17  C   LIG    1        3.750   6.308   2.071  0.00  0.00    +0.520 C 
ATOM     18  N   LIG    1        2.489   6.213   1.606  0.00  0.00    -0.730 N 
ATOM     19  H   LIG    1        2.095   5.341   1.446  0.00  0.00    +0.400 HD
ATOM     20  O   LIG    1        4.242   7.399   2.272  0.00  0.00    -0.520 OA
BRANCH  18  21
ATOM     21  C   LIG    1        1.712   7.426   1.341  0.00  0.00    +0.290 C 
ATOM     22  C   LIG    1        1.042   7.896   2.635  0.00  0.00    +0.040 C 
BRANCH  21  23
ATOM     23  C   LIG    1        0.655   7.131   0.308  0.00  0.00    -0.090 A 
ATOM     24  C   LIG    1       -0.032   5.933   0.344  0.00  0.00    +0.000 A 
ATOM     25  C   LIG    1       -1.001   5.662  -0.604  0.00  0.00    +0.000 A 
ATOM     26  C   LIG    1       -1.282   6.590  -1.589  0.00  0.00    +0.000 A 
ATOM     27  C   LIG    1       -0.593   7.788  -1.627  0.00  0.00    +0.020 A 
ATOM     28  C   LIG    1        0.375   8.059  -0.678  0.00  0.00    +0.010 A 
ENDBRANCH  21  23
ENDBRANCH  18  21
ENDBRANCH  16  17
ENDBRANCH   5  16
TORSDOF 7
