REMARK  Name = ZINCtj00001UqOqL.0
REMARK                            x       y       z     vdW  Elec       q    Type
REMARK                         _______ _______ _______ _____ _____    ______ ____
ROOT
ATOM      1  C   LIG    1       -0.088   4.110   0.024  0.00  0.00    -0.730 A 
ATOM      2  C   LIG    1       -1.237   3.346   0.031  0.00  0.00    +0.400 A 
ATOM      3  N   LIG    1       -1.175   2.028   0.019  0.00  0.00    -0.500 NA
ATOM      4  C   LIG    1       -0.017   1.387   0.010  0.00  0.00    +0.310 A 
ATOM      5  C   LIG    1        1.184   2.094   0.002  0.00  0.00    +0.040 A 
ATOM      6  F   LIG    1        2.365   1.439  -0.012  0.00  0.00    -0.110 F 
ATOM      7  C   LIG    1        1.149   3.478   0.009  0.00  0.00    +0.170 A 
ENDROOT
BRANCH   4   8
ATOM      8  N   LIG    1        0.002  -0.004   0.002  0.00  0.00    -0.430 N 
ATOM      9  C   LIG    1        0.139  -0.523  -1.371  0.00  0.00    +0.210 C 
ATOM     10  C   LIG    1       -0.898  -1.596  -1.010  0.00  0.00    -0.060 C 
ATOM     11  C   LIG    1       -1.911  -1.886  -2.120  0.00  0.00    +0.050 C 
ATOM     12  C   LIG    1       -1.367  -0.551   0.012  0.00  0.00    +0.220 C 
BRANCH  10  13
ATOM     13  C   LIG    1       -0.306  -2.861  -0.387  0.00  0.00    -0.190 C 
BRANCH  13  14
ATOM     14  S   LIG    1        0.204  -4.002  -1.702  0.00  0.00    +1.240 S 
ATOM     15  O   LIG    1       -0.938  -4.412  -2.442  0.00  0.00    -0.840 OA
ATOM     16  C   LIG    1        0.868  -5.416  -0.781  0.00  0.00    -0.190 C 
ENDBRANCH  13  14
ENDBRANCH  10  13
ENDBRANCH   4   8
BRANCH   1  17
ATOM     17  S   LIG    1       -0.189   5.869   0.033  0.00  0.00    +2.700 S 
ATOM     18  O   LIG    1        1.041   6.339   0.568  0.00  0.00    -0.940 OA
ATOM     19  O   LIG    1       -1.454   6.196   0.591  0.00  0.00    -0.940 OA
BRANCH  17  23
ATOM     20  C   LIG    1       -0.356   8.172  -3.719  0.00  0.00    -0.020 C 
ATOM     21  C   LIG    1       -1.586   7.928  -2.842  0.00  0.00    +0.050 C 
ATOM     22  C   LIG    1       -1.514   6.518  -2.248  0.00  0.00    +0.300 C 
ATOM     23  N   LIG    1       -0.232   6.366  -1.546  0.00  0.00    -1.000 NA
ATOM     24  C   LIG    1        1.010   6.669  -2.269  0.00  0.00    +0.310 C 
ATOM     25  C   LIG    1        0.910   8.072  -2.865  0.00  0.00    +0.020 C 
BRANCH  20  26
ATOM     26  C   LIG    1       -0.442   9.567  -4.342  0.00  0.00    +0.250 C 
BRANCH  26  28
ATOM     27  C   LIG    1        0.538   8.819  -6.400  0.00  0.00    +0.310 C 
ATOM     28  N   LIG    1        0.676   9.756  -5.276  0.00  0.00    -0.390 N 
ATOM     29  C   LIG    1        0.662  11.134  -5.783  0.00  0.00    +0.310 C 
ATOM     30  H   LIG    1        1.547   9.581  -4.798  0.00  0.00    +0.420 HD
ENDBRANCH  26  28
ENDBRANCH  20  26
ENDBRANCH  17  23
ENDBRANCH   1  17
TORSDOF 7
