REMARK  Name = ZINCtV00000sTG3X.0
REMARK                            x       y       z     vdW  Elec       q    Type
REMARK                         _______ _______ _______ _____ _____    ______ ____
ROOT
ATOM      1  N   LIG    1        0.002  -0.004   0.002  0.00  0.00    -0.630 N 
ATOM      2  H   LIG    1       -0.831  -0.500   0.007  0.00  0.00    +0.430 HD
ATOM      3  C   LIG    1       -0.016   1.344   0.009  0.00  0.00    +0.600 C 
ATOM      4  O   LIG    1        1.030   1.966   0.003  0.00  0.00    -0.440 OA
ENDROOT
BRANCH   1  10
ATOM      5  C   LIG    1        5.466  -2.849  -0.067  0.00  0.00    -0.070 A 
ATOM      6  C   LIG    1        5.798  -1.502  -0.063  0.00  0.00    +0.040 A 
ATOM      7  C   LIG    1        4.818  -0.542  -0.047  0.00  0.00    +0.080 A 
ATOM      8  C   LIG    1        3.456  -0.910  -0.036  0.00  0.00    +0.100 A 
ATOM      9  N   LIG    1        2.368  -0.116  -0.027  0.00  0.00    -0.460 NA
ATOM     10  C   LIG    1        1.210  -0.679  -0.013  0.00  0.00    +0.330 A 
ATOM     11  S   LIG    1        1.381  -2.429  -0.024  0.00  0.00    +0.070 S 
ATOM     12  C   LIG    1        3.136  -2.271  -0.040  0.00  0.00    -0.170 A 
ATOM     13  C   LIG    1        4.143  -3.232  -0.055  0.00  0.00    +0.060 A 
BRANCH   5  15
ATOM     14  C   LIG    1        6.906  -4.239  -1.531  0.00  0.00    +0.030 C 
ATOM     15  C   LIG    1        6.553  -3.893  -0.083  0.00  0.00    +0.080 C 
ENDBRANCH   5  15
ENDBRANCH   1  10
BRANCH   3  16
ATOM     16  C   LIG    1       -1.294   2.058   0.019  0.00  0.00    -0.080 A 
ATOM     17  C   LIG    1       -1.456   3.427   0.028  0.00  0.00    +0.070 A 
ATOM     18  C   LIG    1       -2.833   3.671   0.035  0.00  0.00    -0.020 A 
ATOM     19  C   LIG    1       -3.456   2.455   0.032  0.00  0.00    +0.070 A 
ATOM     20  O   LIG    1       -2.519   1.492   0.016  0.00  0.00    -0.160 OA
BRANCH  19  21
ATOM     21  C   LIG    1       -4.916   2.236   0.038  0.00  0.00    -0.030 A 
ATOM     22  C   LIG    1       -5.789   3.326   0.048  0.00  0.00    +0.080 A 
ATOM     23  C   LIG    1       -7.152   3.115   0.053  0.00  0.00    +0.040 A 
ATOM     24  C   LIG    1       -7.655   1.826   0.048  0.00  0.00    +0.090 A 
ATOM     25  C   LIG    1       -6.796   0.741   0.038  0.00  0.00    -0.180 A 
ATOM     26  C   LIG    1       -5.431   0.938   0.027  0.00  0.00    +0.090 A 
BRANCH  25  27
ATOM     27  C   LIG    1       -7.353  -0.659   0.032  0.00  0.00    +0.510 C 
ATOM     28  F   LIG    1       -6.908  -1.343   1.169  0.00  0.00    -0.170 F 
ATOM     29  F   LIG    1       -6.918  -1.330  -1.116  0.00  0.00    -0.170 F 
ATOM     30  F   LIG    1       -8.751  -0.605   0.038  0.00  0.00    -0.170 F 
ENDBRANCH  25  27
ENDBRANCH  19  21
ENDBRANCH   3  16
TORSDOF 5
