REMARK  Name = ZINCrg000000tc1E.0
REMARK                            x       y       z     vdW  Elec       q    Type
REMARK                         _______ _______ _______ _____ _____    ______ ____
ROOT
ATOM      1  O   LIG    1       -7.298   0.388   0.782  0.00  0.00    -0.520 OA
ATOM      2  C   LIG    1       -6.556   0.091   1.695  0.00  0.00    +0.500 C 
ATOM      3  N   LIG    1       -5.329  -0.400   1.434  0.00  0.00    -0.720 N 
ATOM      4  H   LIG    1       -4.736  -0.637   2.164  0.00  0.00    +0.400 HD
ENDROOT
BRANCH   3   5
ATOM      5  C   LIG    1       -4.889  -0.574   0.047  0.00  0.00    +0.340 C 
BRANCH   5   6
ATOM      6  C   LIG    1       -3.490  -1.133   0.030  0.00  0.00    -0.040 A 
ATOM      7  C   LIG    1       -3.273  -2.504   0.021  0.00  0.00    -0.020 A 
ATOM      8  C   LIG    1       -1.978  -2.983   0.007  0.00  0.00    +0.310 A 
ATOM      9  N   LIG    1       -0.951  -2.156   0.000  0.00  0.00    -0.500 NA
ATOM     10  C   LIG    1       -1.116  -0.843   0.009  0.00  0.00    +0.370 A 
ATOM     11  C   LIG    1       -2.391  -0.291   0.029  0.00  0.00    +0.000 A 
BRANCH  10  12
ATOM     12  N   LIG    1        0.002  -0.004   0.002  0.00  0.00    -0.330 N 
ATOM     13  C   LIG    1        1.301  -0.402  -0.013  0.00  0.00    +0.260 A 
ATOM     14  C   LIG    1        2.070   0.712  -0.014  0.00  0.00    -0.100 A 
ATOM     15  C   LIG    1        1.220   1.823   0.000  0.00  0.00    +0.270 A 
ATOM     16  N   LIG    1       -0.017   1.397   0.010  0.00  0.00    -0.290 NA
ENDBRANCH  10  12
ENDBRANCH   5   6
ENDBRANCH   3   5
BRANCH   2  17
ATOM     17  C   LIG    1       -7.009   0.270   3.121  0.00  0.00    +0.330 C 
BRANCH  17  18
ATOM     18  N   LIG    1       -8.369   0.814   3.138  0.00  0.00    -0.580 N 
ATOM     19  C   LIG    1       -8.640   2.147   3.153  0.00  0.00    +0.550 C 
ATOM     20  C   LIG    1      -10.094   2.270   3.478  0.00  0.00    +0.000 C 
ATOM     21  C   LIG    1      -10.904   3.389   2.862  0.00  0.00    +0.060 C 
ATOM     22  C   LIG    1      -12.348   3.204   3.369  0.00  0.00    +0.020 C 
ATOM     23  C   LIG    1      -12.905   1.831   3.009  0.00  0.00    +0.020 C 
ATOM     24  C   LIG    1      -11.979   0.691   3.470  0.00  0.00    +0.050 C 
ATOM     25  C   LIG    1      -10.628   0.950   2.846  0.00  0.00    +0.000 C 
ATOM     26  O   LIG    1       -7.862   3.052   2.943  0.00  0.00    -0.460 OA
ATOM     27  C   LIG    1       -9.485   0.035   3.145  0.00  0.00    +0.550 C 
ATOM     28  O   LIG    1       -9.540  -1.159   3.352  0.00  0.00    -0.470 OA
ENDBRANCH  17  18
ENDBRANCH   2  17
TORSDOF 5
