REMARK  Name = ZINCvU0000000Gj7.0
REMARK                            x       y       z     vdW  Elec       q    Type
REMARK                         _______ _______ _______ _____ _____    ______ ____
ROOT
ATOM      1  N   LIG    1       -6.022   1.430  -0.158  0.00  0.00    -0.470 N 
ATOM      2  C   LIG    1       -4.677   1.448  -0.246  0.00  0.00    +0.540 C 
ATOM      3  O   LIG    1       -4.041   0.443  -0.009  0.00  0.00    -0.450 OA
ENDROOT
BRANCH   2   4
ATOM      4  C   LIG    1       -3.965   2.716  -0.638  0.00  0.00    +0.150 C 
ATOM      5  C   LIG    1       -3.886   3.661   0.569  0.00  0.00    +0.260 C 
ATOM      6  O   LIG    1       -3.192   4.847   0.166  0.00  0.00    -0.290 OA
ATOM      7  C   LIG    1       -2.046   4.673  -0.546  0.00  0.00    +0.050 A 
ATOM      8  C   LIG    1       -1.149   5.725  -0.659  0.00  0.00    +0.030 A 
ATOM      9  C   LIG    1        0.018   5.565  -1.382  0.00  0.00    +0.030 A 
ATOM     10  C   LIG    1        0.294   4.357  -1.996  0.00  0.00    +0.030 A 
ATOM     11  C   LIG    1       -0.595   3.305  -1.887  0.00  0.00    +0.030 A 
ATOM     12  C   LIG    1       -1.770   3.460  -1.166  0.00  0.00    +0.050 A 
ATOM     13  O   LIG    1       -2.630   2.411  -1.057  0.00  0.00    -0.280 OA
ENDBRANCH   2   4
BRANCH   1  14
ATOM     14  C   LIG    1       -6.757   2.543  -0.540  0.00  0.00    +0.290 A 
ATOM     15  N   LIG    1       -6.937   3.590   0.188  0.00  0.00    -0.440 NA
ATOM     16  C   LIG    1       -7.674   4.595  -0.324  0.00  0.00    +0.080 A 
ATOM     17  C   LIG    1       -8.009   5.833   0.264  0.00  0.00    +0.090 A 
ATOM     18  C   LIG    1       -8.784   6.738  -0.417  0.00  0.00    +0.030 A 
ATOM     19  C   LIG    1       -9.249   6.452  -1.692  0.00  0.00    +0.060 A 
ATOM     20  C   LIG    1       -8.934   5.250  -2.286  0.00  0.00    +0.060 A 
ATOM     21  C   LIG    1       -8.150   4.319  -1.610  0.00  0.00    -0.160 A 
ATOM     22  S   LIG    1       -7.580   2.720  -2.083  0.00  0.00    +0.100 S 
ENDBRANCH   1  14
BRANCH   1  26
ATOM     23  C   LIG    1       -7.972  -1.969   1.261  0.00  0.00    -0.080 A 
ATOM     24  C   LIG    1       -8.707  -0.916   0.748  0.00  0.00    +0.040 A 
ATOM     25  C   LIG    1       -8.063   0.212   0.277  0.00  0.00    -0.020 A 
ATOM     26  C   LIG    1       -6.678   0.288   0.320  0.00  0.00    +0.130 A 
ATOM     27  C   LIG    1       -5.943  -0.774   0.831  0.00  0.00    +0.040 A 
ATOM     28  C   LIG    1       -6.592  -1.897   1.304  0.00  0.00    +0.040 A 
BRANCH  23  30
ATOM     29  C   LIG    1       -8.217  -4.420   0.977  0.00  0.00    +0.030 C 
ATOM     30  C   LIG    1       -8.678  -3.198   1.774  0.00  0.00    +0.020 C 
ATOM     31  C   LIG    1       -8.343  -3.398   3.253  0.00  0.00    +0.030 C 
ENDBRANCH  23  30
ENDBRANCH   1  26
TORSDOF 4
