REMARK  Name = ZINCvU0000000Gj7.1
REMARK                            x       y       z     vdW  Elec       q    Type
REMARK                         _______ _______ _______ _____ _____    ______ ____
ROOT
ATOM      1  N   LIG    1        5.350   3.097  -0.169  0.00  0.00    -0.470 N 
ATOM      2  C   LIG    1        5.606   4.418  -0.089  0.00  0.00    +0.520 C 
ATOM      3  O   LIG    1        6.752   4.812  -0.037  0.00  0.00    -0.420 OA
ENDROOT
BRANCH   2   4
ATOM      4  C   LIG    1        4.468   5.406  -0.065  0.00  0.00    +0.170 C 
ATOM      5  C   LIG    1        3.691   5.268   1.251  0.00  0.00    +0.250 C 
ATOM      6  O   LIG    1        2.628   6.227   1.247  0.00  0.00    -0.290 OA
ATOM      7  C   LIG    1        2.947   7.492   0.859  0.00  0.00    +0.040 A 
ATOM      8  C   LIG    1        2.086   8.535   1.164  0.00  0.00    +0.030 A 
ATOM      9  C   LIG    1        2.394   9.825   0.774  0.00  0.00    +0.030 A 
ATOM     10  C   LIG    1        3.561  10.078   0.077  0.00  0.00    +0.030 A 
ATOM     11  C   LIG    1        4.424   9.043  -0.230  0.00  0.00    +0.030 A 
ATOM     12  C   LIG    1        4.121   7.747   0.160  0.00  0.00    +0.050 A 
ATOM     13  O   LIG    1        4.984   6.739  -0.144  0.00  0.00    -0.280 OA
ENDBRANCH   2   4
BRANCH   1  14
ATOM     14  C   LIG    1        6.392   2.184  -0.100  0.00  0.00    +0.330 A 
ATOM     15  N   LIG    1        7.624   2.489   0.116  0.00  0.00    -0.460 NA
ATOM     16  C   LIG    1        8.525   1.488   0.156  0.00  0.00    +0.100 A 
ATOM     17  C   LIG    1        9.917   1.560   0.374  0.00  0.00    +0.070 A 
ATOM     18  C   LIG    1       10.680   0.419   0.379  0.00  0.00    +0.040 A 
ATOM     19  C   LIG    1       10.096  -0.822   0.171  0.00  0.00    +0.040 A 
ATOM     20  C   LIG    1        8.739  -0.916  -0.044  0.00  0.00    +0.060 A 
ATOM     21  C   LIG    1        7.949   0.231  -0.053  0.00  0.00    -0.180 A 
ATOM     22  S   LIG    1        6.216   0.445  -0.287  0.00  0.00    +0.090 S 
ENDBRANCH   1  14
BRANCH   1  26
ATOM     23  C   LIG    1        1.431   1.756  -0.623  0.00  0.00    -0.050 A 
ATOM     24  C   LIG    1        2.049   2.441  -1.652  0.00  0.00    +0.040 A 
ATOM     25  C   LIG    1        3.346   2.892  -1.503  0.00  0.00    +0.030 A 
ATOM     26  C   LIG    1        4.033   2.647  -0.321  0.00  0.00    +0.080 A 
ATOM     27  C   LIG    1        3.411   1.954   0.709  0.00  0.00    +0.020 A 
ATOM     28  C   LIG    1        2.112   1.510   0.555  0.00  0.00    +0.040 A 
BRANCH  23  30
ATOM     29  C   LIG    1       -0.063   0.311  -1.976  0.00  0.00    +0.030 C 
ATOM     30  C   LIG    1        0.013   1.271  -0.787  0.00  0.00    +0.020 C 
ATOM     31  C   LIG    1       -0.909   2.466  -1.036  0.00  0.00    +0.030 C 
ENDBRANCH  23  30
ENDBRANCH   1  26
TORSDOF 4
