REMARK  Name = ZINCpk000000n25p.0
REMARK                            x       y       z     vdW  Elec       q    Type
REMARK                         _______ _______ _______ _____ _____    ______ ____
ROOT
ATOM      1  C   LIG    1       -0.702   1.577   1.267  0.00  0.00    +0.230 C 
ENDROOT
BRANCH   1   2
ATOM      2  O   LIG    1       -2.005   0.993   1.330  0.00  0.00    -0.530 OA
ATOM      3  H   LIG    1       -2.002   0.027   1.366  0.00  0.00    +0.370 HD
ENDBRANCH   1   2
BRANCH   1   4
ATOM      4  C   LIG    1        0.020   1.081   0.013  0.00  0.00    +0.170 C 
BRANCH   4   5
ATOM      5  O   LIG    1       -0.664   1.556  -1.149  0.00  0.00    -0.300 OA
BRANCH   5  10
ATOM      6  C   LIG    1       -0.227   1.263  -4.760  0.00  0.00    -0.130 A 
ATOM      7  C   LIG    1        0.923   0.469  -4.812  0.00  0.00    +0.030 A 
ATOM      8  C   LIG    1        1.524   0.051  -3.643  0.00  0.00    +0.040 A 
ATOM      9  C   LIG    1        0.997   0.418  -2.418  0.00  0.00    -0.050 A 
ATOM     10  C   LIG    1       -0.148   1.203  -2.356  0.00  0.00    +0.120 A 
ATOM     11  C   LIG    1       -0.761   1.629  -3.521  0.00  0.00    +0.050 A 
BRANCH   6  13
ATOM     12  C   LIG    1       -0.293   1.315  -7.338  0.00  0.00    +0.090 C 
ATOM     13  C   LIG    1       -0.872   1.712  -6.005  0.00  0.00    +0.390 C 
ATOM     14  O   LIG    1       -1.869   2.400  -5.957  0.00  0.00    -0.450 OA
ENDBRANCH   6  13
ENDBRANCH   5  10
ENDBRANCH   4   5
ENDBRANCH   1   4
BRANCH   1  15
ATOM     15  C   LIG    1        0.097   1.174   2.508  0.00  0.00    +0.170 C 
BRANCH  15  16
ATOM     16  N   LIG    1       -0.596   1.651   3.713  0.00  0.00    -0.520 NA
ATOM     17  C   LIG    1       -0.616   3.119   3.763  0.00  0.00    +0.170 C 
ATOM     18  C   LIG    1       -1.498   3.575   4.930  0.00  0.00    +0.280 C 
ATOM     19  N   LIG    1       -1.025   2.917   6.158  0.00  0.00    -0.620 N 
ATOM     20  C   LIG    1       -0.848   1.457   6.141  0.00  0.00    +0.300 C 
ATOM     21  C   LIG    1       -0.761   3.634   7.268  0.00  0.00    +0.520 C 
ATOM     22  O   LIG    1       -0.455   3.068   8.296  0.00  0.00    -0.540 OA
ATOM     23  C   LIG    1        0.009   1.085   4.926  0.00  0.00    +0.170 C 
BRANCH  21  24
ATOM     24  C   LIG    1       -0.845   5.138   7.232  0.00  0.00    -0.030 C 
ATOM     25  C   LIG    1        0.477   5.711   6.720  0.00  0.00    +0.050 C 
ATOM     26  C   LIG    1       -1.118   5.667   8.642  0.00  0.00    +0.050 C 
ENDBRANCH  21  24
ENDBRANCH  15  16
ENDBRANCH   1  15
TORSDOF 8
