REMARK  Name = ZINCkj000005kdps.0
REMARK                            x       y       z     vdW  Elec       q    Type
REMARK                         _______ _______ _______ _____ _____    ______ ____
ROOT
ATOM      1  CA  LIG    1       -0.845   1.600   3.632  0.00  0.00    +0.240 C 
ENDROOT
BRANCH   1   7
ATOM      2  C   LIG    1        1.777  -1.787   6.219  0.00  0.00    +0.100 C 
ATOM      3  C   LIG    1        1.147  -0.421   6.121  0.00  0.00    -0.070 A 
ATOM      4  C   LIG    1        1.247   0.464   7.178  0.00  0.00    +0.030 A 
ATOM      5  C   LIG    1        0.669   1.716   7.088  0.00  0.00    -0.070 A 
ATOM      6  C   LIG    1       -0.008   2.084   5.940  0.00  0.00    +0.030 A 
ATOM      7  C   LIG    1       -0.107   1.199   4.883  0.00  0.00    -0.130 A 
ATOM      8  C   LIG    1        0.777   2.681   8.241  0.00  0.00    +0.100 C 
ATOM      9  C   LIG    1        0.466  -0.055   4.975  0.00  0.00    +0.010 A 
ENDBRANCH   1   7
BRANCH   1  10
ATOM     10  N   LIG    1       -0.118   1.107   2.455  0.00  0.00    -0.500 N 
ATOM     11  H1  LIG    1        0.834   1.440   2.484  0.00  0.00    +0.440 HD
ATOM     12  H2  LIG    1       -0.121   0.099   2.455  0.00  0.00    +0.430 HD
BRANCH  10  13
ATOM     13  C   LIG    1       -0.771   1.599   1.234  0.00  0.00    +0.270 C 
BRANCH  13  14
ATOM     14  C   LIG    1       -0.013   1.086   0.008  0.00  0.00    +0.150 C 
ATOM     15  C   LIG    1       -0.663   1.622  -1.292  0.00  0.00    +0.050 C 
ATOM     16  C   LIG    1        0.541   1.559  -2.272  0.00  0.00    -0.020 C 
ATOM     17  C   LIG    1        1.733   1.884  -1.347  0.00  0.00    +0.230 C 
ATOM     18  O   LIG    1        1.327   1.603  -0.002  0.00  0.00    -0.390 OA
BRANCH  16  19
ATOM     19  C   LIG    1        0.406   2.609  -3.376  0.00  0.00    +0.190 C 
BRANCH  19  20
ATOM     20  O   LIG    1        1.535   2.531  -4.248  0.00  0.00    -0.570 OA
ATOM     21  H   LIG    1        1.516   3.170  -4.974  0.00  0.00    +0.390 HD
ENDBRANCH  19  20
ENDBRANCH  16  19
ENDBRANCH  13  14
ENDBRANCH  10  13
ENDBRANCH   1  10
BRANCH   1  22
ATOM     22  C   LIG    1       -2.251   0.995   3.653  0.00  0.00    +0.220 C 
BRANCH  22  23
ATOM     23  O   LIG    1       -2.157  -0.420   3.831  0.00  0.00    -0.570 OA
ATOM     24  H   LIG    1       -3.013  -0.870   3.854  0.00  0.00    +0.410 HD
ENDBRANCH  22  23
ENDBRANCH   1  22
TORSDOF 8
