REMARK  Name = ZINCbw0000000HcJ.0
REMARK                            x       y       z     vdW  Elec       q    Type
REMARK                         _______ _______ _______ _____ _____    ______ ____
ROOT
ATOM      1  C   LIG    1        1.423   1.615  -0.003  0.00  0.00    -0.030 C 
ATOM      2  C   LIG    1        2.146   1.115  -1.258  0.00  0.00    +0.040 C 
ATOM      3  C   LIG    1        3.618   1.529  -1.194  0.00  0.00    +0.020 C 
ATOM      4  C   LIG    1        4.297   0.848  -0.005  0.00  0.00    -0.010 C 
ATOM      5  C   LIG    1        3.654   1.338   1.297  0.00  0.00    +0.020 C 
ATOM      6  C   LIG    1        4.126  -0.668  -0.119  0.00  0.00    +0.020 C 
ATOM      7  C   LIG    1        2.160   1.109   1.217  0.00  0.00    +0.370 C 
ATOM      8  O   LIG    1        1.573   0.533   2.101  0.00  0.00    -0.450 OA
ENDROOT
BRANCH   1  10
ATOM      9  C   LIG    1       -0.753   1.593  -1.232  0.00  0.00    +0.030 C 
ATOM     10  C   LIG    1       -0.013   1.086   0.008  0.00  0.00    -0.010 C 
ATOM     11  C   LIG    1       -0.729   1.579   1.267  0.00  0.00    +0.010 C 
ENDBRANCH   1  10
TORSDOF 1
