REMARK  Name = ZINCpe00000VVGbP.0
REMARK                            x       y       z     vdW  Elec       q    Type
REMARK                         _______ _______ _______ _____ _____    ______ ____
ROOT
ATOM      1  C   LIG    1       -1.606   1.319  -1.340  0.00  0.00    +0.110 C 
ATOM      2  C   LIG    1       -1.085   0.422  -0.187  0.00  0.00    +0.040 C 
ATOM      3  C   LIG    1       -1.703   1.114   1.053  0.00  0.00    +0.170 C 
ATOM      4  N   LIG    1       -1.640   2.560   0.749  0.00  0.00    -0.500 NA
ATOM      5  C   LIG    1       -1.594   2.730  -0.715  0.00  0.00    +0.210 C 
ENDROOT
BRANCH   1   6
ATOM      6  N   LIG    1       -0.705   1.253  -2.498  0.00  0.00    -0.520 NA
ATOM      7  C   LIG    1       -0.576  -0.127  -2.987  0.00  0.00    +0.200 C 
BRANCH   6   8
ATOM      8  C   LIG    1       -1.157   2.151  -3.570  0.00  0.00    +0.300 C 
BRANCH   8  13
ATOM      9  C   LIG    1        1.675   1.324  -7.670  0.00  0.00    +0.200 C 
ATOM     10  C   LIG    1        1.123   1.890  -6.388  0.00  0.00    +0.170 A 
ATOM     11  N   LIG    1        1.607   2.899  -5.715  0.00  0.00    -0.290 NA
ATOM     12  N   LIG    1        0.882   3.113  -4.675  0.00  0.00    -0.270 NA
ATOM     13  C   LIG    1       -0.091   2.244  -4.630  0.00  0.00    +0.180 A 
ATOM     14  N   LIG    1        0.032   1.446  -5.718  0.00  0.00    -0.470 N 
ATOM     15  C   LIG    1       -0.839   0.329  -6.094  0.00  0.00    +0.320 C 
ENDBRANCH   8  13
ENDBRANCH   6   8
ENDBRANCH   1   6
BRANCH   4  16
ATOM     16  C   LIG    1       -2.789   3.270   1.326  0.00  0.00    +0.180 C 
BRANCH  16  17
ATOM     17  C   LIG    1       -2.739   4.720   0.920  0.00  0.00    -0.090 A 
ATOM     18  C   LIG    1       -1.552   5.424   1.016  0.00  0.00    +0.060 A 
ATOM     19  C   LIG    1       -1.505   6.753   0.638  0.00  0.00    +0.010 A 
ATOM     20  C   LIG    1       -2.646   7.381   0.176  0.00  0.00    +0.010 A 
ATOM     21  C   LIG    1       -3.833   6.680   0.086  0.00  0.00    +0.000 A 
ATOM     22  C   LIG    1       -3.880   5.349   0.458  0.00  0.00    +0.010 A 
ENDBRANCH  16  17
BRANCH  16  23
ATOM     23  C   LIG    1       -2.740   3.167   2.829  0.00  0.00    +0.530 C 
ATOM     24  O   LIG    1       -1.675   3.037   3.393  0.00  0.00    -0.510 OA
ATOM     25  N   LIG    1       -3.881   3.218   3.545  0.00  0.00    -0.860 N 
ATOM     26  H   LIG    1       -3.850   3.152   4.512  0.00  0.00    +0.400 HD
ATOM     27  H   LIG    1       -4.733   3.322   3.093  0.00  0.00    +0.400 HD
ENDBRANCH  16  23
ENDBRANCH   4  16
TORSDOF 6
