REMARK  Name = ZINCqH0000008vpw.0
REMARK                            x       y       z     vdW  Elec       q    Type
REMARK                         _______ _______ _______ _____ _____    ______ ____
ROOT
ATOM      1  C   LIG    1        7.367   2.437  -0.048  0.00  0.00    +0.520 C 
ATOM      2  N   LIG    1        6.453   1.447  -0.066  0.00  0.00    -0.610 N 
ATOM      3  C   LIG    1        6.112   0.764  -1.321  0.00  0.00    +0.270 C 
ATOM      4  C   LIG    1        4.594   0.821  -1.517  0.00  0.00    +0.020 C 
ATOM      5  C   LIG    1        3.902   0.243  -0.280  0.00  0.00    +0.070 C 
ATOM      6  C   LIG    1        4.263   1.084   0.947  0.00  0.00    +0.010 C 
ATOM      7  C   LIG    1        5.777   1.030   1.171  0.00  0.00    +0.270 C 
ATOM      8  O   LIG    1        7.918   2.772  -1.076  0.00  0.00    -0.510 OA
ENDROOT
BRANCH   5   9
ATOM      9  C   LIG    1        2.409   0.266  -0.483  0.00  0.00    -0.200 A 
ATOM     10  C   LIG    1        1.570  -0.804  -0.481  0.00  0.00    +0.230 A 
ATOM     11  N   LIG    1        0.317  -0.397  -0.693  0.00  0.00    -0.540 NA
ATOM     12  C   LIG    1        0.271   0.917  -0.840  0.00  0.00    +0.250 A 
ATOM     13  N   LIG    1       -0.746   1.809  -1.067  0.00  0.00    -0.500 N 
ATOM     14  H   LIG    1       -1.657   1.487  -1.151  0.00  0.00    +0.420 HD
ATOM     15  C   LIG    1       -0.492   3.123  -1.177  0.00  0.00    +0.330 A 
ATOM     16  C   LIG    1        0.769   3.622  -1.062  0.00  0.00    -0.080 A 
ATOM     17  C   LIG    1        1.843   2.771  -0.827  0.00  0.00    +0.170 A 
ATOM     18  C   LIG    1        1.603   1.403  -0.713  0.00  0.00    -0.150 A 
ENDBRANCH   5   9
BRANCH   1  20
ATOM     19  C   LIG    1        8.367   2.128   2.200  0.00  0.00    +0.060 C 
ATOM     20  C   LIG    1        7.706   3.127   1.248  0.00  0.00    +0.170 C 
BRANCH  20  21
ATOM     21  O   LIG    1        8.606   4.207   0.991  0.00  0.00    -0.280 OA
BRANCH  21  22
ATOM     22  C   LIG    1        8.619   5.226   1.891  0.00  0.00    +0.130 A 
ATOM     23  C   LIG    1        7.862   5.139   3.050  0.00  0.00    -0.080 A 
ATOM     24  C   LIG    1        7.881   6.174   3.965  0.00  0.00    +0.050 A 
ATOM     25  C   LIG    1        8.646   7.300   3.721  0.00  0.00    -0.040 A 
ATOM     26  C   LIG    1        9.396   7.391   2.564  0.00  0.00    +0.050 A 
ATOM     27  C   LIG    1        9.385   6.357   1.648  0.00  0.00    -0.020 A 
ENDBRANCH  21  22
ENDBRANCH  20  21
ENDBRANCH   1  20
TORSDOF 4
