REMARK  Name = ZINCqH0000000ekl.0
REMARK                            x       y       z     vdW  Elec       q    Type
REMARK                         _______ _______ _______ _____ _____    ______ ____
ROOT
ATOM      1  N   LIG    1        0.332  -2.844   0.086  0.00  0.00    -0.490 N 
ATOM      2  C   LIG    1        1.377  -2.066  -0.259  0.00  0.00    +0.590 C 
ATOM      3  O   LIG    1        2.493  -2.544  -0.333  0.00  0.00    -0.500 OA
ENDROOT
BRANCH   1   4
ATOM      4  C   LIG    1        0.539  -4.175   0.426  0.00  0.00    +0.250 A 
ATOM      5  N   LIG    1       -0.389  -5.003   0.777  0.00  0.00    -0.500 NA
ATOM      6  C   LIG    1       -0.028  -6.247   1.068  0.00  0.00    +0.090 A 
ATOM      7  C   LIG    1        1.296  -6.453   0.960  0.00  0.00    -0.280 A 
ATOM      8  C   LIG    1        1.999  -7.762   1.234  0.00  0.00    +0.120 C 
ATOM      9  C   LIG    1        1.050  -8.671   2.023  0.00  0.00    +0.020 C 
ATOM     10  C   LIG    1       -0.312  -8.698   1.323  0.00  0.00    +0.020 C 
ATOM     11  C   LIG    1       -0.998  -7.340   1.490  0.00  0.00    +0.120 C 
ATOM     12  S   LIG    1        2.061  -4.953   0.451  0.00  0.00    +0.230 S 
ENDBRANCH   1   4
BRANCH   2  13
ATOM     13  C   LIG    1        1.167  -0.637  -0.547  0.00  0.00    +0.020 A 
ATOM     14  C   LIG    1        2.192   0.215  -0.769  0.00  0.00    -0.020 A 
ATOM     15  S   LIG    1        1.566   1.778  -1.065  0.00  0.00    +0.180 S 
ATOM     16  C   LIG    1       -0.077   1.179  -0.868  0.00  0.00    +0.150 A 
ATOM     17  N   LIG    1       -0.042  -0.093  -0.606  0.00  0.00    -0.440 NA
BRANCH  16  18
ATOM     18  C   LIG    1       -1.305   1.994  -0.988  0.00  0.00    -0.190 A 
ATOM     19  C   LIG    1       -1.364   3.332  -1.263  0.00  0.00    +0.270 A 
ATOM     20  N   LIG    1       -2.663   3.686  -1.286  0.00  0.00    -0.360 N 
ATOM     21  N   LIG    1       -3.433   2.548  -1.019  0.00  0.00    -0.290 NA
ATOM     22  C   LIG    1       -3.181   5.032  -1.544  0.00  0.00    +0.370 C 
ATOM     23  C   LIG    1       -2.630   1.532  -0.846  0.00  0.00    +0.290 A 
ENDBRANCH  16  18
ENDBRANCH   2  13
BRANCH   1  24
ATOM     24  C   LIG    1       -1.023  -2.287   0.101  0.00  0.00    +0.350 C 
BRANCH  24  26
ATOM     25  C   LIG    1       -2.740  -2.910  -1.518  0.00  0.00    +0.030 C 
ATOM     26  C   LIG    1       -1.594  -2.317  -1.293  0.00  0.00    -0.040 C 
ENDBRANCH  24  26
ENDBRANCH   1  24
TORSDOF 5
