REMARK  Name = ZINCqH0000039AN6.0
REMARK                            x       y       z     vdW  Elec       q    Type
REMARK                         _______ _______ _______ _____ _____    ______ ____
ROOT
ATOM      1  O   LIG    1       -3.067   3.253   3.684  0.00  0.00    -0.580 OA
ATOM      2  C   LIG    1       -3.512   3.689   2.639  0.00  0.00    +0.720 C 
ATOM      3  N   LIG    1       -4.606   4.475   2.649  0.00  0.00    -0.620 N 
ATOM      4  C   LIG    1       -5.245   5.073   1.463  0.00  0.00    +0.240 C 
ATOM      5  C   LIG    1       -6.715   5.322   1.890  0.00  0.00    +0.040 C 
ATOM      6  C   LIG    1       -6.538   5.755   3.369  0.00  0.00    +0.050 C 
ATOM      7  C   LIG    1       -5.356   4.885   3.845  0.00  0.00    +0.300 C 
ATOM      8  N   LIG    1       -2.911   3.384   1.472  0.00  0.00    -0.750 N 
ATOM      9  H   LIG    1       -3.266   3.731   0.639  0.00  0.00    +0.400 HD
ENDROOT
BRANCH   7  10
ATOM     10  C   LIG    1       -4.466   5.685   4.760  0.00  0.00    +0.120 A 
ATOM     11  C   LIG    1       -4.166   5.199   6.018  0.00  0.00    -0.010 A 
ATOM     12  C   LIG    1       -3.346   5.944   6.852  0.00  0.00    +0.050 A 
ATOM     13  C   LIG    1       -2.856   7.154   6.387  0.00  0.00    -0.040 A 
ATOM     14  C   LIG    1       -3.199   7.576   5.116  0.00  0.00    +0.240 A 
ATOM     15  N   LIG    1       -3.977   6.839   4.348  0.00  0.00    -0.470 NA
ENDBRANCH   7  10
BRANCH   8  16
ATOM     16  C   LIG    1       -1.722   2.529   1.461  0.00  0.00    +0.270 C 
BRANCH  16  17
ATOM     17  C   LIG    1       -1.241   2.341   0.021  0.00  0.00    +0.110 C 
BRANCH  17  18
ATOM     18  C   LIG    1       -0.018   1.461   0.010  0.00  0.00    -0.160 A 
ATOM     19  C   LIG    1        1.260   1.871   0.000  0.00  0.00    +0.230 A 
ATOM     20  N   LIG    1        2.098   0.788  -0.014  0.00  0.00    -0.590 N 
ATOM     21  H   LIG    1        3.066   0.833  -0.022  0.00  0.00    +0.420 HD
ATOM     22  C   LIG    1        1.359  -0.374  -0.013  0.00  0.00    +0.120 A 
ATOM     23  C   LIG    1        1.698  -1.723  -0.022  0.00  0.00    -0.040 A 
ATOM     24  C   LIG    1        0.703  -2.679  -0.019  0.00  0.00    +0.120 A 
ATOM     25  C   LIG    1       -0.636  -2.307  -0.004  0.00  0.00    -0.040 A 
ATOM     26  C   LIG    1       -0.989  -0.987   0.006  0.00  0.00    +0.090 A 
ATOM     27  F   LIG    1        1.034  -3.989  -0.028  0.00  0.00    -0.140 F 
ATOM     28  C   LIG    1        0.002  -0.004   0.002  0.00  0.00    -0.110 A 
ENDBRANCH  17  18
ENDBRANCH  16  17
ENDBRANCH   8  16
TORSDOF 4
