REMARK  Name = ZINCpk000000ndDM.0
REMARK                            x       y       z     vdW  Elec       q    Type
REMARK                         _______ _______ _______ _____ _____    ______ ____
ROOT
ATOM      1  N   LIG    1       -0.485   9.239   2.681  0.00  0.00    -0.740 N 
ATOM      2  H   LIG    1        0.427   8.924   2.784  0.00  0.00    +0.400 HD
ATOM      3  C   LIG    1       -1.255   8.758   1.685  0.00  0.00    +0.710 C 
ATOM      4  N   LIG    1       -0.794   7.767   0.896  0.00  0.00    -0.630 N 
ATOM      5  C   LIG    1       -1.656   7.153  -0.126  0.00  0.00    +0.310 C 
ATOM      6  C   LIG    1       -1.611   5.631   0.050  0.00  0.00    +0.200 C 
ATOM      7  N   LIG    1       -0.213   5.181   0.035  0.00  0.00    -0.480 N 
ATOM      8  C   LIG    1        0.540   5.744   1.163  0.00  0.00    +0.190 C 
ATOM      9  C   LIG    1        0.584   7.271   1.034  0.00  0.00    +0.300 C 
ATOM     10  O   LIG    1       -2.365   9.217   1.498  0.00  0.00    -0.580 OA
ENDROOT
BRANCH   7  11
ATOM     11  C   LIG    1       -0.136   3.793   0.028  0.00  0.00    +0.310 A 
ATOM     12  C   LIG    1        1.108   3.171   0.014  0.00  0.00    -0.050 A 
ATOM     13  C   LIG    1        1.169   1.789   0.007  0.00  0.00    +0.090 A 
ATOM     14  C   LIG    1       -0.020   1.073   0.015  0.00  0.00    -0.060 A 
ATOM     15  C   LIG    1       -1.220   1.756   0.023  0.00  0.00    +0.290 A 
ATOM     16  N   LIG    1       -1.249   3.075   0.035  0.00  0.00    -0.520 NA
ENDBRANCH   7  11
BRANCH   1  17
ATOM     17  C   LIG    1       -1.026  10.236   3.608  0.00  0.00    +0.290 C 
BRANCH  17  18
ATOM     18  C   LIG    1        0.045  10.611   4.635  0.00  0.00    +0.290 C 
BRANCH  18  20
ATOM     19  C   LIG    1        0.274  12.089   6.558  0.00  0.00    +0.650 C 
ATOM     20  N   LIG    1       -0.496  11.608   5.562  0.00  0.00    -0.710 N 
ATOM     21  H   LIG    1       -1.407  11.923   5.458  0.00  0.00    +0.410 HD
ATOM     22  O   LIG    1        1.416  11.696   6.688  0.00  0.00    -0.560 OA
BRANCH  19  23
ATOM     23  O   LIG    1       -0.223  13.006   7.410  0.00  0.00    -0.360 OA
BRANCH  23  25
ATOM     24  C   LIG    1        1.897  14.129   7.830  0.00  0.00    +0.040 C 
ATOM     25  C   LIG    1        0.663  13.479   8.459  0.00  0.00    +0.140 C 
ATOM     26  C   LIG    1        1.096  12.300   9.331  0.00  0.00    +0.040 C 
ATOM     27  C   LIG    1       -0.071  14.509   9.320  0.00  0.00    +0.080 C 
ENDBRANCH  23  25
ENDBRANCH  19  23
ENDBRANCH  18  20
ENDBRANCH  17  18
ENDBRANCH   1  17
TORSDOF 6
