REMARK  Name = ZINCqH00000503nY.0
REMARK                            x       y       z     vdW  Elec       q    Type
REMARK                         _______ _______ _______ _____ _____    ______ ____
ROOT
ATOM      1  C   LIG    1       -4.996   0.927   0.168  0.00  0.00    +0.260 C 
ENDROOT
BRANCH   1   5
ATOM      2  C   LIG    1       -2.816   5.424   0.372  0.00  0.00    +0.120 C 
ATOM      3  C   LIG    1       -2.724   3.921   0.326  0.00  0.00    -0.010 A 
ATOM      4  C   LIG    1       -3.851   3.150   0.271  0.00  0.00    -0.100 A 
ATOM      5  C   LIG    1       -3.742   1.760   0.229  0.00  0.00    +0.180 A 
ATOM      6  N   LIG    1       -2.577   1.160   0.240  0.00  0.00    -0.440 NA
ATOM      7  C   LIG    1       -1.436   1.856   0.288  0.00  0.00    +0.130 A 
ATOM      8  C   LIG    1       -0.190   1.206   0.306  0.00  0.00    +0.050 A 
ATOM      9  C   LIG    1        0.954   1.940   0.360  0.00  0.00    +0.040 A 
ATOM     10  C   LIG    1        0.914   3.332   0.404  0.00  0.00    +0.020 A 
ATOM     11  C   LIG    1       -0.275   3.997   0.394  0.00  0.00    +0.030 A 
ATOM     12 CL   LIG    1       -5.417   3.899   0.254  0.00  0.00    -0.050 Cl
ATOM     13  C   LIG    1       -1.475   3.272   0.339  0.00  0.00    -0.100 A 
ENDBRANCH   1   5
BRANCH   1  14
ATOM     14  N   LIG    1       -5.366   0.701  -1.236  0.00  0.00    -0.530 NA
ATOM     15  C   LIG    1       -5.742   1.961  -1.890  0.00  0.00    +0.180 C 
ATOM     16  C   LIG    1       -5.945   1.714  -3.389  0.00  0.00    +0.300 C 
ATOM     17  N   LIG    1       -6.907   0.615  -3.556  0.00  0.00    -0.610 N 
ATOM     18  C   LIG    1       -6.669  -0.637  -2.820  0.00  0.00    +0.300 C 
ATOM     19  C   LIG    1       -7.980   0.750  -4.361  0.00  0.00    +0.600 C 
ATOM     20  O   LIG    1       -8.730  -0.191  -4.538  0.00  0.00    -0.520 OA
ATOM     21  C   LIG    1       -6.438  -0.297  -1.344  0.00  0.00    +0.180 C 
BRANCH  19  22
ATOM     22  C   LIG    1       -8.243   2.032  -5.022  0.00  0.00    -0.080 A 
ATOM     23  C   LIG    1       -9.354   2.347  -5.750  0.00  0.00    +0.050 A 
ATOM     24  C   LIG    1       -9.187   3.668  -6.193  0.00  0.00    -0.060 A 
ATOM     25  C   LIG    1       -7.991   4.095  -5.728  0.00  0.00    +0.200 A 
ATOM     26  O   LIG    1       -7.426   3.106  -5.023  0.00  0.00    -0.160 OA
ENDBRANCH  19  22
ENDBRANCH   1  14
TORSDOF 3
