REMARK  Name = ZINCpk000000n25f.0
REMARK                            x       y       z     vdW  Elec       q    Type
REMARK                         _______ _______ _______ _____ _____    ______ ____
ROOT
ATOM      1  C   LIG    1       -0.753   1.593  -1.232  0.00  0.00    +0.200 C 
ENDROOT
BRANCH   1   2
ATOM      2  O   LIG    1       -2.093   1.098  -1.221  0.00  0.00    -0.540 OA
ATOM      3  H   LIG    1       -2.157   0.133  -1.226  0.00  0.00    +0.380 HD
ENDBRANCH   1   2
BRANCH   1   4
ATOM      4  C   LIG    1       -0.037   1.099  -2.490  0.00  0.00    +0.180 C 
BRANCH   4   5
ATOM      5  O   LIG    1       -0.658   1.667  -3.645  0.00  0.00    -0.300 OA
BRANCH   5  10
ATOM      6  C   LIG    1       -0.156   1.490  -7.255  0.00  0.00    -0.130 A 
ATOM      7  C   LIG    1        0.937   0.620  -7.316  0.00  0.00    +0.030 A 
ATOM      8  C   LIG    1        1.480   0.115  -6.153  0.00  0.00    +0.040 A 
ATOM      9  C   LIG    1        0.948   0.465  -4.926  0.00  0.00    -0.050 A 
ATOM     10  C   LIG    1       -0.139   1.328  -4.855  0.00  0.00    +0.120 A 
ATOM     11  C   LIG    1       -0.696   1.838  -6.014  0.00  0.00    +0.050 A 
BRANCH   6  13
ATOM     12  C   LIG    1       -0.158   1.649  -9.830  0.00  0.00    +0.080 C 
ATOM     13  C   LIG    1       -0.739   2.031  -8.493  0.00  0.00    +0.390 C 
ATOM     14  O   LIG    1       -1.687   2.785  -8.438  0.00  0.00    -0.450 OA
ENDBRANCH   6  13
ENDBRANCH   5  10
ENDBRANCH   4   5
ENDBRANCH   1   4
BRANCH   1  15
ATOM     15  C   LIG    1       -0.013   1.086   0.008  0.00  0.00    +0.310 C 
BRANCH  15  16
ATOM     16  N   LIG    1       -0.698   1.558   1.213  0.00  0.00    -0.570 N 
ATOM     17  C   LIG    1       -0.418   2.721   1.839  0.00  0.00    +0.530 C 
ATOM     18  C   LIG    1       -1.324   2.761   3.049  0.00  0.00    +0.220 C 
ATOM     19  C   LIG    1       -2.225   3.999   3.018  0.00  0.00    +0.050 C 
ATOM     20  C   LIG    1       -3.359   3.807   4.030  0.00  0.00    +0.030 C 
ATOM     21  C   LIG    1       -4.236   2.620   3.632  0.00  0.00    +0.020 C 
ATOM     22  C   LIG    1       -3.400   1.331   3.645  0.00  0.00    +0.330 C 
ATOM     23  N   LIG    1       -2.196   1.583   2.851  0.00  0.00    -0.620 N 
ATOM     24  O   LIG    1        0.391   3.559   1.501  0.00  0.00    -0.460 OA
ATOM     25  C   LIG    1       -1.679   0.886   1.835  0.00  0.00    +0.710 C 
ATOM     26  O   LIG    1       -2.054  -0.224   1.512  0.00  0.00    -0.540 OA
ENDBRANCH  15  16
ENDBRANCH   1  15
TORSDOF 7
