REMARK  Name = ZINCqH0000033x0H.0
REMARK                            x       y       z     vdW  Elec       q    Type
REMARK                         _______ _______ _______ _____ _____    ______ ____
ROOT
ATOM      1  C   LIG    1        3.432  -0.159   0.788  0.00  0.00    +0.590 C 
ATOM      2  N   LIG    1        2.777   0.326  -0.285  0.00  0.00    -0.570 N 
ATOM      3  O   LIG    1        4.647  -0.228   0.779  0.00  0.00    -0.500 OA
ENDROOT
BRANCH   1   8
ATOM      4  C   LIG    1        1.847  -1.859   3.619  0.00  0.00    -0.200 A 
ATOM      5  C   LIG    1        1.310  -0.588   3.709  0.00  0.00    +0.110 A 
ATOM      6  N   LIG    1        1.813   0.157   2.712  0.00  0.00    -0.520 N 
ATOM      7  H   LIG    1        1.601   1.088   2.545  0.00  0.00    +0.420 HD
ATOM      8  C   LIG    1        2.679  -0.611   1.965  0.00  0.00    -0.050 A 
ATOM      9  C   LIG    1        0.326  -0.119   4.749  0.00  0.00    +0.160 C 
ATOM     10  C   LIG    1        2.714  -1.864   2.501  0.00  0.00    -0.040 A 
ATOM     11  C   LIG    1        3.524  -3.032   2.001  0.00  0.00    +0.130 C 
BRANCH   4  12
ATOM     12  C   LIG    1        1.566  -2.994   4.513  0.00  0.00    +0.550 C 
ATOM     13  O   LIG    1        0.653  -3.755   4.260  0.00  0.00    -0.500 OA
BRANCH  12  14
ATOM     14  O   LIG    1        2.321  -3.189   5.612  0.00  0.00    -0.350 OA
BRANCH  14  16
ATOM     15  C   LIG    1        2.945  -4.386   7.639  0.00  0.00    +0.070 C 
ATOM     16  C   LIG    1        1.986  -4.328   6.448  0.00  0.00    +0.200 C 
ENDBRANCH  14  16
ENDBRANCH  12  14
ENDBRANCH   4  12
ENDBRANCH   1   8
BRANCH   2  17
ATOM     17  C   LIG    1        3.529   0.812  -1.445  0.00  0.00    +0.190 C 
ATOM     18  C   LIG    1        4.995   0.391  -1.562  0.00  0.00    +0.040 C 
ATOM     19  C   LIG    1        4.640   1.833  -1.189  0.00  0.00    +0.010 C 
ENDBRANCH   2  17
BRANCH   2  20
ATOM     20  C   LIG    1        1.312   0.368  -0.292  0.00  0.00    +0.340 C 
BRANCH  20  21
ATOM     21  C   LIG    1        0.851   1.783  -0.528  0.00  0.00    -0.140 A 
ATOM     22  C   LIG    1        0.375   2.539   0.526  0.00  0.00    +0.040 A 
ATOM     23  C   LIG    1       -0.043   3.840   0.311  0.00  0.00    +0.010 A 
ATOM     24  C   LIG    1        0.005   4.381  -0.960  0.00  0.00    +0.060 A 
ATOM     25  C   LIG    1        0.475   3.624  -2.017  0.00  0.00    -0.010 A 
ATOM     26  C   LIG    1        0.899   2.324  -1.802  0.00  0.00    +0.120 A 
ATOM     27  F   LIG    1        1.360   1.584  -2.834  0.00  0.00    -0.130 F 
ENDBRANCH  20  21
ENDBRANCH   2  20
TORSDOF 7
