REMARK  Name = ZINCqH0000006ZOr.0
REMARK                            x       y       z     vdW  Elec       q    Type
REMARK                         _______ _______ _______ _____ _____    ______ ____
ROOT
ATOM      1  S   LIG    1       -0.858   1.671   1.497  0.00  0.00    +0.160 S 
ENDROOT
BRANCH   1   5
ATOM      2  C   LIG    1        1.041   0.397   4.632  0.00  0.00    +0.230 A 
ATOM      3  N   LIG    1        1.766  -0.097   3.658  0.00  0.00    -0.270 NA
ATOM      4  N   LIG    1        1.252   0.240   2.528  0.00  0.00    -0.280 NA
ATOM      5  C   LIG    1        0.182   0.971   2.735  0.00  0.00    +0.110 A 
ATOM      6  O   LIG    1        0.022   1.084   4.068  0.00  0.00    -0.200 OA
BRANCH   2  10
ATOM      7  C   LIG    1        1.756  -0.076   8.792  0.00  0.00    +0.160 A 
ATOM      8  C   LIG    1        2.616  -0.659   7.871  0.00  0.00    +0.000 A 
ATOM      9  C   LIG    1        2.388  -0.508   6.520  0.00  0.00    +0.130 A 
ATOM     10  C   LIG    1        1.290   0.233   6.078  0.00  0.00    -0.070 A 
ATOM     11  C   LIG    1        0.431   0.823   7.008  0.00  0.00    +0.100 A 
ATOM     12  C   LIG    1        0.663   0.662   8.357  0.00  0.00    -0.070 A 
BRANCH   7  14
ATOM     13  C   LIG    1        1.062   0.399  11.015  0.00  0.00    +0.250 C 
ATOM     14  O   LIG    1        1.985  -0.227  10.123  0.00  0.00    -0.310 OA
ENDBRANCH   7  14
ENDBRANCH   2  10
ENDBRANCH   1   5
BRANCH   1  15
ATOM     15  C   LIG    1       -0.009   1.091   0.008  0.00  0.00    +0.110 C 
BRANCH  15  16
ATOM     16  C   LIG    1       -0.743   1.583  -1.213  0.00  0.00    +0.540 C 
ATOM     17  N   LIG    1       -0.288   1.272  -2.443  0.00  0.00    -0.660 N 
ATOM     18  H   LIG    1        0.546   0.789  -2.544  0.00  0.00    +0.420 HD
ATOM     19  O   LIG    1       -1.742   2.260  -1.088  0.00  0.00    -0.500 OA
BRANCH  17  20
ATOM     20  C   LIG    1       -1.022   1.647  -3.575  0.00  0.00    +0.160 A 
ATOM     21  C   LIG    1       -1.722   2.845  -3.585  0.00  0.00    +0.060 A 
ATOM     22  C   LIG    1       -2.446   3.214  -4.702  0.00  0.00    +0.050 A 
ATOM     23  C   LIG    1       -2.474   2.389  -5.814  0.00  0.00    +0.060 A 
ATOM     24  C   LIG    1       -1.775   1.191  -5.807  0.00  0.00    +0.090 A 
ATOM     25  F   LIG    1       -1.803   0.387  -6.893  0.00  0.00    -0.120 F 
ATOM     26  F   LIG    1       -3.182   2.752  -6.905  0.00  0.00    -0.130 F 
ATOM     27  C   LIG    1       -1.045   0.822  -4.692  0.00  0.00    +0.000 A 
ENDBRANCH  17  20
ENDBRANCH  15  16
ENDBRANCH   1  15
TORSDOF 6
