REMARK  Name = ZINCqH0000001PIW.0
REMARK                            x       y       z     vdW  Elec       q    Type
REMARK                         _______ _______ _______ _____ _____    ______ ____
ROOT
ATOM      1  C   LIG    1       -0.014   1.212   0.009  0.00  0.00    +0.580 C 
ATOM      2  N   LIG    1        1.143   1.901   0.001  0.00  0.00    -0.720 N 
ATOM      3  H   LIG    1        1.130   2.871   0.007  0.00  0.00    +0.400 HD
ATOM      4  O   LIG    1        0.002  -0.004   0.002  0.00  0.00    -0.520 OA
ENDROOT
BRANCH   1  11
ATOM      5  C   LIG    1       -5.126   1.678   0.035  0.00  0.00    +0.080 A 
ATOM      6  N   LIG    1       -5.703   2.843   0.043  0.00  0.00    -0.300 NA
ATOM      7  O   LIG    1       -4.925   3.767   0.045  0.00  0.00    +0.090 OA
ATOM      8  C   LIG    1       -3.639   3.374   0.037  0.00  0.00    +0.230 A 
ATOM      9  N   LIG    1       -2.471   3.994   0.036  0.00  0.00    -0.460 NA
ATOM     10  C   LIG    1       -1.335   3.332   0.032  0.00  0.00    +0.370 A 
ATOM     11  C   LIG    1       -1.304   1.933   0.019  0.00  0.00    -0.210 A 
ATOM     12  C   LIG    1       -2.512   1.227   0.021  0.00  0.00    +0.230 A 
ATOM     13  C   LIG    1       -3.687   1.962   0.030  0.00  0.00    -0.220 A 
BRANCH   5  15
ATOM     14  C   LIG    1       -6.660   0.182   1.283  0.00  0.00    +0.040 C 
ATOM     15  C   LIG    1       -5.792   0.326   0.031  0.00  0.00    +0.080 C 
ATOM     16  C   LIG    1       -6.670   0.194  -1.216  0.00  0.00    +0.040 C 
ENDBRANCH   5  15
ENDBRANCH   1  11
BRANCH   2  17
ATOM     17  C   LIG    1        2.422   1.186  -0.015  0.00  0.00    +0.300 C 
ATOM     18  C   LIG    1        2.819   0.820   1.417  0.00  0.00    +0.040 C 
BRANCH  17  19
ATOM     19  C   LIG    1        3.483   2.068  -0.621  0.00  0.00    -0.090 A 
ATOM     20  C   LIG    1        3.511   3.418  -0.325  0.00  0.00    +0.070 A 
ATOM     21  C   LIG    1        4.488   4.226  -0.877  0.00  0.00    +0.040 A 
ATOM     22  C   LIG    1        5.430   3.686  -1.733  0.00  0.00    +0.110 A 
ATOM     23  C   LIG    1        5.398   2.336  -2.032  0.00  0.00    -0.040 A 
ATOM     24  C   LIG    1        4.425   1.528  -1.476  0.00  0.00    +0.120 A 
BRANCH  23  25
ATOM     25  N   LIG    1        6.407   1.758  -2.949  0.00  0.00    +0.020 N 
ATOM     26  O   LIG    1        7.264   2.471  -3.439  0.00  0.00    -0.150 OA
ATOM     27  O   LIG    1        6.379   0.569  -3.213  0.00  0.00    -0.150 OA
ENDBRANCH  23  25
ENDBRANCH  17  19
ENDBRANCH   2  17
TORSDOF 5
