REMARK  Name = ZINCpk00000y6wqt.0
REMARK                            x       y       z     vdW  Elec       q    Type
REMARK                         _______ _______ _______ _____ _____    ______ ____
ROOT
ATOM      1  C   LIG    1        1.701   2.839  -2.528  0.00  0.00    +0.300 C 
ENDROOT
BRANCH   1   6
ATOM      2  C   LIG    1        2.398   3.625  -0.244  0.00  0.00    +0.100 C 
ATOM      3  C   LIG    1        1.387   4.401   0.635  0.00  0.00    +0.020 C 
ATOM      4  C   LIG    1        0.972   5.567  -0.299  0.00  0.00    +0.210 C 
ATOM      5  O   LIG    1        0.936   4.955  -1.606  0.00  0.00    -0.350 OA
ATOM      6  C   LIG    1        2.061   4.063  -1.683  0.00  0.00    +0.160 C 
BRANCH   2  11
ATOM      7  C   LIG    1        0.364  -0.934   0.534  0.00  0.00    +0.200 C 
ATOM      8  C   LIG    1        1.331   0.186   0.248  0.00  0.00    +0.180 A 
ATOM      9  N   LIG    1        2.607   0.061  -0.001  0.00  0.00    -0.290 NA
ATOM     10  N   LIG    1        3.125   1.222  -0.198  0.00  0.00    -0.280 NA
ATOM     11  C   LIG    1        2.203   2.139  -0.086  0.00  0.00    +0.180 A 
ATOM     12  N   LIG    1        1.039   1.508   0.201  0.00  0.00    -0.580 N 
ATOM     13  H   LIG    1        0.171   1.919   0.340  0.00  0.00    +0.430 HD
ENDBRANCH   2  11
ENDBRANCH   1   6
BRANCH   1  14
ATOM     14  N   LIG    1        1.499   3.249  -3.920  0.00  0.00    -0.590 N 
ATOM     15  C   LIG    1        0.274   3.620  -4.342  0.00  0.00    +0.610 C 
ATOM     16  O   LIG    1       -0.643   3.709  -3.546  0.00  0.00    -0.530 OA
ATOM     17  C   LIG    1        2.629   3.256  -4.853  0.00  0.00    +0.300 C 
BRANCH  15  18
ATOM     18  C   LIG    1        0.047   3.915  -5.757  0.00  0.00    +0.080 A 
ATOM     19  N   LIG    1        0.929   3.748  -6.731  0.00  0.00    -0.400 NA
ATOM     20  C   LIG    1        0.399   4.111  -7.884  0.00  0.00    +0.180 A 
ATOM     21  C   LIG    1       -0.905   4.539  -7.641  0.00  0.00    +0.020 A 
ATOM     22  C   LIG    1       -1.930   5.028  -8.467  0.00  0.00    +0.070 A 
ATOM     23  C   LIG    1       -3.131   5.358  -7.912  0.00  0.00    +0.030 A 
ATOM     24  C   LIG    1       -3.318   5.213  -6.529  0.00  0.00    +0.020 A 
ATOM     25  C   LIG    1       -2.318   4.744  -5.749  0.00  0.00    +0.240 A 
ATOM     26  N   LIG    1       -1.116   4.404  -6.292  0.00  0.00    -0.320 N 
ENDBRANCH  15  18
ENDBRANCH   1  14
TORSDOF 4
