REMARK  Name = ZINCqH0000038NuG.0
REMARK                            x       y       z     vdW  Elec       q    Type
REMARK                         _______ _______ _______ _____ _____    ______ ____
ROOT
ATOM      1  C   LIG    1       -1.354   1.643   0.015  0.00  0.00    +0.060 A 
ATOM      2  C   LIG    1       -2.556   0.949   0.141  0.00  0.00    +0.100 A 
ATOM      3  C   LIG    1       -3.736   1.670   0.144  0.00  0.00    -0.040 A 
ATOM      4  C   LIG    1       -3.685   3.054   0.022  0.00  0.00    +0.360 A 
ATOM      5  N   LIG    1       -2.525   3.680  -0.096  0.00  0.00    -0.450 NA
ATOM      6  C   LIG    1       -1.381   3.025  -0.097  0.00  0.00    +0.280 A 
ENDROOT
BRANCH   1   8
ATOM      7  C   LIG    1       -0.052  -0.264  -0.566  0.00  0.00    +0.520 C 
ATOM      8  N   LIG    1       -0.134   0.954   0.006  0.00  0.00    -0.660 N 
ATOM      9  H   LIG    1        0.650   1.351   0.416  0.00  0.00    +0.410 HD
ATOM     10  O   LIG    1       -1.050  -0.797  -1.002  0.00  0.00    -0.510 OA
BRANCH   7  11
ATOM     11  C   LIG    1        1.280  -0.962  -0.663  0.00  0.00    +0.080 C 
ATOM     12  C   LIG    1        2.248  -0.104  -1.480  0.00  0.00    +0.070 C 
BRANCH  11  19
ATOM     13  C   LIG    1        0.127  -1.537  -3.640  0.00  0.00    +0.160 C 
ATOM     14  C   LIG    1        0.598  -2.556  -2.635  0.00  0.00    +0.050 A 
ATOM     15  N   LIG    1        0.625  -3.848  -2.788  0.00  0.00    -0.370 NA
ATOM     16  O   LIG    1        1.051  -4.404  -1.803  0.00  0.00    +0.100 OA
ATOM     17  C   LIG    1        1.375  -3.527  -0.843  0.00  0.00    -0.020 A 
ATOM     18  C   LIG    1        1.934  -3.846   0.520  0.00  0.00    +0.190 C 
ATOM     19  C   LIG    1        1.099  -2.297  -1.339  0.00  0.00    -0.190 A 
ENDBRANCH  11  19
ENDBRANCH   7  11
ENDBRANCH   1   8
BRANCH   4  20
ATOM     20  N   LIG    1       -4.870   3.790   0.024  0.00  0.00    -0.640 N 
ATOM     21  H   LIG    1       -5.718   3.346   0.183  0.00  0.00    +0.420 HD
ATOM     22  C   LIG    1       -4.838   5.120  -0.196  0.00  0.00    +0.640 C 
ATOM     23  O   LIG    1       -3.771   5.692  -0.304  0.00  0.00    -0.500 OA
BRANCH  22  24
ATOM     24  O   LIG    1       -5.987   5.814  -0.295  0.00  0.00    -0.360 OA
BRANCH  24  25
ATOM     25  C   LIG    1       -5.876   7.242  -0.532  0.00  0.00    +0.140 C 
ATOM     26  C   LIG    1       -5.102   7.891   0.617  0.00  0.00    +0.040 C 
ATOM     27  C   LIG    1       -7.275   7.856  -0.616  0.00  0.00    +0.080 C 
ATOM     28  C   LIG    1       -5.134   7.485  -1.848  0.00  0.00    +0.040 C 
ENDBRANCH  24  25
ENDBRANCH  22  24
ENDBRANCH   4  20
TORSDOF 6
