REMARK  Name = ZINCqH0000007XUq.0
REMARK                            x       y       z     vdW  Elec       q    Type
REMARK                         _______ _______ _______ _____ _____    ______ ____
ROOT
ATOM      1  C   LIG    1        5.713  -0.758  -2.919  0.00  0.00    +0.180 A 
ATOM      2  C   LIG    1        6.264  -1.067  -1.730  0.00  0.00    -0.110 A 
ATOM      3  S   LIG    1        5.205  -0.466  -0.457  0.00  0.00    +0.070 S 
ATOM      4  C   LIG    1        4.088   0.151  -1.671  0.00  0.00    +0.350 A 
ATOM      5  N   LIG    1        4.551  -0.108  -2.855  0.00  0.00    -0.540 NA
ENDROOT
BRANCH   1   9
ATOM      6  C   LIG    1        7.755  -1.901  -6.130  0.00  0.00    -0.180 A 
ATOM      7  C   LIG    1        6.630  -1.272  -6.479  0.00  0.00    +0.020 A 
ATOM      8  C   LIG    1        5.852  -0.836  -5.424  0.00  0.00    +0.050 A 
ATOM      9  C   LIG    1        6.351  -1.115  -4.204  0.00  0.00    -0.130 A 
ATOM     10  S   LIG    1        7.882  -1.963  -4.377  0.00  0.00    +0.130 S 
BRANCH   6  11
ATOM     11  C   LIG    1        8.767  -2.466  -7.093  0.00  0.00    +0.130 C 
BRANCH  11  12
ATOM     12  C   LIG    1        9.813  -1.398  -7.418  0.00  0.00    +0.280 C 
BRANCH  12  13
ATOM     13  N   LIG    1       10.796  -1.948  -8.354  0.00  0.00    -1.120 NA
ATOM     14  H   LIG    1       10.847  -2.906  -8.498  0.00  0.00    +0.420 HD
BRANCH  13  16
ATOM     15  C   LIG    1       12.850  -0.193  -7.871  0.00  0.00    -0.280 C 
ATOM     16  S   LIG    1       11.822  -0.934  -9.169  0.00  0.00    +2.620 S 
ATOM     17  O   LIG    1       10.964   0.043  -9.744  0.00  0.00    -0.950 OA
ATOM     18  O   LIG    1       12.597  -1.800  -9.985  0.00  0.00    -0.960 OA
ENDBRANCH  13  16
ENDBRANCH  12  13
ENDBRANCH  11  12
ENDBRANCH   6  11
ENDBRANCH   1   9
BRANCH   4  19
ATOM     19  N   LIG    1        2.903   0.815  -1.403  0.00  0.00    -0.690 N 
ATOM     20  H   LIG    1        2.346   1.127  -2.133  0.00  0.00    +0.420 HD
BRANCH  19  21
ATOM     21  C   LIG    1        2.490   1.046  -0.016  0.00  0.00    +0.330 C 
BRANCH  21  22
ATOM     22  C   LIG    1        1.175   1.783   0.000  0.00  0.00    -0.130 A 
ATOM     23  C   LIG    1       -0.013   1.076   0.008  0.00  0.00    +0.070 A 
ATOM     24  C   LIG    1       -1.219   1.750   0.017  0.00  0.00    -0.020 A 
ATOM     25  C   LIG    1       -1.237   3.135   0.030  0.00  0.00    +0.110 A 
ATOM     26  C   LIG    1       -0.047   3.842   0.023  0.00  0.00    -0.020 A 
ATOM     27  F   LIG    1       -2.416   3.795   0.045  0.00  0.00    -0.130 F 
ATOM     28  C   LIG    1        1.158   3.165   0.009  0.00  0.00    +0.070 A 
ENDBRANCH  21  22
ENDBRANCH  19  21
ENDBRANCH   4  19
TORSDOF 8
