REMARK  Name = ZINCrm000000OPwR.1
REMARK                            x       y       z     vdW  Elec       q    Type
REMARK                         _______ _______ _______ _____ _____    ______ ____
ROOT
ATOM      1  C   LIG    1       -2.194   4.341   0.158  0.00  0.00    +0.550 C 
ATOM      2  C   LIG    1       -1.988   5.801   0.154  0.00  0.00    -0.010 C 
ATOM      3  C   LIG    1       -2.937   6.581  -0.446  0.00  0.00    +0.070 C 
ATOM      4  C   LIG    1       -4.110   5.924  -1.051  0.00  0.00    -0.110 A 
ATOM      5  C   LIG    1       -4.972   6.630  -1.892  0.00  0.00    +0.140 A 
ATOM      6  C   LIG    1       -6.062   5.992  -2.443  0.00  0.00    +0.040 A 
ATOM      7  C   LIG    1       -6.308   4.655  -2.169  0.00  0.00    +0.120 A 
ATOM      8  C   LIG    1       -5.465   3.943  -1.340  0.00  0.00    +0.010 A 
ATOM      9  C   LIG    1       -4.363   4.569  -0.776  0.00  0.00    +0.160 A 
ATOM     10  N   LIG    1       -3.497   3.877   0.057  0.00  0.00    -0.600 N 
ATOM     11  H   LIG    1       -3.794   3.097   0.552  0.00  0.00    +0.440 HD
ENDROOT
BRANCH   3  12
ATOM     12  C   LIG    1       -2.789   8.053  -0.488  0.00  0.00    +0.550 C 
ATOM     13  N   LIG    1       -1.716   8.639   0.080  0.00  0.00    -0.680 N 
ATOM     14  H   LIG    1       -1.000   8.094   0.442  0.00  0.00    +0.400 HD
ATOM     15  O   LIG    1       -3.635   8.733  -1.034  0.00  0.00    -0.480 OA
BRANCH  13  16
ATOM     16  C   LIG    1       -1.632  10.100   0.152  0.00  0.00    +0.210 C 
ATOM     17  C   LIG    1       -0.291  10.748  -0.196  0.00  0.00    +0.030 C 
ATOM     18  C   LIG    1       -0.765  10.704   1.258  0.00  0.00    +0.030 C 
ENDBRANCH  13  16
ENDBRANCH   3  12
BRANCH   1  19
ATOM     19  N   LIG    1       -1.183   3.513   0.248  0.00  0.00    -0.600 NA
ATOM     20  H   LIG    1       -0.278   3.857   0.313  0.00  0.00    +0.450 HD
BRANCH  19  21
ATOM     21  C   LIG    1       -1.418   2.067   0.249  0.00  0.00    +0.410 C 
BRANCH  21  27
ATOM     22  C   LIG    1        2.196   1.443   0.528  0.00  0.00    +0.100 A 
ATOM     23  C   LIG    1        2.277   0.084   0.552  0.00  0.00    -0.010 A 
ATOM     24  C   LIG    1        1.084  -0.665   0.475  0.00  0.00    +0.520 A 
ATOM     25  N   LIG    1       -0.089  -0.003   0.381  0.00  0.00    -0.610 N 
ATOM     26  H   LIG    1       -0.922  -0.497   0.326  0.00  0.00    +0.440 HD
ATOM     27  C   LIG    1       -0.101   1.344   0.361  0.00  0.00    +0.410 A 
ATOM     28  O   LIG    1        1.112  -1.884   0.494  0.00  0.00    -0.470 OA
ATOM     29  N   LIG    1        1.004   2.037   0.433  0.00  0.00    -0.560 NA
BRANCH  22  30
ATOM     30  C   LIG    1        3.450   2.275   0.608  0.00  0.00    +0.380 C 
BRANCH  30  31
ATOM     31  N   LIG    1        3.627   3.016  -0.647  0.00  0.00    -0.630 N 
ATOM     32  H   LIG    1        3.704   2.365  -1.414  0.00  0.00    +0.440 HD
ATOM     33  H   LIG    1        4.467   3.573  -0.594  0.00  0.00    +0.450 HD
ATOM     34  H   LIG    1        2.832   3.619  -0.797  0.00  0.00    +0.440 HD
ENDBRANCH  30  31
ENDBRANCH  22  30
ENDBRANCH  21  27
ENDBRANCH  19  21
ENDBRANCH   1  19
TORSDOF 7
