REMARK  Name = ZINCrH000004mPcP.0
REMARK                            x       y       z     vdW  Elec       q    Type
REMARK                         _______ _______ _______ _____ _____    ______ ____
ROOT
ATOM      1  C   LIG    1       -1.138   3.244   1.719  0.00  0.00    +0.210 A 
ATOM      2  C   LIG    1       -1.706   3.614   2.929  0.00  0.00    -0.060 A 
ATOM      3  C   LIG    1       -2.207   2.649   3.780  0.00  0.00    +0.130 A 
ATOM      4  C   LIG    1       -2.143   1.309   3.425  0.00  0.00    +0.090 A 
ATOM      5  C   LIG    1       -1.580   0.940   2.211  0.00  0.00    +0.140 A 
ATOM      6  C   LIG    1       -1.074   1.905   1.362  0.00  0.00    -0.690 A 
ENDROOT
BRANCH   4   7
ATOM      7  N   LIG    1       -2.653   0.330   4.288  0.00  0.00    -0.670 N 
ATOM      8  H   LIG    1       -2.232  -0.543   4.333  0.00  0.00    +0.420 HD
ATOM      9  C   LIG    1       -3.727   0.601   5.055  0.00  0.00    +0.540 C 
ATOM     10  O   LIG    1       -4.311   1.657   4.930  0.00  0.00    -0.500 OA
BRANCH   9  11
ATOM     11  C   LIG    1       -4.203  -0.408   6.069  0.00  0.00    +0.070 C 
BRANCH  11  12
ATOM     12  S   LIG    1       -5.656   0.245   6.936  0.00  0.00    -0.010 S 
BRANCH  12  13
ATOM     13  C   LIG    1       -6.062  -1.049   8.060  0.00  0.00    -0.090 A 
ATOM     14  C   LIG    1       -5.298  -2.209   8.091  0.00  0.00    +0.000 A 
ATOM     15  C   LIG    1       -5.619  -3.222   8.974  0.00  0.00    +0.060 A 
ATOM     16  C   LIG    1       -6.700  -3.082   9.826  0.00  0.00    -0.090 A 
ATOM     17  C   LIG    1       -7.463  -1.928   9.797  0.00  0.00    +0.070 A 
ATOM     18 BR   LIG    1       -7.135  -4.471  11.033  0.00  0.00    -0.040 Br
ATOM     19  C   LIG    1       -7.144  -0.910   8.921  0.00  0.00    -0.060 A 
ATOM     20  C   LIG    1       -7.973   0.349   8.894  0.00  0.00    +0.120 C 
ENDBRANCH  12  13
ENDBRANCH  11  12
ENDBRANCH   9  11
ENDBRANCH   4   7
BRANCH   6  21
ATOM     21  S   LIG    1       -0.355   1.435  -0.176  0.00  0.00    +2.700 S 
ATOM     22  O   LIG    1        0.888   2.120  -0.263  0.00  0.00    -0.940 OA
ATOM     23  O   LIG    1       -0.471   0.022  -0.259  0.00  0.00    -0.960 OA
BRANCH  21  24
ATOM     24  N   LIG    1       -1.314   2.055  -1.375  0.00  0.00    -1.000 NA
ATOM     25  C   LIG    1       -2.428   1.264  -1.904  0.00  0.00    +0.290 C 
ATOM     26  C   LIG    1       -1.049   3.393  -1.908  0.00  0.00    +0.310 C 
ENDBRANCH  21  24
ENDBRANCH   6  21
BRANCH   1  28
ATOM     27  C   LIG    1       -0.743   5.553   1.311  0.00  0.00    +0.250 C 
ATOM     28  O   LIG    1       -0.645   4.194   0.881  0.00  0.00    -0.310 OA
ENDBRANCH   1  28
TORSDOF 7
