REMARK  Name = ZINCpe000000XSWd.0
REMARK                            x       y       z     vdW  Elec       q    Type
REMARK                         _______ _______ _______ _____ _____    ______ ____
ROOT
ATOM      1  N   LIG    1        5.946   3.082   0.277  0.00  0.00    -0.720 N 
ATOM      2  H   LIG    1        5.787   2.125   0.258  0.00  0.00    +0.410 HD
ATOM      3  C   LIG    1        7.204   3.554   0.378  0.00  0.00    +0.520 C 
ATOM      4  O   LIG    1        7.403   4.751   0.402  0.00  0.00    -0.510 OA
ENDROOT
BRANCH   1   5
ATOM      5  C   LIG    1        4.818   4.013   0.194  0.00  0.00    +0.300 C 
BRANCH   5   8
ATOM      6  N   LIG    1        2.355   3.889   0.001  0.00  0.00    -0.670 N 
ATOM      7  H   LIG    1        2.341   4.857  -0.060  0.00  0.00    +0.410 HD
ATOM      8  C   LIG    1        3.531   3.236   0.088  0.00  0.00    +0.510 C 
ATOM      9  O   LIG    1        3.554   2.024   0.082  0.00  0.00    -0.520 OA
BRANCH   6  15
ATOM     10  C   LIG    1       -2.386   3.562   1.260  0.00  0.00    +0.090 C 
ATOM     11  C   LIG    1       -1.159   2.987   0.600  0.00  0.00    -0.070 A 
ATOM     12  C   LIG    1       -1.220   1.750  -0.014  0.00  0.00    -0.010 A 
ATOM     13  C   LIG    1       -0.095   1.217  -0.616  0.00  0.00    +0.030 A 
ATOM     14  C   LIG    1        1.091   1.924  -0.614  0.00  0.00    +0.020 A 
ATOM     15  C   LIG    1        1.155   3.170  -0.003  0.00  0.00    +0.140 A 
ATOM     16  C   LIG    1        0.025   3.700   0.605  0.00  0.00    -0.110 A 
ATOM     17  C   LIG    1        0.089   5.051   1.270  0.00  0.00    +0.090 C 
ENDBRANCH   6  15
ENDBRANCH   5   8
ENDBRANCH   1   5
BRANCH   3  18
ATOM     18  C   LIG    1        8.364   2.596   0.463  0.00  0.00    +0.220 C 
BRANCH  18  19
ATOM     19  N   LIG    1        9.618   3.354   0.566  0.00  0.00    -0.510 NA
ATOM     20  C   LIG    1        9.684   4.094   1.833  0.00  0.00    +0.210 C 
BRANCH  19  21
ATOM     21  C   LIG    1       10.782   2.470   0.413  0.00  0.00    +0.210 C 
BRANCH  21  22
ATOM     22  C   LIG    1       12.031   3.302   0.278  0.00  0.00    +0.510 C 
ATOM     23  N   LIG    1       13.227   2.701   0.125  0.00  0.00    -0.730 N 
ATOM     24  H   LIG    1       13.285   1.733   0.102  0.00  0.00    +0.400 HD
ATOM     25  O   LIG    1       11.959   4.512   0.307  0.00  0.00    -0.510 OA
BRANCH  23  26
ATOM     26  C   LIG    1       14.442   3.510  -0.006  0.00  0.00    +0.230 C 
ATOM     27  C   LIG    1       15.507   2.712  -0.760  0.00  0.00    +0.030 C 
ATOM     28  C   LIG    1       14.966   3.872   1.385  0.00  0.00    +0.030 C 
ENDBRANCH  23  26
ENDBRANCH  21  22
ENDBRANCH  19  21
ENDBRANCH  18  19
ENDBRANCH   3  18
TORSDOF 8
