REMARK  Name = ZINCrH000004tlcV.1
REMARK                            x       y       z     vdW  Elec       q    Type
REMARK                         _______ _______ _______ _____ _____    ______ ____
ROOT
ATOM      1  C   LIG    1       -2.591   4.078  -0.056  0.00  0.00    +0.170 A 
ATOM      2  C   LIG    1       -3.755   3.311  -0.052  0.00  0.00    +0.020 A 
ATOM      3  C   LIG    1       -4.980   3.907  -0.128  0.00  0.00    +0.100 A 
ATOM      4  C   LIG    1       -5.075   5.300  -0.221  0.00  0.00    +0.040 A 
ATOM      5  N   LIG    1       -6.122   6.156  -0.313  0.00  0.00    -0.460 NA
ATOM      6  C   LIG    1       -5.680   7.387  -0.377  0.00  0.00    +0.320 A 
ATOM      7  N   LIG    1       -4.311   7.391  -0.329  0.00  0.00    -0.580 N 
ATOM      8  H   LIG    1       -3.736   8.172  -0.360  0.00  0.00    +0.430 HD
ATOM      9  C   LIG    1       -3.902   6.077  -0.231  0.00  0.00    +0.080 A 
ATOM     10  C   LIG    1       -2.663   5.458  -0.148  0.00  0.00    -0.010 A 
ENDROOT
BRANCH   6  11
ATOM     11  C   LIG    1       -6.532   8.592  -0.485  0.00  0.00    +0.190 A 
ATOM     12  C   LIG    1       -7.919   8.456  -0.530  0.00  0.00    +0.050 A 
ATOM     13  C   LIG    1       -8.703   9.593  -0.626  0.00  0.00    +0.100 A 
ATOM     14  C   LIG    1       -8.073  10.829  -0.684  0.00  0.00    -0.080 A 
ATOM     15  C   LIG    1       -6.690  10.890  -0.640  0.00  0.00    +0.290 A 
ATOM     16 CL   LIG    1       -9.011  12.285  -0.813  0.00  0.00    -0.040 Cl
ATOM     17  N   LIG    1       -5.968   9.793  -0.543  0.00  0.00    -0.460 NA
ENDBRANCH   6  11
BRANCH   1  19
ATOM     18  C   LIG    1       -1.204   2.321   0.750  0.00  0.00    +0.570 C 
ATOM     19  N   LIG    1       -1.344   3.450   0.027  0.00  0.00    -0.650 N 
ATOM     20  H   LIG    1       -0.579   3.828  -0.435  0.00  0.00    +0.420 HD
ATOM     21  O   LIG    1       -2.137   1.901   1.406  0.00  0.00    -0.500 OA
BRANCH  18  25
ATOM     22  C   LIG    1        2.469   0.266   0.704  0.00  0.00    -0.050 A 
ATOM     23  C   LIG    1        1.426  -0.252   1.479  0.00  0.00    +0.130 A 
ATOM     24  C   LIG    1        0.219   0.426   1.494  0.00  0.00    +0.050 A 
ATOM     25  C   LIG    1        0.085   1.592   0.744  0.00  0.00    +0.100 A 
ATOM     26  N   LIG    1        1.097   2.056   0.019  0.00  0.00    -0.460 NA
ATOM     27  C   LIG    1        2.257   1.442  -0.022  0.00  0.00    +0.330 A 
BRANCH  22  29
ATOM     28  N   LIG    1        4.742  -0.927   0.615  0.00  0.00    -0.390 NA
ATOM     29  C   LIG    1        3.736  -0.400   0.654  0.00  0.00    +0.250 C 
ENDBRANCH  22  29
ENDBRANCH  18  25
ENDBRANCH   1  19
TORSDOF 4
