REMARK  Name = ZINCrH000004tlcV.0
REMARK                            x       y       z     vdW  Elec       q    Type
REMARK                         _______ _______ _______ _____ _____    ______ ____
ROOT
ATOM      1  C   LIG    1       -2.498  -2.762   0.104  0.00  0.00    +0.140 A 
ATOM      2  C   LIG    1       -3.682  -2.026   0.117  0.00  0.00    +0.060 A 
ATOM      3  C   LIG    1       -4.899  -2.665   0.210  0.00  0.00    +0.040 A 
ATOM      4  C   LIG    1       -4.950  -4.049   0.304  0.00  0.00    +0.050 A 
ATOM      5  N   LIG    1       -5.980  -4.964   0.413  0.00  0.00    -0.580 N 
ATOM      6  H   LIG    1       -6.928  -4.761   0.445  0.00  0.00    +0.430 HD
ATOM      7  C   LIG    1       -5.413  -6.208   0.468  0.00  0.00    +0.330 A 
ATOM      8  N   LIG    1       -4.109  -6.105   0.399  0.00  0.00    -0.470 NA
ATOM      9  C   LIG    1       -3.760  -4.800   0.297  0.00  0.00    +0.070 A 
ATOM     10  C   LIG    1       -2.530  -4.141   0.196  0.00  0.00    +0.050 A 
ENDROOT
BRANCH   7  11
ATOM     11  C   LIG    1       -6.161  -7.479   0.587  0.00  0.00    +0.190 A 
ATOM     12  C   LIG    1       -5.467  -8.688   0.628  0.00  0.00    +0.060 A 
ATOM     13  C   LIG    1       -6.180  -9.869   0.745  0.00  0.00    +0.100 A 
ATOM     14  C   LIG    1       -7.566  -9.803   0.805  0.00  0.00    -0.080 A 
ATOM     15  C   LIG    1       -8.190  -8.567   0.753  0.00  0.00    +0.290 A 
ATOM     16 CL   LIG    1       -8.506 -11.255   0.944  0.00  0.00    -0.040 Cl
ATOM     17  N   LIG    1       -7.487  -7.460   0.647  0.00  0.00    -0.460 NA
ENDBRANCH   7  11
BRANCH   1  19
ATOM     18  C   LIG    1       -1.170  -0.968  -0.721  0.00  0.00    +0.570 C 
ATOM     19  N   LIG    1       -1.268  -2.100   0.003  0.00  0.00    -0.650 N 
ATOM     20  H   LIG    1       -0.487  -2.457   0.454  0.00  0.00    +0.420 HD
ATOM     21  O   LIG    1       -2.123  -0.573  -1.363  0.00  0.00    -0.500 OA
BRANCH  18  25
ATOM     22  C   LIG    1        2.450   1.180  -0.736  0.00  0.00    -0.050 A 
ATOM     23  C   LIG    1        1.380   1.673  -1.490  0.00  0.00    +0.130 A 
ATOM     24  C   LIG    1        0.191   0.966  -1.484  0.00  0.00    +0.050 A 
ATOM     25  C   LIG    1        0.099  -0.204  -0.733  0.00  0.00    +0.100 A 
ATOM     26  N   LIG    1        1.135  -0.643  -0.027  0.00  0.00    -0.460 NA
ATOM     27  C   LIG    1        2.280  -0.001  -0.006  0.00  0.00    +0.330 A 
BRANCH  22  29
ATOM     28  N   LIG    1        4.694   2.428  -0.689  0.00  0.00    -0.390 NA
ATOM     29  C   LIG    1        3.702   1.876  -0.709  0.00  0.00    +0.250 C 
ENDBRANCH  22  29
ENDBRANCH  18  25
ENDBRANCH   1  19
TORSDOF 4
