REMARK  Name = ZINCrH000004ouvG.0
REMARK                            x       y       z     vdW  Elec       q    Type
REMARK                         _______ _______ _______ _____ _____    ______ ____
ROOT
ATOM      1  N   LIG    1        1.264  -0.471  -0.899  0.00  0.00    -0.610 N 
ATOM      2  C   LIG    1        2.130   0.708  -1.011  0.00  0.00    +0.300 C 
ATOM      3  C   LIG    1        1.570   1.729   0.004  0.00  0.00    +0.000 C 
ATOM      4  C   LIG    1        0.091   1.290   0.109  0.00  0.00    +0.080 C 
ATOM      5  C   LIG    1        0.110  -0.172  -0.279  0.00  0.00    +0.520 C 
ATOM      6  O   LIG    1       -0.787  -0.960  -0.062  0.00  0.00    -0.520 OA
ENDROOT
BRANCH   3   7
ATOM      7  C   LIG    1        2.266   1.603   1.335  0.00  0.00    +0.520 C 
ATOM      8  N   LIG    1        1.836   2.321   2.391  0.00  0.00    -0.650 N 
ATOM      9  H   LIG    1        1.035   2.863   2.315  0.00  0.00    +0.420 HD
ATOM     10  O   LIG    1        3.214   0.855   1.456  0.00  0.00    -0.510 OA
BRANCH   8  11
ATOM     11  C   LIG    1        2.543   2.285   3.595  0.00  0.00    +0.170 A 
ATOM     12  C   LIG    1        3.913   2.146   3.591  0.00  0.00    +0.030 A 
ATOM     13  C   LIG    1        4.630   2.108   4.784  0.00  0.00    +0.040 A 
ATOM     14  C   LIG    1        3.998   2.208   5.986  0.00  0.00    +0.020 A 
ATOM     15  C   LIG    1        2.601   2.351   6.032  0.00  0.00    -0.090 A 
ATOM     16  C   LIG    1        1.917   2.456   7.257  0.00  0.00    +0.080 A 
ATOM     17  C   LIG    1        0.560   2.612   7.227  0.00  0.00    -0.030 A 
ATOM     18  C   LIG    1       -0.108   2.644   6.005  0.00  0.00    +0.290 A 
ATOM     19  N   LIG    1        0.532   2.539   4.866  0.00  0.00    -0.480 NA
ATOM     20  C   LIG    1        1.859   2.396   4.826  0.00  0.00    +0.110 A 
ENDBRANCH   8  11
ENDBRANCH   3   7
BRANCH   1  22
ATOM     21  C   LIG    1        2.943  -1.734  -2.151  0.00  0.00    +0.060 C 
ATOM     22  C   LIG    1        1.613  -1.804  -1.399  0.00  0.00    +0.290 C 
BRANCH  22  23
ATOM     23  C   LIG    1        1.741  -2.757  -0.239  0.00  0.00    -0.100 A 
ATOM     24  C   LIG    1        2.447  -2.384   0.889  0.00  0.00    +0.030 A 
ATOM     25  C   LIG    1        2.560  -3.257   1.955  0.00  0.00    +0.000 A 
ATOM     26  C   LIG    1        1.976  -4.508   1.888  0.00  0.00    +0.000 A 
ATOM     27  C   LIG    1        1.274  -4.883   0.758  0.00  0.00    +0.000 A 
ATOM     28  C   LIG    1        1.156  -4.008  -0.305  0.00  0.00    +0.020 A 
ENDBRANCH  22  23
ENDBRANCH   1  22
TORSDOF 4
