REMARK  Name = ZINCrD0000075Psa.0
REMARK                            x       y       z     vdW  Elec       q    Type
REMARK                         _______ _______ _______ _____ _____    ______ ____
ROOT
ATOM      1  C   LIG    1       -1.454   3.516   3.132  0.00  0.00    -0.150 A 
ATOM      2  C   LIG    1       -2.374   2.627   3.692  0.00  0.00    +0.140 A 
ATOM      3  C   LIG    1       -2.564   1.385   3.123  0.00  0.00    +0.000 A 
ATOM      4  C   LIG    1       -1.844   1.019   1.999  0.00  0.00    +0.160 A 
ATOM      5  C   LIG    1       -0.930   1.894   1.440  0.00  0.00    -0.690 A 
ATOM      6  C   LIG    1       -0.727   3.137   2.002  0.00  0.00    +0.200 A 
ENDROOT
BRANCH   5   7
ATOM      7  S   LIG    1       -0.017   1.417   0.010  0.00  0.00    +2.710 S 
ATOM      8  O   LIG    1        1.162   2.210   0.003  0.00  0.00    -0.940 OA
ATOM      9  O   LIG    1        0.002  -0.004   0.002  0.00  0.00    -0.950 OA
BRANCH   7  10
ATOM     10  N   LIG    1       -0.900   1.880  -1.312  0.00  0.00    -1.010 NA
ATOM     11  C   LIG    1       -1.907   1.059  -2.001  0.00  0.00    +0.270 C 
ATOM     12  C   LIG    1       -2.446   1.891  -3.183  0.00  0.00    +0.030 C 
ATOM     13  C   LIG    1       -1.304   2.909  -3.438  0.00  0.00    +0.040 C 
ATOM     14  C   LIG    1       -0.803   3.181  -1.998  0.00  0.00    +0.270 C 
ENDBRANCH   7  10
ENDBRANCH   5   7
BRANCH   1  16
ATOM     15  O   LIG    1       -0.446   5.618   3.247  0.00  0.00    -0.500 OA
ATOM     16  C   LIG    1       -1.247   4.848   3.736  0.00  0.00    +0.510 C 
BRANCH  16  17
ATOM     17  O   LIG    1       -1.946   5.208   4.830  0.00  0.00    -0.350 OA
BRANCH  17  18
ATOM     18  C   LIG    1       -1.691   6.531   5.370  0.00  0.00    +0.260 C 
BRANCH  18  19
ATOM     19  C   LIG    1       -2.571   6.759   6.600  0.00  0.00    +0.230 C 
BRANCH  19  20
ATOM     20  O   LIG    1       -2.189   5.849   7.634  0.00  0.00    -0.310 OA
BRANCH  20  21
ATOM     21  C   LIG    1       -2.878   5.919   8.804  0.00  0.00    +0.140 A 
ATOM     22  C   LIG    1       -3.896   6.849   8.955  0.00  0.00    -0.060 A 
ATOM     23  C   LIG    1       -4.597   6.917  10.143  0.00  0.00    +0.070 A 
ATOM     24  C   LIG    1       -4.279   6.064  11.185  0.00  0.00    -0.070 A 
ATOM     25  C   LIG    1       -3.260   5.139  11.038  0.00  0.00    +0.070 A 
ATOM     26 CL   LIG    1       -5.157   6.155  12.680  0.00  0.00    -0.070 Cl
ATOM     27  C   LIG    1       -2.559   5.066   9.850  0.00  0.00    +0.000 A 
ENDBRANCH  20  21
ENDBRANCH  19  20
ENDBRANCH  18  19
ENDBRANCH  17  18
ENDBRANCH  16  17
ENDBRANCH   1  16
TORSDOF 8
