REMARK  Name = ZINCpk000005lGiZ.0
REMARK                            x       y       z     vdW  Elec       q    Type
REMARK                         _______ _______ _______ _____ _____    ______ ____
ROOT
ATOM      1  C   LIG    1        0.245   1.351  -3.084  0.00  0.00    +0.490 C 
ATOM      2  N   LIG    1       -0.518   1.825  -2.079  0.00  0.00    -0.610 N 
ATOM      3  C   LIG    1       -0.547   3.263  -1.777  0.00  0.00    +0.260 C 
ATOM      4  C   LIG    1       -0.182   3.461  -0.300  0.00  0.00    +0.280 C 
ATOM      5  N   LIG    1       -0.999   2.549   0.512  0.00  0.00    -0.610 N 
ATOM      6  C   LIG    1       -0.970   1.111   0.210  0.00  0.00    +0.290 C 
ATOM      7  C   LIG    1       -1.762   3.023   1.517  0.00  0.00    +0.600 C 
ATOM      8  O   LIG    1       -2.493   2.271   2.132  0.00  0.00    -0.530 OA
ATOM      9  C   LIG    1       -1.335   0.913  -1.266  0.00  0.00    +0.230 C 
ATOM     10  C   LIG    1       -2.818   1.226  -1.478  0.00  0.00    +0.030 C 
ATOM     11  O   LIG    1        0.261   0.162  -3.324  0.00  0.00    -0.520 OA
ENDROOT
BRANCH   7  12
ATOM     12  C   LIG    1       -1.711   4.454   1.870  0.00  0.00    -0.300 A 
ATOM     13  C   LIG    1       -2.790   5.268   2.149  0.00  0.00    +0.150 A 
ATOM     14  N   LIG    1       -2.310   6.492   2.423  0.00  0.00    -0.360 N 
ATOM     15  N   LIG    1       -0.915   6.457   2.309  0.00  0.00    -0.290 NA
ATOM     16  C   LIG    1       -3.111   7.666   2.777  0.00  0.00    +0.360 C 
ATOM     17  C   LIG    1       -4.240   4.859   2.149  0.00  0.00    +0.160 C 
ATOM     18  C   LIG    1       -0.548   5.249   1.980  0.00  0.00    +0.270 A 
ENDBRANCH   7  12
BRANCH   1  19
ATOM     19  C   LIG    1        1.079   2.298  -3.909  0.00  0.00    +0.160 C 
BRANCH  19  21
ATOM     20  C   LIG    1        3.161   1.181  -4.311  0.00  0.00    +0.200 C 
ATOM     21  O   LIG    1        1.881   1.551  -4.826  0.00  0.00    -0.350 OA
ENDBRANCH  19  21
BRANCH  19  22
ATOM     22  C   LIG    1        0.159   3.242  -4.686  0.00  0.00    +0.050 C 
BRANCH  22  23
ATOM     23  C   LIG    1        1.005   4.221  -5.501  0.00  0.00    -0.020 C 
ATOM     24  C   LIG    1        1.777   5.141  -4.552  0.00  0.00    +0.020 C 
ATOM     25  C   LIG    1        0.092   5.062  -6.396  0.00  0.00    +0.020 C 
ENDBRANCH  22  23
ENDBRANCH  19  22
ENDBRANCH   1  19
TORSDOF 5
