REMARK  Name = ZINCtj00001UqOuk.2
REMARK                            x       y       z     vdW  Elec       q    Type
REMARK                         _______ _______ _______ _____ _____    ______ ____
ROOT
ATOM      1  C   LIG    1        4.393   3.878  -1.556  0.00  0.00    +0.670 C 
ATOM      2  N   LIG    1        4.576   5.148  -1.211  0.00  0.00    -0.590 NA
ATOM      3  C   LIG    1        5.567   5.849  -1.754  0.00  0.00    +0.640 C 
ATOM      4  N   LIG    1        6.369   5.282  -2.650  0.00  0.00    -0.600 NA
ATOM      5  C   LIG    1        6.183   4.013  -2.999  0.00  0.00    +0.640 C 
ATOM      6  H   LIG    1        7.090   5.794  -3.048  0.00  0.00    +0.450 HD
ATOM      7  N   LIG    1        5.195   3.311  -2.453  0.00  0.00    -0.590 NA
ENDROOT
BRANCH   5   8
ATOM      8  N   LIG    1        7.015   3.424  -3.930  0.00  0.00    -0.460 NA
ATOM      9  C   LIG    1        7.019   4.184  -5.188  0.00  0.00    +0.200 C 
ATOM     10  C   LIG    1        7.998   3.532  -6.168  0.00  0.00    +0.260 C 
ATOM     11  O   LIG    1        7.630   2.164  -6.363  0.00  0.00    -0.370 OA
ATOM     12  C   LIG    1        7.616   1.394  -5.157  0.00  0.00    +0.250 C 
ATOM     13  C   LIG    1        6.633   2.025  -4.167  0.00  0.00    +0.240 C 
ENDBRANCH   5   8
BRANCH   3  14
ATOM     14  N   LIG    1        5.761   7.166  -1.390  0.00  0.00    -0.460 NA
ATOM     15  C   LIG    1        7.126   7.379  -0.889  0.00  0.00    +0.200 C 
ATOM     16  C   LIG    1        7.316   8.861  -0.554  0.00  0.00    +0.260 C 
ATOM     17  O   LIG    1        6.323   9.261   0.394  0.00  0.00    -0.370 OA
ATOM     18  C   LIG    1        4.981   9.068  -0.062  0.00  0.00    +0.250 C 
ATOM     19  C   LIG    1        4.768   7.588  -0.392  0.00  0.00    +0.240 C 
ENDBRANCH   3  14
BRANCH   1  20
ATOM     20  N   LIG    1        3.368   3.149  -0.989  0.00  0.00    -0.610 NA
ATOM     21  H   LIG    1        3.232   2.223  -1.244  0.00  0.00    +0.440 HD
BRANCH  20  23
ATOM     22  C   LIG    1        3.123   3.679   1.386  0.00  0.00    +0.080 C 
ATOM     23  C   LIG    1        2.485   3.773  -0.001  0.00  0.00    +0.330 C 
BRANCH  23  24
ATOM     24  C   LIG    1        1.157   3.061   0.007  0.00  0.00    +0.050 A 
ATOM     25  N   LIG    1        1.125   1.743   0.001  0.00  0.00    -0.420 NA
ATOM     26  C   LIG    1       -0.013   1.076   0.008  0.00  0.00    +0.270 A 
ATOM     27  C   LIG    1       -1.225   1.743   0.017  0.00  0.00    +0.100 A 
ATOM     28  C   LIG    1       -1.233   3.132   0.030  0.00  0.00    +0.030 A 
ATOM     29  F   LIG    1       -2.386   1.053   0.019  0.00  0.00    -0.110 F 
ATOM     30  C   LIG    1       -0.015   3.798   0.022  0.00  0.00    +0.110 A 
ATOM     31  F   LIG    1        0.026   5.148   0.029  0.00  0.00    -0.110 F 
ENDBRANCH  23  24
ENDBRANCH  20  23
ENDBRANCH   1  20
TORSDOF 5
