REMARK  Name = ZINCtj00001UqOuk.1
REMARK                            x       y       z     vdW  Elec       q    Type
REMARK                         _______ _______ _______ _____ _____    ______ ____
ROOT
ATOM      1  C   LIG    1       -3.066   4.779   3.388  0.00  0.00    +0.690 C 
ATOM      2  N   LIG    1       -2.489   4.311   2.285  0.00  0.00    -0.600 NA
ATOM      3  C   LIG    1       -1.413   3.536   2.375  0.00  0.00    +0.630 C 
ATOM      4  N   LIG    1       -0.908   3.236   3.568  0.00  0.00    -0.570 NA
ATOM      5  C   LIG    1       -1.482   3.708   4.670  0.00  0.00    +0.640 C 
ATOM      6  N   LIG    1       -2.561   4.479   4.581  0.00  0.00    -0.610 NA
ATOM      7  H   LIG    1       -2.979   4.823   5.385  0.00  0.00    +0.440 HD
ENDROOT
BRANCH   5   8
ATOM      8  N   LIG    1       -0.957   3.396   5.908  0.00  0.00    -0.460 NA
ATOM      9  C   LIG    1       -0.636   4.614   6.666  0.00  0.00    +0.200 C 
ATOM     10  C   LIG    1       -0.115   4.224   8.052  0.00  0.00    +0.260 C 
ATOM     11  O   LIG    1        1.018   3.364   7.904  0.00  0.00    -0.370 OA
ATOM     12  C   LIG    1        0.742   2.168   7.172  0.00  0.00    +0.250 C 
ATOM     13  C   LIG    1        0.229   2.537   5.777  0.00  0.00    +0.240 C 
ENDBRANCH   5   8
BRANCH   3  14
ATOM     14  N   LIG    1       -0.817   3.048   1.230  0.00  0.00    -0.430 NA
ATOM     15  C   LIG    1       -0.731   1.580   1.266  0.00  0.00    +0.220 C 
ATOM     16  C   LIG    1       -0.013   1.086   0.008  0.00  0.00    +0.250 C 
ATOM     17  O   LIG    1       -0.706   1.560  -1.149  0.00  0.00    -0.370 OA
ATOM     18  C   LIG    1       -0.807   2.985  -1.216  0.00  0.00    +0.250 C 
ATOM     19  C   LIG    1       -1.534   3.499   0.029  0.00  0.00    +0.210 C 
ENDBRANCH   3  14
BRANCH   1  20
ATOM     20  N   LIG    1       -4.186   5.580   3.295  0.00  0.00    -0.640 NA
ATOM     21  H   LIG    1       -4.554   5.799   2.425  0.00  0.00    +0.450 HD
BRANCH  20  23
ATOM     22  C   LIG    1       -5.790   5.057   5.065  0.00  0.00    +0.080 C 
ATOM     23  C   LIG    1       -4.818   6.100   4.510  0.00  0.00    +0.290 C 
BRANCH  23  24
ATOM     24  C   LIG    1       -5.570   7.364   4.184  0.00  0.00    +0.050 A 
ATOM     25  N   LIG    1       -6.331   7.410   3.108  0.00  0.00    -0.420 NA
ATOM     26  C   LIG    1       -7.008   8.494   2.782  0.00  0.00    +0.270 A 
ATOM     27  C   LIG    1       -6.941   9.633   3.566  0.00  0.00    +0.110 A 
ATOM     28  C   LIG    1       -6.150   9.624   4.707  0.00  0.00    +0.030 A 
ATOM     29  F   LIG    1       -7.637  10.740   3.225  0.00  0.00    -0.100 F 
ATOM     30  C   LIG    1       -5.457   8.463   5.019  0.00  0.00    +0.110 A 
ATOM     31  F   LIG    1       -4.679   8.406   6.122  0.00  0.00    -0.110 F 
ENDBRANCH  23  24
ENDBRANCH  20  23
ENDBRANCH   1  20
TORSDOF 5
