REMARK  Name = ZINCpk00000B9din.0
REMARK                            x       y       z     vdW  Elec       q    Type
REMARK                         _______ _______ _______ _____ _____    ______ ____
ROOT
ATOM      1  C   LIG    1        2.901   5.234   2.880  0.00  0.00    +0.130 C 
ATOM      2  C   LIG    1        3.749   6.522   2.935  0.00  0.00    +0.030 C 
ATOM      3  C   LIG    1        4.791   6.268   4.044  0.00  0.00    +0.180 C 
ATOM      4  C   LIG    1        4.484   4.848   4.565  0.00  0.00    +0.160 C 
ATOM      5  F   LIG    1        6.086   6.323   3.516  0.00  0.00    -0.200 F 
ATOM      6  N   LIG    1        3.785   4.179   3.438  0.00  0.00    -0.480 NA
ENDROOT
BRANCH   1   7
ATOM      7  C   LIG    1        2.525   4.905   1.434  0.00  0.00    +0.210 C 
BRANCH   7   8
ATOM      8  N   LIG    1        1.853   3.599   1.388  0.00  0.00    -0.540 NA
ATOM      9  C   LIG    1        0.559   3.648   2.083  0.00  0.00    +0.200 C 
BRANCH   8  10
ATOM     10  C   LIG    1        1.688   3.140   0.002  0.00  0.00    +0.320 C 
BRANCH  10  15
ATOM     11  N   LIG    1        2.006   0.610  -0.014  0.00  0.00    -0.290 N 
ATOM     12  N   LIG    1        1.222  -0.415  -0.012  0.00  0.00    -0.090 NA
ATOM     13  N   LIG    1        0.002  -0.004   0.002  0.00  0.00    -0.080 NA
ATOM     14  N   LIG    1       -0.015   1.284   0.009  0.00  0.00    -0.300 NA
ATOM     15  C   LIG    1        1.226   1.706  -0.001  0.00  0.00    +0.190 A 
BRANCH  11  16
ATOM     16  C   LIG    1        3.471   0.584  -0.027  0.00  0.00    +0.340 C 
BRANCH  16  18
ATOM     17  C   LIG    1        5.497   0.557  -1.488  0.00  0.00    +0.040 C 
ATOM     18  C   LIG    1        3.968   0.583  -1.474  0.00  0.00    +0.010 C 
ENDBRANCH  16  18
ENDBRANCH  11  16
ENDBRANCH  10  15
ENDBRANCH   8  10
ENDBRANCH   7   8
ENDBRANCH   1   7
BRANCH   6  19
ATOM     19  C   LIG    1        3.000   3.031   3.913  0.00  0.00    +0.320 C 
BRANCH  19  20
ATOM     20  C   LIG    1        3.927   1.890   4.242  0.00  0.00    -0.010 A 
ATOM     21  C   LIG    1        4.516   1.642   5.437  0.00  0.00    -0.060 A 
ATOM     22  C   LIG    1        5.271   0.469   5.209  0.00  0.00    +0.020 A 
ATOM     23  N   LIG    1        5.080   0.146   3.962  0.00  0.00    -0.370 NA
ATOM     24  C   LIG    1        6.131  -0.259   6.209  0.00  0.00    +0.160 C 
ATOM     25  O   LIG    1        4.337   0.923   3.410  0.00  0.00    +0.110 OA
ENDBRANCH  19  20
ENDBRANCH   6  19
TORSDOF 8
