REMARK  Name = ZINCrg00000fSBjd.0
REMARK                            x       y       z     vdW  Elec       q    Type
REMARK                         _______ _______ _______ _____ _____    ______ ____
ROOT
ATOM      1  O   LIG    1       -1.204   2.837   0.023  0.00  0.00    -0.510 OA
ATOM      2  C   LIG    1       -1.187   1.624   0.017  0.00  0.00    +0.500 C 
ATOM      3  N   LIG    1       -0.011   0.966   0.007  0.00  0.00    -0.720 N 
ATOM      4  H   LIG    1        0.002  -0.004   0.002  0.00  0.00    +0.400 HD
ENDROOT
BRANCH   3   5
ATOM      5  C   LIG    1        1.248   1.716  -0.001  0.00  0.00    +0.260 C 
ATOM      6  C   LIG    1        2.372   0.854  -0.613  0.00  0.00    +0.050 C 
ATOM      7  C   LIG    1        3.624   1.214   0.226  0.00  0.00    +0.000 C 
ATOM      8  C   LIG    1        3.047   1.365   1.656  0.00  0.00    +0.000 C 
ATOM      9  C   LIG    1        1.677   2.041   1.441  0.00  0.00    +0.150 C 
BRANCH   9  10
ATOM     10  O   LIG    1        1.796   3.454   1.609  0.00  0.00    -0.550 OA
ATOM     11  H   LIG    1        2.064   3.724   2.498  0.00  0.00    +0.380 HD
ENDBRANCH   9  10
BRANCH   7  12
ATOM     12  C   LIG    1        4.658   0.087   0.175  0.00  0.00    +0.330 C 
BRANCH  12  13
ATOM     13  N   LIG    1        5.825   0.458   0.979  0.00  0.00    -0.370 N 
ATOM     14  C   LIG    1        6.351  -0.260   1.993  0.00  0.00    +0.220 A 
ATOM     15  C   LIG    1        7.418   0.422   2.470  0.00  0.00    -0.120 A 
ATOM     16  C   LIG    1        7.543   1.601   1.729  0.00  0.00    +0.220 A 
ATOM     17  N   LIG    1        6.588   1.624   0.834  0.00  0.00    -0.290 NA
ENDBRANCH  12  13
ENDBRANCH   7  12
ENDBRANCH   3   5
BRANCH   2  18
ATOM     18  C   LIG    1       -2.482   0.853   0.018  0.00  0.00    +0.340 C 
BRANCH  18  19
ATOM     19  N   LIG    1       -3.608   1.789   0.029  0.00  0.00    -0.480 N 
ATOM     20  C   LIG    1       -4.130   2.225  -1.147  0.00  0.00    +0.350 A 
ATOM     21  C   LIG    1       -5.171   3.090  -1.162  0.00  0.00    -0.080 A 
ATOM     22  C   LIG    1       -5.721   3.546   0.044  0.00  0.00    +0.210 A 
ATOM     23  C   LIG    1       -5.195   3.107   1.224  0.00  0.00    -0.320 A 
ATOM     24  C   LIG    1       -4.118   2.204   1.204  0.00  0.00    +0.550 A 
ATOM     25  O   LIG    1       -3.642   1.800   2.253  0.00  0.00    -0.530 OA
BRANCH  23  26
ATOM     26  C   LIG    1       -5.767   3.581   2.535  0.00  0.00    +0.530 C 
ATOM     27  F   LIG    1       -4.774   4.239   3.267  0.00  0.00    -0.170 F 
ATOM     28  F   LIG    1       -6.233   2.482   3.265  0.00  0.00    -0.170 F 
ATOM     29  F   LIG    1       -6.827   4.461   2.291  0.00  0.00    -0.180 F 
ENDBRANCH  23  26
ENDBRANCH  18  19
ENDBRANCH   2  18
TORSDOF 7
