REMARK  Name = ZINCrH000004r3ep.0
REMARK                            x       y       z     vdW  Elec       q    Type
REMARK                         _______ _______ _______ _____ _____    ______ ____
ROOT
ATOM      1  C   LIG    1       -1.390   2.758   0.957  0.00  0.00    +0.510 C 
ATOM      2  N   LIG    1       -0.384   1.871   1.093  0.00  0.00    -0.610 N 
ATOM      3  C   LIG    1        0.285   1.682   2.389  0.00  0.00    +0.280 C 
ATOM      4  C   LIG    1        1.798   1.797   2.177  0.00  0.00    +0.170 C 
ATOM      5  N   LIG    1        2.214   0.864   1.121  0.00  0.00    -0.540 NA
ATOM      6  C   LIG    1        1.595   1.206  -0.166  0.00  0.00    +0.180 C 
ATOM      7  C   LIG    1        3.678   0.818   1.005  0.00  0.00    +0.190 C 
ATOM      8  C   LIG    1        0.073   1.067  -0.051  0.00  0.00    +0.280 C 
ATOM      9  O   LIG    1       -2.001   2.826  -0.089  0.00  0.00    -0.510 OA
ENDROOT
BRANCH   8  10
ATOM     10  C   LIG    1       -0.579   1.562  -1.316  0.00  0.00    -0.050 A 
ATOM     11  C   LIG    1       -1.477   0.758  -1.991  0.00  0.00    +0.000 A 
ATOM     12  C   LIG    1       -2.079   1.214  -3.149  0.00  0.00    +0.010 A 
ATOM     13  C   LIG    1       -1.773   2.471  -3.638  0.00  0.00    +0.000 A 
ATOM     14  C   LIG    1       -0.871   3.273  -2.965  0.00  0.00    +0.000 A 
ATOM     15  C   LIG    1       -0.273   2.819  -1.804  0.00  0.00    +0.010 A 
ENDBRANCH   8  10
BRANCH   1  16
ATOM     16  C   LIG    1       -1.754   3.666   2.103  0.00  0.00    +0.070 C 
BRANCH  16  17
ATOM     17  C   LIG    1       -2.919   4.568   1.689  0.00  0.00    +0.070 C 
BRANCH  17  18
ATOM     18  C   LIG    1       -3.283   5.476   2.835  0.00  0.00    +0.400 C 
ATOM     19  O   LIG    1       -2.671   5.409   3.880  0.00  0.00    -0.460 OA
BRANCH  18  24
ATOM     20  C   LIG    1       -7.572   9.260   2.254  0.00  0.00    +0.090 C 
ATOM     21  C   LIG    1       -6.447   8.268   2.406  0.00  0.00    -0.050 A 
ATOM     22  C   LIG    1       -6.116   7.436   1.351  0.00  0.00    +0.000 A 
ATOM     23  C   LIG    1       -5.088   6.526   1.483  0.00  0.00    +0.060 A 
ATOM     24  C   LIG    1       -4.381   6.445   2.686  0.00  0.00    -0.180 A 
ATOM     25  C   LIG    1       -4.726   7.285   3.750  0.00  0.00    +0.070 A 
ATOM     26  C   LIG    1       -5.752   8.194   3.601  0.00  0.00    -0.100 A 
ATOM     27  C   LIG    1       -6.121   9.105   4.743  0.00  0.00    +0.090 C 
ENDBRANCH  18  24
ENDBRANCH  17  18
ENDBRANCH  16  17
ENDBRANCH   1  16
TORSDOF 5
