REMARK  Name = ZINCrD000000D5R2.2
REMARK                            x       y       z     vdW  Elec       q    Type
REMARK                         _______ _______ _______ _____ _____    ______ ____
ROOT
ATOM      1  O   LIG    1        1.318   2.760   1.048  0.00  0.00    -0.930 OA
ATOM      2  S   LIG    1        0.364   2.076   1.849  0.00  0.00    +2.610 S 
ATOM      3  O   LIG    1       -0.383   2.762   2.845  0.00  0.00    -0.950 OA
ENDROOT
BRANCH   2   4
ATOM      4  C   LIG    1       -0.733   1.070   0.811  0.00  0.00    -0.450 C 
ATOM      5  C   LIG    1        0.087   0.101  -0.071  0.00  0.00    +0.060 C 
ATOM      6  C   LIG    1       -0.624   0.098  -1.437  0.00  0.00    +0.180 C 
ATOM      7  N   LIG    1       -1.796   0.992  -1.318  0.00  0.00    -0.490 NA
ATOM      8  C   LIG    1       -1.465   1.952  -0.233  0.00  0.00    +0.210 C 
BRANCH   7   9
ATOM      9  C   LIG    1       -2.054   1.694  -2.582  0.00  0.00    +0.260 C 
BRANCH   9  10
ATOM     10  C   LIG    1       -0.962   2.703  -2.828  0.00  0.00    -0.130 A 
ATOM     11  C   LIG    1       -1.096   3.995  -2.356  0.00  0.00    +0.010 A 
ATOM     12  C   LIG    1       -0.092   4.920  -2.577  0.00  0.00    +0.000 A 
ATOM     13  C   LIG    1        1.042   4.554  -3.279  0.00  0.00    +0.010 A 
ATOM     14  C   LIG    1        1.173   3.263  -3.755  0.00  0.00    +0.000 A 
ATOM     15  C   LIG    1        0.172   2.337  -3.530  0.00  0.00    +0.010 A 
ENDBRANCH   9  10
ENDBRANCH   7   9
ENDBRANCH   2   4
BRANCH   2  16
ATOM     16  N   LIG    1        1.259   0.972   2.697  0.00  0.00    -0.960 NA
BRANCH  16  17
ATOM     17  C   LIG    1        0.709   0.360   3.910  0.00  0.00    +0.210 C 
ATOM     18  C   LIG    1        1.599  -0.624   4.671  0.00  0.00    +0.030 C 
ATOM     19  C   LIG    1        0.403  -1.139   3.868  0.00  0.00    +0.010 C 
ENDBRANCH  16  17
BRANCH  16  20
ATOM     20  C   LIG    1        2.600   0.606   2.236  0.00  0.00    +0.360 C 
BRANCH  20  21
ATOM     21  C   LIG    1        3.629   1.201   3.163  0.00  0.00    -0.140 A 
ATOM     22  C   LIG    1        4.346   0.383   4.016  0.00  0.00    +0.060 A 
ATOM     23  C   LIG    1        5.290   0.929   4.866  0.00  0.00    +0.000 A 
ATOM     24  C   LIG    1        5.519   2.292   4.863  0.00  0.00    +0.050 A 
ATOM     25  C   LIG    1        4.803   3.111   4.010  0.00  0.00    -0.020 A 
ATOM     26  C   LIG    1        3.862   2.566   3.155  0.00  0.00    +0.110 A 
ATOM     27  F   LIG    1        3.166   3.365   2.317  0.00  0.00    -0.120 F 
ENDBRANCH  20  21
ENDBRANCH  16  20
ENDBRANCH   2  16
TORSDOF 7
