REMARK  Name = ZINCpk00000eaD8X.0
REMARK                            x       y       z     vdW  Elec       q    Type
REMARK                         _______ _______ _______ _____ _____    ______ ____
ROOT
ATOM      1  C   LIG    1       -0.995   1.823  -1.424  0.00  0.00    +0.040 C 
ATOM      2  C   LIG    1       -0.170   1.448  -0.191  0.00  0.00    +0.240 C 
ENDROOT
BRANCH   2   3
ATOM      3  N   LIG    1       -0.071  -0.010  -0.095  0.00  0.00    -0.740 N 
ATOM      4  H   LIG    1       -0.695  -0.503   0.461  0.00  0.00    +0.400 HD
ATOM      5  C   LIG    1        0.888  -0.667  -0.777  0.00  0.00    +0.700 C 
ATOM      6  N   LIG    1        0.979  -2.009  -0.688  0.00  0.00    -0.730 N 
ATOM      7  H   LIG    1        0.354  -2.502  -0.133  0.00  0.00    +0.400 HD
ATOM      8  O   LIG    1        1.671  -0.050  -1.472  0.00  0.00    -0.590 OA
BRANCH   6   9
ATOM      9  C   LIG    1        2.021  -2.723  -1.429  0.00  0.00    +0.240 C 
ATOM     10  C   LIG    1        1.660  -4.223  -1.577  0.00  0.00    +0.020 C 
ATOM     11  C   LIG    1        2.826  -4.934  -0.826  0.00  0.00    +0.190 C 
ATOM     12  C   LIG    1        2.568  -4.664   0.686  0.00  0.00    +0.010 C 
ATOM     13  C   LIG    1        2.929  -3.164   0.834  0.00  0.00    +0.000 C 
ATOM     14  O   LIG    1        3.938  -4.019  -1.094  0.00  0.00    -0.370 OA
ATOM     15  C   LIG    1        3.348  -2.767  -0.613  0.00  0.00    +0.180 C 
ENDBRANCH   6   9
ENDBRANCH   2   3
BRANCH   2  16
ATOM     16  C   LIG    1       -0.849   1.998   1.064  0.00  0.00    +0.330 C 
BRANCH  16  17
ATOM     17  N   LIG    1       -0.125   1.539   2.252  0.00  0.00    -0.430 N 
ATOM     18  N   LIG    1       -0.498   0.336   2.853  0.00  0.00    -0.240 NA
ATOM     19  C   LIG    1        0.096  -0.136   3.908  0.00  0.00    +0.320 A 
ATOM     20  C   LIG    1        1.205   0.601   4.514  0.00  0.00    -0.070 A 
ATOM     21  C   LIG    1        1.870   0.129   5.647  0.00  0.00    +0.050 A 
ATOM     22  C   LIG    1        2.908   0.861   6.179  0.00  0.00    +0.050 A 
ATOM     23  C   LIG    1        3.300   2.062   5.602  0.00  0.00    +0.030 A 
ATOM     24  C   LIG    1        2.659   2.547   4.484  0.00  0.00    +0.080 A 
ATOM     25  C   LIG    1        1.605   1.824   3.928  0.00  0.00    -0.120 A 
ATOM     26  C   LIG    1        0.888   2.289   2.734  0.00  0.00    +0.530 A 
ATOM     27  O   LIG    1        1.200   3.333   2.190  0.00  0.00    -0.520 OA
ENDBRANCH  16  17
ENDBRANCH   2  16
TORSDOF 4
