REMARK  Name = ZINCpk00000KfL5q.0
REMARK                            x       y       z     vdW  Elec       q    Type
REMARK                         _______ _______ _______ _____ _____    ______ ____
ROOT
ATOM      1  C   LIG    1       -1.579   2.600  -1.386  0.00  0.00    +0.050 C 
ATOM      2  C   LIG    1       -1.285   2.073   0.019  0.00  0.00    +0.260 C 
ATOM      3  C   LIG    1       -1.197   3.247   1.001  0.00  0.00    +0.070 C 
ATOM      4  C   LIG    1       -0.526   2.812   2.277  0.00  0.00    +0.530 C 
ATOM      5  N   LIG    1        0.812   2.624   2.319  0.00  0.00    -0.680 N 
ATOM      6  H   LIG    1        1.241   2.405   3.161  0.00  0.00    +0.410 HD
ATOM      7  C   LIG    1        1.584   2.745   1.157  0.00  0.00    +0.140 A 
ATOM      8  C   LIG    1        2.743   3.502   1.149  0.00  0.00    +0.020 A 
ATOM      9  C   LIG    1        3.510   3.572  -0.001  0.00  0.00    +0.050 A 
ATOM     10  C   LIG    1        3.121   2.890  -1.139  0.00  0.00    +0.010 A 
ATOM     11  C   LIG    1        1.958   2.142  -1.142  0.00  0.00    +0.030 A 
ATOM     12  C   LIG    1        1.179   2.075   0.002  0.00  0.00    +0.110 A 
ATOM     13  O   LIG    1       -1.191   2.628   3.274  0.00  0.00    -0.520 OA
ATOM     14  N   LIG    1       -0.016   1.344   0.009  0.00  0.00    -0.570 N 
ATOM     15  C   LIG    1        0.002  -0.004   0.002  0.00  0.00    +0.530 C 
ATOM     16  O   LIG    1       -1.040  -0.625   0.009  0.00  0.00    -0.500 OA
ENDROOT
BRANCH  15  17
ATOM     17  C   LIG    1        1.317  -0.740  -0.015  0.00  0.00    +0.210 C 
BRANCH  17  18
ATOM     18  N   LIG    1        1.068  -2.188  -0.020  0.00  0.00    -0.510 NA
ATOM     19  C   LIG    1        2.309  -2.934  -0.274  0.00  0.00    +0.250 C 
ATOM     20  C   LIG    1        3.390  -2.493   0.721  0.00  0.00    +0.250 C 
ATOM     21  N   LIG    1        2.817  -2.537   2.069  0.00  0.00    -0.460 N 
ATOM     22  C   LIG    1        3.462  -2.528   3.267  0.00  0.00    +0.130 A 
ATOM     23  C   LIG    1        2.507  -2.585   4.220  0.00  0.00    +0.140 A 
ATOM     24  N   LIG    1        1.311  -2.627   3.610  0.00  0.00    -0.480 NA
ATOM     25  C   LIG    1        1.486  -2.597   2.323  0.00  0.00    +0.170 A 
ATOM     26  C   LIG    1        0.436  -2.619   1.238  0.00  0.00    +0.370 C 
ENDBRANCH  17  18
ENDBRANCH  15  17
TORSDOF 2
