REMARK  Name = ZINCtV00000tRQwA.0
REMARK                            x       y       z     vdW  Elec       q    Type
REMARK                         _______ _______ _______ _____ _____    ______ ____
ROOT
ATOM      1  C   LIG    1       10.661   4.614  -1.272  0.00  0.00    +0.150 C 
ATOM      2  C   LIG    1        9.252   4.945  -0.852  0.00  0.00    -0.200 A 
ATOM      3  C   LIG    1        8.692   6.130  -0.995  0.00  0.00    -0.030 A 
ATOM      4  C   LIG    1        7.324   6.219  -0.518  0.00  0.00    -0.230 A 
ATOM      5  C   LIG    1        6.872   5.010   0.004  0.00  0.00    +0.090 A 
ATOM      6  N   LIG    1        5.618   4.920   0.491  0.00  0.00    -0.500 NA
ATOM      7  C   LIG    1        4.804   5.948   0.487  0.00  0.00    +0.360 A 
ATOM      8  N   LIG    1        5.186   7.160  -0.016  0.00  0.00    -0.480 N 
ATOM      9  C   LIG    1        6.426   7.328  -0.515  0.00  0.00    +0.570 A 
ATOM     10  O   LIG    1        6.774   8.408  -0.961  0.00  0.00    -0.500 OA
ATOM     11  C   LIG    1        9.416   7.302  -1.606  0.00  0.00    +0.130 C 
ATOM     12  S   LIG    1        8.147   3.804  -0.110  0.00  0.00    +0.210 S 
ENDROOT
BRANCH   8  13
ATOM     13  C   LIG    1        4.286   8.234  -0.008  0.00  0.00    +0.110 A 
ATOM     14  C   LIG    1        3.445   8.444  -1.092  0.00  0.00    +0.080 A 
ATOM     15  C   LIG    1        2.554   9.501  -1.080  0.00  0.00    +0.070 A 
ATOM     16  C   LIG    1        2.508  10.356   0.007  0.00  0.00    -0.010 A 
ATOM     17  C   LIG    1        3.349  10.152   1.088  0.00  0.00    -0.020 A 
ATOM     18 CL   LIG    1        3.288  11.226   2.450  0.00  0.00    -0.030 Cl
ATOM     19 CL   LIG    1        1.392  11.686   0.016  0.00  0.00    -0.030 Cl
ATOM     20  C   LIG    1        4.238   9.093   1.082  0.00  0.00    +0.080 A 
ENDBRANCH   8  13
BRANCH   7  21
ATOM     21  S   LIG    1        3.178   5.761   1.139  0.00  0.00    +0.090 S 
BRANCH  21  22
ATOM     22  C   LIG    1        3.235   4.020   1.630  0.00  0.00    +0.100 C 
BRANCH  22  23
ATOM     23  C   LIG    1        1.911   3.624   2.232  0.00  0.00    +0.450 C 
ATOM     24  O   LIG    1        1.016   4.440   2.321  0.00  0.00    -0.430 OA
BRANCH  23  25
ATOM     25  C   LIG    1        1.712   2.304   2.693  0.00  0.00    -0.310 A 
ATOM     26  C   LIG    1        0.557   1.824   3.258  0.00  0.00    +0.130 A 
ATOM     27  C   LIG    1        0.639   0.502   3.617  0.00  0.00    -0.010 A 
ATOM     28  C   LIG    1        1.815  -0.086   3.358  0.00  0.00    -0.040 A 
ATOM     29  S   LIG    1        2.902   1.012   2.636  0.00  0.00    +0.240 S 
ENDBRANCH  23  25
ENDBRANCH  22  23
ENDBRANCH  21  22
ENDBRANCH   7  21
TORSDOF 5
