REMARK  Name = ZINCpe000000UnZk.0
REMARK                            x       y       z     vdW  Elec       q    Type
REMARK                         _______ _______ _______ _____ _____    ______ ____
ROOT
ATOM      1  C   LIG    1        3.066  -0.951   0.627  0.00  0.00    +0.200 C 
ATOM      2  C   LIG    1        3.309  -1.175  -0.868  0.00  0.00    +0.000 C 
ATOM      3  C   LIG    1        3.433   0.194  -1.549  0.00  0.00    +0.040 C 
ATOM      4  C   LIG    1        4.712   0.873  -1.062  0.00  0.00    +0.260 C 
ATOM      5  N   LIG    1        4.779   0.854   0.394  0.00  0.00    -0.570 N 
ATOM      6  C   LIG    1        4.065   0.033   1.165  0.00  0.00    +0.520 C 
ATOM      7  O   LIG    1        4.232   0.083   2.365  0.00  0.00    -0.510 OA
ENDROOT
BRANCH   1  11
ATOM      8  N   LIG    1        3.579  -5.043   1.541  0.00  0.00    -0.520 NA
ATOM      9  C   LIG    1        2.263  -4.440   1.794  0.00  0.00    +0.190 C 
ATOM     10  C   LIG    1        2.127  -3.155   0.974  0.00  0.00    +0.190 C 
ATOM     11  N   LIG    1        3.207  -2.228   1.339  0.00  0.00    -0.520 NA
ATOM     12  C   LIG    1        4.523  -2.831   1.085  0.00  0.00    +0.190 C 
ATOM     13  C   LIG    1        4.659  -4.116   1.905  0.00  0.00    +0.190 C 
BRANCH   8  14
ATOM     14  C   LIG    1        3.719  -6.320   2.253  0.00  0.00    +0.210 C 
BRANCH  14  17
ATOM     15  C   LIG    1        1.666  -9.506   1.709  0.00  0.00    +0.300 C 
ATOM     16  N   LIG    1        2.611  -8.532   2.262  0.00  0.00    -0.630 N 
ATOM     17  C   LIG    1        2.747  -7.322   1.684  0.00  0.00    +0.510 C 
ATOM     18  O   LIG    1        2.087  -7.039   0.707  0.00  0.00    -0.520 OA
ATOM     19  C   LIG    1        3.409  -8.874   3.442  0.00  0.00    +0.270 C 
ENDBRANCH  14  17
ENDBRANCH   8  14
ENDBRANCH   1  11
BRANCH   5  20
ATOM     20  C   LIG    1        5.644   1.757   1.022  0.00  0.00    +0.140 A 
ATOM     21  C   LIG    1        7.019   1.603   0.903  0.00  0.00    +0.000 A 
ATOM     22  C   LIG    1        7.869   2.494   1.528  0.00  0.00    +0.020 A 
ATOM     23  C   LIG    1        7.353   3.545   2.263  0.00  0.00    +0.010 A 
ATOM     24  C   LIG    1        5.984   3.701   2.384  0.00  0.00    +0.020 A 
ATOM     25  C   LIG    1        5.128   2.811   1.766  0.00  0.00    +0.020 A 
ENDBRANCH   5  20
TORSDOF 4
