REMARK  Name = ZINCnE000001E5ng.0
REMARK                            x       y       z     vdW  Elec       q    Type
REMARK                         _______ _______ _______ _____ _____    ______ ____
ROOT
ATOM      1  S   LIG    1       -3.638   3.502  -0.936  0.00  0.00    +2.690 S 
ATOM      2  O   LIG    1       -3.043   3.279  -2.207  0.00  0.00    -0.960 OA
ATOM      3  O   LIG    1       -4.766   4.345  -0.743  0.00  0.00    -0.950 OA
ENDROOT
BRANCH   1   7
ATOM      4  C   LIG    1       -4.795  -0.570   0.667  0.00  0.00    -0.020 A 
ATOM      5  C   LIG    1       -5.512   0.550   1.043  0.00  0.00    -0.010 A 
ATOM      6  C   LIG    1       -5.159   1.794   0.553  0.00  0.00    +0.130 A 
ATOM      7  C   LIG    1       -4.088   1.917  -0.312  0.00  0.00    -0.680 A 
ATOM      8  C   LIG    1       -3.373   0.797  -0.691  0.00  0.00    +0.120 A 
ATOM      9  C   LIG    1       -3.723  -0.446  -0.198  0.00  0.00    -0.010 A 
BRANCH   4  11
ATOM     10  C   LIG    1       -5.538  -2.849   0.034  0.00  0.00    +0.040 C 
ATOM     11  C   LIG    1       -5.180  -1.925   1.200  0.00  0.00    +0.010 C 
ATOM     12  C   LIG    1       -4.005  -2.520   1.980  0.00  0.00    +0.030 C 
ENDBRANCH   4  11
ENDBRANCH   1   7
BRANCH   1  13
ATOM     13  N   LIG    1       -2.440   4.093   0.043  0.00  0.00    -1.050 N 
ATOM     14  H   LIG    1       -1.563   4.284  -0.324  0.00  0.00    +0.430 HD
BRANCH  13  15
ATOM     15  C   LIG    1       -2.692   4.315   1.391  0.00  0.00    +0.150 A 
ATOM     16  C   LIG    1       -1.779   3.878   2.349  0.00  0.00    -0.020 A 
ATOM     17  C   LIG    1       -2.018   4.092   3.676  0.00  0.00    +0.100 A 
ATOM     18  C   LIG    1       -3.184   4.753   4.081  0.00  0.00    -0.170 A 
ATOM     19  C   LIG    1       -4.105   5.195   3.119  0.00  0.00    +0.150 A 
ATOM     20  F   LIG    1       -5.232   5.833   3.502  0.00  0.00    -0.110 F 
ATOM     21  C   LIG    1       -3.857   4.969   1.781  0.00  0.00    -0.050 A 
BRANCH  18  22
ATOM     22  C   LIG    1       -3.442   4.984   5.509  0.00  0.00    +0.520 C 
ATOM     23  O   LIG    1       -4.462   5.562   5.861  0.00  0.00    -0.670 OA
ATOM     24  O   LIG    1       -2.638   4.598   6.347  0.00  0.00    -0.680 OA
ENDBRANCH  18  22
ENDBRANCH  13  15
ENDBRANCH   1  13
TORSDOF 5
