REMARK  Name = ZINCqH0000034J72.1
REMARK                            x       y       z     vdW  Elec       q    Type
REMARK                         _______ _______ _______ _____ _____    ______ ____
ROOT
ATOM      1  N   LIG    1        1.233  -2.082  -0.021  0.00  0.00    -0.650 N 
ATOM      2  H   LIG    1        1.929  -2.553  -0.506  0.00  0.00    +0.420 HD
ATOM      3  C   LIG    1        0.294  -2.774   0.653  0.00  0.00    +0.560 C 
ATOM      4  O   LIG    1       -0.624  -2.186   1.193  0.00  0.00    -0.510 OA
ENDROOT
BRANCH   1  10
ATOM      5  C   LIG    1        2.398   0.043  -0.036  0.00  0.00    +0.060 A 
ATOM      6  C   LIG    1        2.364   1.429  -0.038  0.00  0.00    -0.010 A 
ATOM      7  C   LIG    1        1.149   2.090  -0.025  0.00  0.00    +0.010 A 
ATOM      8  C   LIG    1       -0.033   1.373  -0.011  0.00  0.00    +0.030 A 
ATOM      9  C   LIG    1       -0.007  -0.010  -0.010  0.00  0.00    +0.020 A 
ATOM     10  C   LIG    1        1.206  -0.681  -0.022  0.00  0.00    +0.170 A 
BRANCH   5  15
ATOM     11  C   LIG    1        7.756  -1.518  -0.056  0.00  0.00    +0.190 C 
ATOM     12  N   LIG    1        6.467  -0.813  -0.042  0.00  0.00    -0.550 NA
ATOM     13  C   LIG    1        5.700  -1.093  -1.264  0.00  0.00    +0.180 C 
ATOM     14  C   LIG    1        4.404  -0.280  -1.247  0.00  0.00    +0.190 C 
ATOM     15  N   LIG    1        3.626  -0.628  -0.050  0.00  0.00    -0.500 N 
ATOM     16  C   LIG    1        4.392  -0.348   1.173  0.00  0.00    +0.190 C 
ATOM     17  C   LIG    1        5.689  -1.161   1.156  0.00  0.00    +0.180 C 
ENDBRANCH   5  15
ENDBRANCH   1  10
BRANCH   3  18
ATOM     18  C   LIG    1        0.379  -4.247   0.737  0.00  0.00    -0.100 A 
ATOM     19  C   LIG    1        1.429  -4.925   0.113  0.00  0.00    +0.050 A 
ATOM     20  C   LIG    1        1.505  -6.300   0.200  0.00  0.00    +0.060 A 
ATOM     21  C   LIG    1        0.539  -7.007   0.893  0.00  0.00    -0.160 A 
ATOM     22  C   LIG    1       -0.506  -6.342   1.508  0.00  0.00    +0.070 A 
ATOM     23  C   LIG    1       -0.592  -4.967   1.434  0.00  0.00    +0.090 A 
BRANCH  21  24
ATOM     24  C   LIG    1        0.626  -8.509   0.978  0.00  0.00    +0.510 C 
ATOM     25  F   LIG    1        0.054  -8.942   2.179  0.00  0.00    -0.170 F 
ATOM     26  F   LIG    1        1.968  -8.902   0.933  0.00  0.00    -0.170 F 
ATOM     27  F   LIG    1       -0.063  -9.078  -0.099  0.00  0.00    -0.170 F 
ENDBRANCH  21  24
ENDBRANCH   3  18
TORSDOF 4
