REMARK  Name = ZINCrH000004shrT.0
REMARK                            x       y       z     vdW  Elec       q    Type
REMARK                         _______ _______ _______ _____ _____    ______ ____
ROOT
ATOM      1  N   LIG    1       -0.715   3.239   1.625  0.00  0.00    -0.660 N 
ATOM      2  H   LIG    1       -0.705   3.661   0.752  0.00  0.00    +0.420 HD
ATOM      3  C   LIG    1        0.068   2.168   1.865  0.00  0.00    +0.520 C 
ATOM      4  O   LIG    1        0.108   1.683   2.976  0.00  0.00    -0.500 OA
ENDROOT
BRANCH   1   7
ATOM      5  C   LIG    1       -0.373   5.995   2.945  0.00  0.00    +0.130 C 
ATOM      6  C   LIG    1       -1.420   4.953   3.241  0.00  0.00    -0.220 A 
ATOM      7  C   LIG    1       -1.538   3.741   2.633  0.00  0.00    +0.300 A 
ATOM      8  N   LIG    1       -2.604   3.106   3.193  0.00  0.00    -0.320 N 
ATOM      9  N   LIG    1       -3.148   3.958   4.162  0.00  0.00    -0.270 NA
ATOM     10  C   LIG    1       -2.443   5.060   4.188  0.00  0.00    +0.250 A 
BRANCH   8  11
ATOM     11  C   LIG    1       -3.073   1.828   2.859  0.00  0.00    +0.160 A 
ATOM     12  C   LIG    1       -3.022   1.391   1.542  0.00  0.00    -0.010 A 
ATOM     13  C   LIG    1       -3.480   0.129   1.216  0.00  0.00    +0.030 A 
ATOM     14  C   LIG    1       -3.999  -0.694   2.199  0.00  0.00    +0.010 A 
ATOM     15  C   LIG    1       -4.056  -0.259   3.510  0.00  0.00    +0.030 A 
ATOM     16  C   LIG    1       -3.595   0.999   3.843  0.00  0.00    +0.020 A 
ENDBRANCH   8  11
ENDBRANCH   1   7
BRANCH   3  17
ATOM     17  C   LIG    1        0.893   1.574   0.753  0.00  0.00    +0.080 C 
BRANCH  17  18
ATOM     18  C   LIG    1        1.683   0.378   1.287  0.00  0.00    +0.220 C 
BRANCH  18  19
ATOM     19  C   LIG    1        2.508  -0.216   0.175  0.00  0.00    +0.180 A 
ATOM     20  N   LIG    1        3.733   0.119  -0.154  0.00  0.00    -0.470 NA
ATOM     21  C   LIG    1        4.058  -0.671  -1.193  0.00  0.00    +0.180 A 
ATOM     22  N   LIG    1        3.031  -1.427  -1.443  0.00  0.00    -0.380 NA
ATOM     23  O   LIG    1        2.130  -1.181  -0.669  0.00  0.00    +0.080 OA
BRANCH  21  24
ATOM     24  C   LIG    1        5.370  -0.675  -1.934  0.00  0.00    +0.100 C 
ATOM     25  C   LIG    1        5.130  -0.405  -3.434  0.00  0.00    +0.020 C 
ATOM     26  C   LIG    1        6.163  -1.308  -4.152  0.00  0.00    +0.020 C 
ATOM     27  C   LIG    1        6.162  -2.588  -3.281  0.00  0.00    +0.020 C 
ATOM     28  C   LIG    1        6.026  -2.063  -1.837  0.00  0.00    +0.030 C 
ENDBRANCH  21  24
ENDBRANCH  18  19
ENDBRANCH  17  18
ENDBRANCH   3  17
TORSDOF 6
