REMARK  Name = ZINCc70000004Tel.0
REMARK                            x       y       z     vdW  Elec       q    Type
REMARK                         _______ _______ _______ _____ _____    ______ ____
ROOT
ATOM      1  O   LIG    1        1.231   3.276   0.007  0.00  0.00    -0.530 OA
ATOM      2  C   LIG    1        1.207   2.057   0.002  0.00  0.00    +0.540 A 
ATOM      3  C   LIG    1       -0.016   1.361   0.009  0.00  0.00    -0.130 A 
ATOM      4  C   LIG    1        0.002  -0.004   0.002  0.00  0.00    +0.210 A 
ATOM      5  N   LIG    1        1.157  -0.661  -0.013  0.00  0.00    -0.510 NA
ATOM      6  C   LIG    1        2.316  -0.020  -0.020  0.00  0.00    +0.550 A 
ATOM      7  N   LIG    1        3.590  -0.460  -0.035  0.00  0.00    -0.500 NA
ATOM      8  C   LIG    1        4.416   0.551  -0.037  0.00  0.00    +0.660 A 
ATOM      9  N   LIG    1        3.705   1.710  -0.024  0.00  0.00    -0.480 N 
ATOM     10  H   LIG    1        4.064   2.611  -0.023  0.00  0.00    +0.460 HD
ATOM     11  N   LIG    1        2.351   1.348  -0.013  0.00  0.00    -0.370 N 
ENDROOT
BRANCH   4  12
ATOM     12  C   LIG    1       -1.295  -0.771   0.010  0.00  0.00    +0.250 C 
ATOM     13 CL   LIG    1       -1.753  -1.195  -1.682  0.00  0.00    -0.150 Cl
ENDBRANCH   4  12
TORSDOF 1
