REMARK  Name = ZINCrD000000Abtr.0
REMARK                            x       y       z     vdW  Elec       q    Type
REMARK                         _______ _______ _______ _____ _____    ______ ____
ROOT
ATOM      1  O   LIG    1        0.825   8.015   0.035  0.00  0.00    -0.510 OA
ATOM      2  C   LIG    1        2.035   7.935   0.023  0.00  0.00    +0.530 C 
ATOM      3  N   LIG    1        2.630   6.726   0.011  0.00  0.00    -0.630 N 
ATOM      4  H   LIG    1        3.598   6.662   0.001  0.00  0.00    +0.420 HD
ENDROOT
BRANCH   3   5
ATOM      5  C   LIG    1        1.851   5.561   0.013  0.00  0.00    +0.270 A 
ATOM      6  N   LIG    1        2.291   4.317   0.009  0.00  0.00    -0.300 NA
ATOM      7  N   LIG    1        1.161   3.487   0.009  0.00  0.00    -0.170 N 
ATOM      8  N   LIG    1        0.107   4.226   0.023  0.00  0.00    -0.230 NA
ATOM      9  C   LIG    1        0.453   5.489   0.026  0.00  0.00    +0.190 A 
BRANCH   7  10
ATOM     10  C   LIG    1        1.177   2.086   0.002  0.00  0.00    +0.160 A 
ATOM     11  C   LIG    1       -0.017   1.377   0.010  0.00  0.00    +0.030 A 
ATOM     12  C   LIG    1        0.002  -0.004   0.002  0.00  0.00    +0.040 A 
ATOM     13  C   LIG    1        1.208  -0.680  -0.013  0.00  0.00    +0.010 A 
ATOM     14  C   LIG    1        2.399   0.023  -0.020  0.00  0.00    +0.040 A 
ATOM     15  C   LIG    1        2.386   1.404  -0.013  0.00  0.00    +0.030 A 
ENDBRANCH   7  10
ENDBRANCH   3   5
BRANCH   2  16
ATOM     16  C   LIG    1        2.873   9.188   0.021  0.00  0.00    +0.090 C 
BRANCH  16  17
ATOM     17  C   LIG    1        1.958  10.413   0.036  0.00  0.00    +0.070 C 
BRANCH  17  18
ATOM     18  C   LIG    1        2.796  11.666   0.035  0.00  0.00    +0.400 C 
ATOM     19  O   LIG    1        4.005  11.586   0.022  0.00  0.00    -0.450 OA
BRANCH  18  20
ATOM     20  C   LIG    1        2.146  12.986   0.048  0.00  0.00    -0.170 A 
ATOM     21  C   LIG    1        0.751  13.084   0.062  0.00  0.00    +0.070 A 
ATOM     22  C   LIG    1        0.152  14.324   0.074  0.00  0.00    +0.010 A 
ATOM     23  C   LIG    1        0.923  15.477   0.073  0.00  0.00    -0.060 A 
ATOM     24  C   LIG    1        0.506  16.933   0.084  0.00  0.00    +0.080 C 
ATOM     25  C   LIG    1        1.757  17.716  -0.365  0.00  0.00    +0.030 C 
ATOM     26  C   LIG    1        2.906  16.778   0.060  0.00  0.00    +0.080 C 
ATOM     27  C   LIG    1        2.305  15.388   0.059  0.00  0.00    -0.110 A 
ATOM     28  C   LIG    1        2.918  14.151   0.052  0.00  0.00    +0.080 A 
ENDBRANCH  18  20
ENDBRANCH  17  18
ENDBRANCH  16  17
ENDBRANCH   2  16
TORSDOF 6
