REMARK  Name = ZINCqH0000003AYc.0
REMARK                            x       y       z     vdW  Elec       q    Type
REMARK                         _______ _______ _______ _____ _____    ______ ____
ROOT
ATOM      1  N   LIG    1       -3.949   2.499  -2.330  0.00  0.00    -0.720 N 
ATOM      2  H   LIG    1       -4.309   2.718  -1.457  0.00  0.00    +0.400 HD
ATOM      3  C   LIG    1       -4.332   3.203  -3.414  0.00  0.00    +0.520 C 
ATOM      4  O   LIG    1       -3.881   2.929  -4.506  0.00  0.00    -0.540 OA
ENDROOT
BRANCH   1   7
ATOM      5  C   LIG    1       -2.354  -0.384  -1.521  0.00  0.00    +0.160 C 
ATOM      6  C   LIG    1       -3.613   0.007  -2.314  0.00  0.00    -0.000 C 
ATOM      7  C   LIG    1       -2.987   1.403  -2.472  0.00  0.00    +0.260 C 
ATOM      8  C   LIG    1       -2.200   1.106  -1.188  0.00  0.00    -0.080 C 
ATOM      9  C   LIG    1       -0.754   1.593  -1.232  0.00  0.00    +0.040 C 
ATOM     10  C   LIG    1       -0.013   1.086   0.008  0.00  0.00    +0.010 C 
ATOM     11  C   LIG    1       -0.729   1.579   1.266  0.00  0.00    +0.000 C 
ATOM     12  C   LIG    1       -2.152   1.018   1.303  0.00  0.00    +0.010 C 
ATOM     13  C   LIG    1       -2.931   1.524   0.086  0.00  0.00    +0.040 C 
BRANCH   5  14
ATOM     14  O   LIG    1       -1.300  -0.901  -2.336  0.00  0.00    -0.360 OA
BRANCH  14  16
ATOM     15  C   LIG    1        0.117  -2.728  -3.038  0.00  0.00    +0.040 C 
ATOM     16  C   LIG    1       -1.022  -2.285  -2.116  0.00  0.00    +0.160 C 
ENDBRANCH  14  16
ENDBRANCH   5  14
ENDBRANCH   1   7
BRANCH   3  17
ATOM     17  C   LIG    1       -5.321   4.331  -3.269  0.00  0.00    +0.080 C 
BRANCH  17  18
ATOM     18  C   LIG    1       -5.583   4.959  -4.639  0.00  0.00    +0.170 C 
BRANCH  18  19
ATOM     19  C   LIG    1       -6.572   6.086  -4.494  0.00  0.00    +0.290 A 
ATOM     20  N   LIG    1       -7.752   5.978  -3.956  0.00  0.00    -0.490 NA
ATOM     21  C   LIG    1       -8.379   7.183  -3.983  0.00  0.00    +0.050 A 
ATOM     22  C   LIG    1       -9.630   7.628  -3.550  0.00  0.00    +0.070 A 
ATOM     23  C   LIG    1       -9.986   8.935  -3.727  0.00  0.00    +0.000 A 
ATOM     24  C   LIG    1       -9.117   9.829  -4.335  0.00  0.00    +0.030 A 
ATOM     25  C   LIG    1       -7.877   9.412  -4.771  0.00  0.00    +0.010 A 
ATOM     26  C   LIG    1       -7.498   8.088  -4.599  0.00  0.00    +0.050 A 
ATOM     27  N   LIG    1       -6.364   7.364  -4.911  0.00  0.00    -0.600 N 
ATOM     28  H   LIG    1       -5.567   7.704  -5.346  0.00  0.00    +0.420 HD
ENDBRANCH  18  19
ENDBRANCH  17  18
ENDBRANCH   3  17
TORSDOF 6
