REMARK  Name = ZINCpk00000jU5wW.0
REMARK                            x       y       z     vdW  Elec       q    Type
REMARK                         _______ _______ _______ _____ _____    ______ ____
ROOT
ATOM      1  C   LIG    1       -0.636   7.063  -2.156  0.00  0.00    +0.230 C 
ATOM      2  C   LIG    1       -1.183   7.024  -3.605  0.00  0.00    +0.070 C 
ATOM      3  C   LIG    1       -2.460   6.164  -3.470  0.00  0.00    +0.150 C 
ATOM      4  C   LIG    1       -2.853   6.257  -1.984  0.00  0.00    +0.170 C 
ATOM      5  N   LIG    1       -1.868   7.146  -1.330  0.00  0.00    -0.480 NA
ENDROOT
BRANCH   1  12
ATOM      6  N   LIG    1        1.387   8.564  -2.627  0.00  0.00    -0.550 N 
ATOM      7  C   LIG    1        1.875   9.732  -2.164  0.00  0.00    +0.650 A 
ATOM      8  N   LIG    1        1.032  10.170  -1.206  0.00  0.00    -0.550 N 
ATOM      9  H   LIG    1        1.122  10.987  -0.690  0.00  0.00    +0.460 HD
ATOM     10  N   LIG    1       -0.001   9.229  -1.098  0.00  0.00    -0.250 NA
ATOM     11  O   LIG    1        2.891  10.289  -2.541  0.00  0.00    -0.560 OA
ATOM     12  C   LIG    1        0.229   8.279  -1.946  0.00  0.00    +0.290 A 
BRANCH   6  14
ATOM     13  C   LIG    1        1.437   8.164  -5.039  0.00  0.00    +0.040 C 
ATOM     14  C   LIG    1        1.989   7.738  -3.677  0.00  0.00    +0.310 C 
ENDBRANCH   6  14
ENDBRANCH   1  12
BRANCH   3  15
ATOM     15  O   LIG    1       -3.503   6.691  -4.293  0.00  0.00    -0.370 OA
ATOM     16  C   LIG    1       -4.453   5.715  -4.723  0.00  0.00    +0.200 C 
ENDBRANCH   3  15
BRANCH   5  17
ATOM     17  C   LIG    1       -1.606   6.717   0.050  0.00  0.00    +0.270 C 
BRANCH  17  18
ATOM     18  C   LIG    1       -0.841   5.419   0.037  0.00  0.00    -0.080 A 
ATOM     19  C   LIG    1       -1.526   4.249   0.037  0.00  0.00    +0.040 A 
ATOM     20  C   LIG    1       -0.820   3.027   0.025  0.00  0.00    +0.100 A 
ATOM     21  N   LIG    1       -1.168   1.753   0.017  0.00  0.00    -0.300 NA
ATOM     22  N   LIG    1       -0.011   0.966   0.007  0.00  0.00    -0.420 N 
ATOM     23  H   LIG    1        0.002  -0.004   0.002  0.00  0.00    +0.450 HD
ATOM     24  C   LIG    1        1.076   1.750   0.001  0.00  0.00    +0.280 A 
ATOM     25  C   LIG    1        0.651   3.065   0.011  0.00  0.00    -0.210 A 
ATOM     26  C   LIG    1        1.298   4.319   0.012  0.00  0.00    +0.090 A 
ATOM     27  C   LIG    1        0.556   5.455   0.024  0.00  0.00    -0.030 A 
ENDBRANCH  17  18
ENDBRANCH   5  17
TORSDOF 5
