REMARK  Name = ZINCvU000000069N.0
REMARK                            x       y       z     vdW  Elec       q    Type
REMARK                         _______ _______ _______ _____ _____    ______ ____
ROOT
ATOM      1  C   LIG    1        9.627  -0.894   1.321  0.00  0.00    +0.220 A 
ATOM      2  N   LIG    1       10.068  -0.860   0.069  0.00  0.00    -0.290 NA
ATOM      3  N   LIG    1       11.323  -0.778  -0.202  0.00  0.00    -0.160 NA
ATOM      4  C   LIG    1       12.222  -0.726   0.776  0.00  0.00    +0.070 A 
ATOM      5  C   LIG    1       11.777  -0.762   2.113  0.00  0.00    +0.230 A 
ATOM      6  N   LIG    1       10.469  -0.841   2.345  0.00  0.00    -0.440 NA
ENDROOT
BRANCH   5   7
ATOM      7  C   LIG    1       12.744  -0.706   3.234  0.00  0.00    -0.080 A 
ATOM      8  C   LIG    1       13.988  -1.324   3.117  0.00  0.00    +0.070 A 
ATOM      9  C   LIG    1       14.886  -1.265   4.163  0.00  0.00    +0.000 A 
ATOM     10  C   LIG    1       14.550  -0.603   5.330  0.00  0.00    +0.040 A 
ATOM     11  C   LIG    1       13.315   0.008   5.455  0.00  0.00    +0.000 A 
ATOM     12  C   LIG    1       12.410  -0.041   4.413  0.00  0.00    +0.070 A 
ENDBRANCH   5   7
BRANCH   4  13
ATOM     13  C   LIG    1       13.667  -0.633   0.466  0.00  0.00    -0.060 A 
ATOM     14  C   LIG    1       14.512   0.114   1.286  0.00  0.00    +0.050 A 
ATOM     15  C   LIG    1       15.859   0.194   0.994  0.00  0.00    +0.010 A 
ATOM     16  C   LIG    1       16.369  -0.458  -0.114  0.00  0.00    +0.040 A 
ATOM     17  C   LIG    1       15.535  -1.196  -0.934  0.00  0.00    +0.000 A 
ATOM     18  C   LIG    1       14.188  -1.287  -0.650  0.00  0.00    +0.060 A 
ENDBRANCH   4  13
BRANCH   1  19
ATOM     19  S   LIG    1        7.895  -1.006   1.627  0.00  0.00    +0.090 S 
BRANCH  19  20
ATOM     20  C   LIG    1        7.276  -1.036  -0.073  0.00  0.00    +0.250 C 
BRANCH  20  24
ATOM     21  C   LIG    1        3.699  -0.689  -0.036  0.00  0.00    +0.220 A 
ATOM     22  N   LIG    1        3.865  -1.986  -0.045  0.00  0.00    -0.360 NA
ATOM     23  O   LIG    1        5.048  -2.255  -0.058  0.00  0.00    +0.100 OA
ATOM     24  C   LIG    1        5.772  -1.131  -0.059  0.00  0.00    +0.190 A 
ATOM     25  N   LIG    1        4.929  -0.129  -0.051  0.00  0.00    -0.450 NA
BRANCH  21  29
ATOM     26  C   LIG    1       -0.017   1.379   0.010  0.00  0.00    +0.030 A 
ATOM     27  C   LIG    1        1.169   2.092   0.002  0.00  0.00    +0.010 A 
ATOM     28  C   LIG    1        2.377   1.426  -0.013  0.00  0.00    +0.070 A 
ATOM     29  C   LIG    1        2.402   0.033  -0.021  0.00  0.00    -0.030 A 
ATOM     30  C   LIG    1        1.205  -0.680  -0.013  0.00  0.00    +0.050 A 
ATOM     31  C   LIG    1        0.002  -0.004   0.002  0.00  0.00    +0.010 A 
ENDBRANCH  21  29
ENDBRANCH  20  24
ENDBRANCH  19  20
ENDBRANCH   1  19
TORSDOF 6
