REMARK  Name = ZINCqH0000007npr.0
REMARK                            x       y       z     vdW  Elec       q    Type
REMARK                         _______ _______ _______ _____ _____    ______ ____
ROOT
ATOM      1  N   LIG    1       -2.463   1.019  -0.011  0.00  0.00    -1.060 N 
ATOM      2  H   LIG    1       -2.593   0.247  -0.585  0.00  0.00    +0.430 HD
ENDROOT
BRANCH   1   3
ATOM      3  C   LIG    1       -1.314   1.802  -0.143  0.00  0.00    +0.120 A 
ATOM      4  C   LIG    1       -1.184   2.671  -1.219  0.00  0.00    +0.020 A 
ATOM      5  C   LIG    1       -0.049   3.448  -1.344  0.00  0.00    +0.020 A 
ATOM      6  C   LIG    1        0.960   3.357  -0.403  0.00  0.00    -0.070 A 
ATOM      7  C   LIG    1        0.837   2.488   0.666  0.00  0.00    +0.030 A 
ATOM      8  C   LIG    1       -0.296   1.709   0.797  0.00  0.00    +0.040 A 
BRANCH   6   9
ATOM      9  C   LIG    1        2.197   4.207  -0.542  0.00  0.00    +0.130 C 
BRANCH   9  10
ATOM     10  C   LIG    1        1.990   5.517   0.174  0.00  0.00    -0.030 A 
ATOM     11  C   LIG    1        1.458   6.612  -0.489  0.00  0.00    -0.040 A 
ATOM     12  C   LIG    1        1.278   7.796   0.202  0.00  0.00    +0.250 A 
ATOM     13  N   LIG    1        1.616   7.892   1.473  0.00  0.00    -0.490 NA
ATOM     14  C   LIG    1        2.129   6.873   2.134  0.00  0.00    +0.260 A 
ATOM     15  C   LIG    1        2.333   5.657   1.510  0.00  0.00    -0.030 A 
ENDBRANCH   9  10
ENDBRANCH   6   9
ENDBRANCH   1   3
BRANCH   1  16
ATOM     16  S   LIG    1       -3.603   1.407   1.125  0.00  0.00    +2.690 S 
ATOM     17  O   LIG    1       -2.904   1.591   2.349  0.00  0.00    -0.950 OA
ATOM     18  O   LIG    1       -4.661   0.472   0.968  0.00  0.00    -0.950 OA
BRANCH  16  22
ATOM     19  C   LIG    1       -5.294   5.454  -0.002  0.00  0.00    +0.180 A 
ATOM     20  C   LIG    1       -4.153   5.372   0.783  0.00  0.00    -0.080 A 
ATOM     21  C   LIG    1       -3.642   4.136   1.130  0.00  0.00    +0.160 A 
ATOM     22  C   LIG    1       -4.261   2.982   0.687  0.00  0.00    -0.710 A 
ATOM     23  C   LIG    1       -5.399   3.061  -0.095  0.00  0.00    +0.170 A 
ATOM     24  C   LIG    1       -5.916   4.294  -0.440  0.00  0.00    -0.140 A 
ATOM     25  C   LIG    1       -7.156   4.380  -1.293  0.00  0.00    +0.100 C 
BRANCH  19  27
ATOM     26  C   LIG    1       -5.108   7.819   0.147  0.00  0.00    +0.250 C 
ATOM     27  O   LIG    1       -5.801   6.668  -0.340  0.00  0.00    -0.310 OA
ENDBRANCH  19  27
ENDBRANCH  16  22
ENDBRANCH   1  16
TORSDOF 6
