REMARK  Name = ZINCkj000005jZ2u.0
REMARK                            x       y       z     vdW  Elec       q    Type
REMARK                         _______ _______ _______ _____ _____    ______ ____
ROOT
ATOM      1  S   LIG    1       -1.510  -0.909   0.012  0.00  0.00    +2.710 S 
ATOM      2  O   LIG    1       -2.491  -0.045   0.570  0.00  0.00    -0.930 OA
ATOM      3  O   LIG    1       -1.208  -2.190   0.546  0.00  0.00    -0.930 OA
ENDROOT
BRANCH   1   9
ATOM      4  C   LIG    1        3.698   4.717  -0.319  0.00  0.00    +0.090 C 
ATOM      5  C   LIG    1        2.965   3.589   0.410  0.00  0.00    +0.170 C 
ATOM      6  C   LIG    1        1.466   3.571   0.026  0.00  0.00    +0.100 C 
ATOM      7  C   LIG    1        1.167   2.084   0.002  0.00  0.00    -0.180 A 
ATOM      8  C   LIG    1       -0.017   1.380   0.010  0.00  0.00    +0.180 A 
ATOM      9  C   LIG    1        0.002  -0.004   0.002  0.00  0.00    -0.710 A 
ATOM     10  C   LIG    1        1.211  -0.674  -0.014  0.00  0.00    +0.180 A 
ATOM     11  C   LIG    1        2.399   0.030  -0.026  0.00  0.00    -0.080 A 
ATOM     12 CL   LIG    1        3.910  -0.823  -0.047  0.00  0.00    -0.040 Cl
ATOM     13  C   LIG    1        2.388   1.423  -0.021  0.00  0.00    +0.190 A 
ATOM     14  O   LIG    1        3.425   2.305  -0.043  0.00  0.00    -0.280 OA
ENDBRANCH   1   9
BRANCH   1  15
ATOM     15  N   LIG    1       -1.946  -1.152  -1.567  0.00  0.00    -1.010 NA
ATOM     16  C   LIG    1       -2.792  -0.253  -2.373  0.00  0.00    +0.320 C 
ATOM     17  C   LIG    1       -2.398  -0.553  -3.843  0.00  0.00    +0.070 C 
ATOM     18  C   LIG    1       -2.171  -2.088  -3.795  0.00  0.00    +0.180 C 
ATOM     19  C   LIG    1       -1.558  -2.303  -2.396  0.00  0.00    +0.300 C 
BRANCH  18  20
ATOM     20  N   LIG    1       -1.233  -2.508  -4.845  0.00  0.00    -0.630 N 
ATOM     21  H   LIG    1       -0.385  -1.966  -4.774  0.00  0.00    +0.440 HD
ATOM     22  H   LIG    1       -1.652  -2.359  -5.750  0.00  0.00    +0.440 HD
ATOM     23  H   LIG    1       -1.017  -3.487  -4.730  0.00  0.00    +0.440 HD
ENDBRANCH  18  20
ENDBRANCH   1  15
TORSDOF 3
