REMARK  Name = ZINCpe00000VVH3Y.0
REMARK                            x       y       z     vdW  Elec       q    Type
REMARK                         _______ _______ _______ _____ _____    ______ ____
ROOT
ATOM      1  C   LIG    1       -3.977   0.962   2.884  0.00  0.00    +0.590 C 
ATOM      2  N   LIG    1       -2.894   1.612   2.411  0.00  0.00    -0.710 N 
ATOM      3  H   LIG    1       -2.586   2.422   2.847  0.00  0.00    +0.410 HD
ATOM      4  O   LIG    1       -4.363  -0.053   2.337  0.00  0.00    -0.520 OA
ENDROOT
BRANCH   1   7
ATOM      5  N   LIG    1       -4.863   3.074   5.685  0.00  0.00    -0.330 N 
ATOM      6  N   LIG    1       -4.275   2.581   4.655  0.00  0.00    -0.180 NA
ATOM      7  C   LIG    1       -4.694   1.484   4.067  0.00  0.00    +0.020 A 
ATOM      8  C   LIG    1       -5.834   0.802   4.558  0.00  0.00    +0.140 A 
ATOM      9  C   LIG    1       -6.466   1.310   5.654  0.00  0.00    -0.020 A 
ATOM     10  C   LIG    1       -5.950   2.494   6.226  0.00  0.00    +0.480 A 
ATOM     11  O   LIG    1       -6.486   2.987   7.205  0.00  0.00    -0.520 OA
BRANCH   5  12
ATOM     12  C   LIG    1       -4.337   4.302   6.286  0.00  0.00    +0.320 C 
BRANCH  12  14
ATOM     13  C   LIG    1       -2.755   5.226   7.985  0.00  0.00    +0.030 C 
ATOM     14  C   LIG    1       -3.304   3.944   7.357  0.00  0.00    +0.000 C 
ENDBRANCH  12  14
ENDBRANCH   5  12
ENDBRANCH   1   7
BRANCH   2  15
ATOM     15  C   LIG    1       -2.184   1.095   1.239  0.00  0.00    +0.250 C 
ATOM     16  C   LIG    1       -0.731   1.580   1.267  0.00  0.00    +0.020 C 
ATOM     17  C   LIG    1       -0.013   1.086   0.008  0.00  0.00    +0.050 C 
ATOM     18  C   LIG    1       -0.754   1.594  -1.231  0.00  0.00    +0.210 C 
ATOM     19  N   LIG    1       -2.138   1.101  -1.210  0.00  0.00    -0.460 N 
ATOM     20  C   LIG    1       -2.862   1.602  -0.035  0.00  0.00    +0.220 C 
BRANCH  19  21
ATOM     21  C   LIG    1       -2.800   1.433  -2.380  0.00  0.00    +0.490 A 
ATOM     22  N   LIG    1       -3.932   2.117  -2.310  0.00  0.00    -0.550 NA
ATOM     23  C   LIG    1       -4.587   2.454  -3.409  0.00  0.00    +0.340 A 
ATOM     24  C   LIG    1       -4.079   2.075  -4.642  0.00  0.00    -0.110 A 
ATOM     25  C   LIG    1       -2.895   1.355  -4.678  0.00  0.00    +0.350 A 
ATOM     26  N   LIG    1       -2.288   1.055  -3.542  0.00  0.00    -0.530 NA
ENDBRANCH  19  21
ENDBRANCH   2  15
TORSDOF 5
