REMARK  Name = ZINCqH0000002r1E.0
REMARK                            x       y       z     vdW  Elec       q    Type
REMARK                         _______ _______ _______ _____ _____    ______ ____
ROOT
ATOM      1  N   LIG    1       -0.566   6.450  -1.458  0.00  0.00    -1.050 N 
ATOM      2  H   LIG    1        0.066   6.811  -2.099  0.00  0.00    +0.430 HD
ENDROOT
BRANCH   1   9
ATOM      3  N   LIG    1       -2.285   5.671  -5.487  0.00  0.00    -0.500 NA
ATOM      4  C   LIG    1       -3.604   5.296  -4.920  0.00  0.00    +0.230 C 
ATOM      5  C   LIG    1       -3.554   5.710  -3.467  0.00  0.00    -0.080 A 
ATOM      6  C   LIG    1       -4.552   5.918  -2.535  0.00  0.00    +0.020 A 
ATOM      7  C   LIG    1       -4.231   6.302  -1.245  0.00  0.00    +0.060 A 
ATOM      8  C   LIG    1       -2.910   6.480  -0.885  0.00  0.00    -0.010 A 
ATOM      9  C   LIG    1       -1.903   6.271  -1.819  0.00  0.00    +0.170 A 
ATOM     10  C   LIG    1       -2.228   5.891  -3.114  0.00  0.00    -0.120 A 
ATOM     11  C   LIG    1       -1.371   5.603  -4.324  0.00  0.00    +0.230 C 
BRANCH   3  12
ATOM     12  C   LIG    1       -1.879   4.722  -6.533  0.00  0.00    +0.160 C 
BRANCH  12  13
ATOM     13  C   LIG    1       -2.683   4.991  -7.806  0.00  0.00    +0.020 C 
BRANCH  13  15
ATOM     14  C   LIG    1       -3.065   4.272 -10.168  0.00  0.00    +0.010 C 
ATOM     15  C   LIG    1       -2.260   4.003  -8.895  0.00  0.00    +0.000 C 
ENDBRANCH  13  15
ENDBRANCH  12  13
ENDBRANCH   3  12
ENDBRANCH   1   9
BRANCH   1  16
ATOM     16  S   LIG    1       -0.058   6.045   0.066  0.00  0.00    +2.690 S 
ATOM     17  O   LIG    1        1.355   6.195   0.072  0.00  0.00    -0.940 OA
ATOM     18  O   LIG    1       -0.917   6.728   0.970  0.00  0.00    -0.940 OA
BRANCH  16  19
ATOM     19  C   LIG    1       -0.376   4.325   0.281  0.00  0.00    -0.660 A 
ATOM     20  C   LIG    1       -1.310   3.909   1.214  0.00  0.00    +0.150 A 
ATOM     21  C   LIG    1       -1.563   2.564   1.388  0.00  0.00    +0.050 A 
ATOM     22  C   LIG    1       -0.876   1.622   0.621  0.00  0.00    +0.040 A 
ATOM     23  C   LIG    1        0.069   2.049  -0.315  0.00  0.00    +0.040 A 
ATOM     24  C   LIG    1        0.309   3.397  -0.483  0.00  0.00    +0.020 A 
ATOM     25  C   LIG    1        1.324   3.860  -1.496  0.00  0.00    +0.120 C 
BRANCH  22  26
ATOM     26  C   LIG    1       -1.134   0.225   0.796  0.00  0.00    +0.240 C 
ATOM     27  N   LIG    1       -1.339  -0.884   0.935  0.00  0.00    -0.390 NA
ENDBRANCH  22  26
ENDBRANCH  16  19
ENDBRANCH   1  16
TORSDOF 7
