REMARK  Name = ZINCtV00000tRQbC.0
REMARK                            x       y       z     vdW  Elec       q    Type
REMARK                         _______ _______ _______ _____ _____    ______ ____
ROOT
ATOM      1  C   LIG    1        4.214   3.085  -0.212  0.00  0.00    +0.320 C 
ATOM      2  N   LIG    1        3.638   2.045   0.153  0.00  0.00    -0.590 NA
ATOM      3  C   LIG    1        2.442   1.494   0.360  0.00  0.00    +0.170 A 
ATOM      4  C   LIG    1        2.478   0.118   0.686  0.00  0.00    +0.050 A 
ATOM      5  C   LIG    1        1.330  -0.603   0.890  0.00  0.00    +0.020 A 
ATOM      6  C   LIG    1        0.098   0.018   0.778  0.00  0.00    +0.030 A 
ATOM      7  C   LIG    1        0.039   1.358   0.474  0.00  0.00    +0.040 A 
ATOM      8  C   LIG    1        1.198   2.119   0.274  0.00  0.00    -0.130 A 
ATOM      9  S   LIG    1        0.965   3.821  -0.056  0.00  0.00    -0.070 S 
ATOM     10  C   LIG    1        2.278   4.329  -1.155  0.00  0.00    +0.050 C 
ATOM     11  C   LIG    1        3.622   4.420  -0.493  0.00  0.00    +0.070 C 
ENDROOT
BRANCH   1  15
ATOM     12  C   LIG    1        8.415   2.786  -0.724  0.00  0.00    +0.150 A 
ATOM     13  C   LIG    1        7.663   1.642  -0.485  0.00  0.00    -0.030 A 
ATOM     14  C   LIG    1        6.300   1.734  -0.318  0.00  0.00    +0.110 A 
ATOM     15  C   LIG    1        5.671   2.982  -0.390  0.00  0.00    -0.120 A 
ATOM     16  C   LIG    1        6.431   4.130  -0.635  0.00  0.00    +0.080 A 
ATOM     17  C   LIG    1        7.795   4.028  -0.795  0.00  0.00    -0.090 A 
BRANCH  12  19
ATOM     18  C   LIG    1       10.472   3.906  -1.131  0.00  0.00    +0.240 C 
ATOM     19  O   LIG    1        9.759   2.691  -0.888  0.00  0.00    -0.310 OA
ENDBRANCH  12  19
ENDBRANCH   1  15
BRANCH  10  20
ATOM     20  C   LIG    1        1.931   5.679  -1.728  0.00  0.00    -0.070 A 
ATOM     21  C   LIG    1        1.747   6.759  -0.884  0.00  0.00    +0.030 A 
ATOM     22  C   LIG    1        1.428   8.000  -1.404  0.00  0.00    -0.030 A 
ATOM     23  C   LIG    1        1.293   8.163  -2.773  0.00  0.00    +0.110 A 
ATOM     24  C   LIG    1        1.479   7.076  -3.622  0.00  0.00    +0.100 A 
ATOM     25  C   LIG    1        1.803   5.837  -3.095  0.00  0.00    -0.010 A 
BRANCH  24  26
ATOM     26  O   LIG    1        1.347   7.232  -4.967  0.00  0.00    -0.300 OA
ATOM     27  C   LIG    1        1.552   6.073  -5.777  0.00  0.00    +0.240 C 
ENDBRANCH  24  26
BRANCH  23  28
ATOM     28  O   LIG    1        0.980   9.383  -3.286  0.00  0.00    -0.300 OA
ATOM     29  C   LIG    1        0.804  10.453  -2.355  0.00  0.00    +0.240 C 
ENDBRANCH  23  28
ENDBRANCH  10  20
TORSDOF 5
