REMARK  Name = ZINCtV00000L6laA.0
REMARK                            x       y       z     vdW  Elec       q    Type
REMARK                         _______ _______ _______ _____ _____    ______ ____
ROOT
ATOM      1  O   LIG    1        4.548   3.959   3.015  0.00  0.00    -0.230 OA
ENDROOT
BRANCH   1   2
ATOM      2  C   LIG    1        3.291   4.153   2.558  0.00  0.00    +0.410 A 
ATOM      3  N   LIG    1        3.075   4.792   1.421  0.00  0.00    -0.560 NA
ATOM      4  C   LIG    1        1.839   4.991   0.958  0.00  0.00    +0.440 A 
ATOM      5  N   LIG    1        0.761   4.568   1.597  0.00  0.00    -0.520 NA
ATOM      6  C   LIG    1        0.877   3.910   2.758  0.00  0.00    +0.190 A 
ATOM      7  C   LIG    1       -0.243   3.447   3.462  0.00  0.00    +0.030 A 
ATOM      8  C   LIG    1       -0.071   2.782   4.640  0.00  0.00    +0.070 A 
ATOM      9  C   LIG    1        1.201   2.555   5.156  0.00  0.00    +0.010 A 
ATOM     10  C   LIG    1        2.313   2.992   4.496  0.00  0.00    +0.080 A 
ATOM     11  C   LIG    1        2.172   3.678   3.285  0.00  0.00    -0.170 A 
BRANCH   4  12
ATOM     12  C   LIG    1        1.669   5.711  -0.318  0.00  0.00    -0.160 A 
ATOM     13  C   LIG    1        2.672   6.204  -1.075  0.00  0.00    +0.080 A 
ATOM     14  C   LIG    1        2.266   6.835  -2.230  0.00  0.00    -0.010 A 
ATOM     15  C   LIG    1        0.942   6.873  -2.419  0.00  0.00    -0.040 A 
ATOM     16  S   LIG    1        0.127   6.067  -1.085  0.00  0.00    +0.190 S 
ENDBRANCH   4  12
ENDBRANCH   1   2
BRANCH   1  20
ATOM     17  C   LIG    1        7.690   5.163   0.623  0.00  0.00    +0.190 A 
ATOM     18  C   LIG    1        6.964   6.104   1.341  0.00  0.00    -0.020 A 
ATOM     19  C   LIG    1        5.913   5.700   2.142  0.00  0.00    +0.060 A 
ATOM     20  C   LIG    1        5.583   4.355   2.227  0.00  0.00    +0.050 A 
ATOM     21  C   LIG    1        6.312   3.414   1.514  0.00  0.00    +0.050 A 
ATOM     22  C   LIG    1        7.359   3.817   0.709  0.00  0.00    -0.010 A 
BRANCH  17  23
ATOM     23  N   LIG    1        8.755   5.571  -0.188  0.00  0.00    -0.680 N 
ATOM     24  H   LIG    1        8.733   6.441  -0.617  0.00  0.00    +0.410 HD
BRANCH  23  28
ATOM     25  C   LIG    1       12.020   3.051  -0.761  0.00  0.00    -0.030 A 
ATOM     26  C   LIG    1       11.701   3.996  -1.719  0.00  0.00    +0.050 A 
ATOM     27  C   LIG    1       10.619   4.833  -1.533  0.00  0.00    -0.050 A 
ATOM     28  C   LIG    1        9.850   4.725  -0.381  0.00  0.00    +0.180 A 
ATOM     29  C   LIG    1       10.176   3.778   0.582  0.00  0.00    -0.040 A 
ATOM     30  C   LIG    1       11.257   2.941   0.387  0.00  0.00    +0.040 A 
ENDBRANCH  23  28
ENDBRANCH  17  23
ENDBRANCH   1  20
TORSDOF 5
