REMARK  Name = ZINCvU0000000InB.0
REMARK                            x       y       z     vdW  Elec       q    Type
REMARK                         _______ _______ _______ _____ _____    ______ ____
ROOT
ATOM      1  C   LIG    1        5.992   1.761  -0.151  0.00  0.00    +0.570 C 
ATOM      2  N   LIG    1        6.676   0.675   0.561  0.00  0.00    -0.740 N 
ATOM      3  H   LIG    1        7.111  -0.042   0.072  0.00  0.00    +0.410 HD
ATOM      4  C   LIG    1        6.687   0.696   1.951  0.00  0.00    +0.240 A 
ATOM      5  C   LIG    1        6.731  -0.466   2.701  0.00  0.00    -0.050 A 
ATOM      6  C   LIG    1        6.731  -0.389   4.081  0.00  0.00    +0.080 A 
ATOM      7  C   LIG    1        6.687   0.841   4.718  0.00  0.00    -0.040 A 
ATOM      8  C   LIG    1        6.646   2.009   3.985  0.00  0.00    +0.110 A 
ATOM      9  C   LIG    1        6.647   1.946   2.594  0.00  0.00    -0.200 A 
ATOM     10  C   LIG    1        6.609   3.163   1.762  0.00  0.00    +0.570 C 
ATOM     11  O   LIG    1        6.825   4.253   2.256  0.00  0.00    -0.530 OA
ATOM     12  N   LIG    1        6.332   3.052   0.446  0.00  0.00    -0.620 N 
ENDROOT
BRANCH   1  18
ATOM     13  C   LIG    1        4.260  -0.067  -2.075  0.00  0.00    +0.160 C 
ATOM     14  C   LIG    1        3.736   0.744  -0.918  0.00  0.00    +0.100 A 
ATOM     15  N   LIG    1        2.488   0.810  -0.531  0.00  0.00    -0.250 NA
ATOM     16  N   LIG    1        2.417   1.670   0.573  0.00  0.00    -0.320 N 
ATOM     17  C   LIG    1        3.668   2.109   0.839  0.00  0.00    +0.260 A 
ATOM     18  C   LIG    1        4.502   1.551  -0.069  0.00  0.00    -0.260 A 
BRANCH  16  19
ATOM     19  C   LIG    1        1.255   2.010   1.280  0.00  0.00    +0.190 A 
ATOM     20  C   LIG    1        1.343   2.773   2.436  0.00  0.00    -0.010 A 
ATOM     21  C   LIG    1        0.197   3.107   3.131  0.00  0.00    +0.070 A 
ATOM     22  C   LIG    1       -1.038   2.683   2.676  0.00  0.00    +0.020 A 
ATOM     23  C   LIG    1       -1.130   1.928   1.521  0.00  0.00    +0.070 A 
ATOM     24  C   LIG    1        0.013   1.585   0.825  0.00  0.00    -0.100 A 
ATOM     25 BR   LIG    1       -0.113   0.546  -0.750  0.00  0.00    -0.000 Br
ENDBRANCH  16  19
ENDBRANCH   1  18
BRANCH  12  26
ATOM     26  C   LIG    1        6.373   4.247  -0.400  0.00  0.00    +0.350 C 
BRANCH  26  27
ATOM     27  C   LIG    1        5.040   4.947  -0.346  0.00  0.00    -0.160 A 
ATOM     28  C   LIG    1        4.077   4.699  -1.312  0.00  0.00    +0.080 A 
ATOM     29  C   LIG    1        2.862   5.362  -1.219  0.00  0.00    -0.040 A 
ATOM     30  C   LIG    1        2.658   6.250  -0.180  0.00  0.00    +0.250 A 
ATOM     31  N   LIG    1        3.599   6.465   0.719  0.00  0.00    -0.480 NA
ATOM     32  C   LIG    1        4.763   5.849   0.665  0.00  0.00    +0.280 A 
ENDBRANCH  26  27
ENDBRANCH  12  26
TORSDOF 4
