REMARK  Name = ZINCrD00000e7pmU.0
REMARK                            x       y       z     vdW  Elec       q    Type
REMARK                         _______ _______ _______ _____ _____    ______ ____
ROOT
ATOM      1  N   LIG    1       -6.843   5.212   1.342  0.00  0.00    -0.710 N 
ATOM      2  H   LIG    1       -7.501   4.500   1.344  0.00  0.00    +0.400 HD
ATOM      3  C   LIG    1       -5.528   4.915   1.329  0.00  0.00    +0.580 C 
ATOM      4  O   LIG    1       -4.704   5.808   1.325  0.00  0.00    -0.530 OA
ENDROOT
BRANCH   3   5
ATOM      5  C   LIG    1       -5.090   3.505   1.318  0.00  0.00    -0.210 A 
ATOM      6  C   LIG    1       -6.031   2.468   1.321  0.00  0.00    +0.380 A 
ATOM      7  N   LIG    1       -5.663   1.206   1.311  0.00  0.00    -0.460 NA
ATOM      8  C   LIG    1       -4.388   0.852   1.297  0.00  0.00    +0.230 A 
ATOM      9  O   LIG    1       -3.727  -0.319   1.284  0.00  0.00    +0.090 OA
ATOM     10  N   LIG    1       -2.526  -0.184   1.269  0.00  0.00    -0.310 NA
ATOM     11  C   LIG    1       -2.143   1.058   1.278  0.00  0.00    +0.080 A 
ATOM     12  C   LIG    1       -3.381   1.842   1.294  0.00  0.00    -0.220 A 
ATOM     13  C   LIG    1       -3.728   3.184   1.304  0.00  0.00    +0.230 A 
BRANCH  11  14
ATOM     14  C   LIG    1       -0.729   1.579   1.267  0.00  0.00    +0.080 C 
ATOM     15  C   LIG    1        0.011   1.072   2.506  0.00  0.00    +0.040 C 
ATOM     16  C   LIG    1       -0.013   1.086   0.008  0.00  0.00    +0.040 C 
ENDBRANCH  11  14
ENDBRANCH   3   5
BRANCH   1  17
ATOM     17  C   LIG    1       -7.278   6.611   1.353  0.00  0.00    +0.310 C 
BRANCH  17  18
ATOM     18  C   LIG    1       -8.662   6.711   0.765  0.00  0.00    -0.100 A 
ATOM     19  C   LIG    1       -9.608   5.745   1.059  0.00  0.00    +0.070 A 
ATOM     20  C   LIG    1      -10.883   5.833   0.527  0.00  0.00    +0.020 A 
ATOM     21  C   LIG    1      -11.215   6.879  -0.308  0.00  0.00    +0.070 A 
ATOM     22  C   LIG    1      -10.264   7.854  -0.612  0.00  0.00    -0.020 A 
ATOM     23  C   LIG    1       -8.981   7.763  -0.069  0.00  0.00    +0.080 A 
BRANCH  22  24
ATOM     24  C   LIG    1      -10.602   8.943  -1.479  0.00  0.00    +0.250 C 
ATOM     25  N   LIG    1      -10.870   9.807  -2.166  0.00  0.00    -0.410 NA
ENDBRANCH  22  24
ENDBRANCH  17  18
BRANCH  17  26
ATOM     26  C   LIG    1       -7.296   7.128   2.793  0.00  0.00    +0.180 C 
BRANCH  26  28
ATOM     27  C   LIG    1       -8.385   6.828   4.907  0.00  0.00    +0.200 C 
ATOM     28  O   LIG    1       -8.286   6.419   3.541  0.00  0.00    -0.380 OA
ENDBRANCH  26  28
ENDBRANCH  17  26
ENDBRANCH   1  17
TORSDOF 7
