REMARK  Name = ZINCkj000005gnvU.0
REMARK                            x       y       z     vdW  Elec       q    Type
REMARK                         _______ _______ _______ _____ _____    ______ ____
ROOT
ATOM      1  N   LIG    1       -1.228   3.308  -0.872  0.00  0.00    -0.490 N 
ATOM      2  H   LIG    1       -0.364   3.777  -0.643  0.00  0.00    +0.430 HD
ATOM      3  H   LIG    1       -1.999   3.949  -0.758  0.00  0.00    +0.440 HD
ENDROOT
BRANCH   1   4
ATOM      4  C   LIG    1       -1.412   2.157   0.022  0.00  0.00    +0.230 C 
ATOM      5  C   LIG    1       -1.599   2.651   1.458  0.00  0.00    +0.110 C 
BRANCH   4  10
ATOM      6  C   LIG    1        0.770  -0.925  -0.120  0.00  0.00    +0.150 A 
ATOM      7  C   LIG    1        2.035  -0.362  -0.190  0.00  0.00    -0.050 A 
ATOM      8  C   LIG    1        2.180   1.012  -0.189  0.00  0.00    +0.080 A 
ATOM      9  C   LIG    1        1.065   1.825  -0.118  0.00  0.00    -0.050 A 
ATOM     10  C   LIG    1       -0.198   1.267  -0.049  0.00  0.00    -0.100 A 
ATOM     11  C   LIG    1       -0.348  -0.106  -0.050  0.00  0.00    +0.010 A 
BRANCH   6  12
ATOM     12  O   LIG    1        0.624  -2.276  -0.122  0.00  0.00    -0.310 OA
BRANCH  12  14
ATOM     13  C   LIG    1        1.458  -4.544  -0.187  0.00  0.00    +0.070 C 
ATOM     14  C   LIG    1        1.819  -3.057  -0.197  0.00  0.00    +0.190 C 
ENDBRANCH  12  14
ENDBRANCH   6  12
ENDBRANCH   4  10
ENDBRANCH   1   4
BRANCH   1  15
ATOM     15  C   LIG    1       -1.178   2.844  -2.265  0.00  0.00    +0.180 C 
ATOM     16  C   LIG    1       -2.540   2.269  -2.659  0.00  0.00    +0.120 C 
BRANCH  15  17
ATOM     17  C   LIG    1       -0.841   4.001  -3.169  0.00  0.00    +0.520 C 
ATOM     18  N   LIG    1       -0.741   3.811  -4.499  0.00  0.00    -0.680 N 
ATOM     19  H   LIG    1       -0.886   2.928  -4.875  0.00  0.00    +0.420 HD
ATOM     20  C   LIG    1       -0.439   4.846  -5.307  0.00  0.00    +0.700 C 
ATOM     21  O   LIG    1       -0.257   5.951  -4.837  0.00  0.00    -0.520 OA
ATOM     22  N   LIG    1       -0.339   4.655  -6.638  0.00  0.00    -0.850 N 
ATOM     23  H   LIG    1       -0.121   5.400  -7.220  0.00  0.00    +0.430 HD
ATOM     24  H   LIG    1       -0.484   3.773  -7.013  0.00  0.00    +0.400 HD
ATOM     25  O   LIG    1       -0.659   5.104  -2.699  0.00  0.00    -0.450 OA
ENDBRANCH  15  17
ENDBRANCH   1  15
TORSDOF 6
