REMARK  Name = ZINCvU0000000Jpt.0
REMARK                            x       y       z     vdW  Elec       q    Type
REMARK                         _______ _______ _______ _____ _____    ______ ____
ROOT
ATOM      1  C   LIG    1        3.703  -0.993   0.173  0.00  0.00    -0.120 A 
ATOM      2  C   LIG    1        4.910  -0.292   0.160  0.00  0.00    +0.040 A 
ATOM      3  C   LIG    1        6.103  -0.977   0.254  0.00  0.00    +0.030 A 
ATOM      4  C   LIG    1        6.106  -2.357   0.351  0.00  0.00    -0.090 A 
ATOM      5  C   LIG    1        4.914  -3.059   0.359  0.00  0.00    +0.050 A 
ATOM      6  C   LIG    1        3.713  -2.386   0.271  0.00  0.00    +0.080 A 
ENDROOT
BRANCH   1   9
ATOM      7  N   LIG    1        2.413   1.079  -0.016  0.00  0.00    -0.660 N 
ATOM      8  H   LIG    1        3.250   1.564  -0.087  0.00  0.00    +0.410 HD
ATOM      9  C   LIG    1        2.420  -0.265   0.078  0.00  0.00    +0.560 C 
ATOM     10  O   LIG    1        1.371  -0.879   0.085  0.00  0.00    -0.510 OA
BRANCH   7  13
ATOM     11  C   LIG    1        2.316   3.646   1.245  0.00  0.00    +0.110 C 
ATOM     12  C   LIG    1        1.114   3.017   0.589  0.00  0.00    -0.060 A 
ATOM     13  C   LIG    1        1.200   1.774  -0.010  0.00  0.00    +0.090 A 
ATOM     14  C   LIG    1        0.066   1.216  -0.612  0.00  0.00    +0.310 A 
ATOM     15  N   LIG    1       -1.083   1.845  -0.629  0.00  0.00    -0.460 NA
ATOM     16  C   LIG    1       -1.232   3.046  -0.061  0.00  0.00    +0.120 A 
ATOM     17  C   LIG    1       -2.473   3.706  -0.083  0.00  0.00    +0.050 A 
ATOM     18  C   LIG    1       -2.597   4.931   0.497  0.00  0.00    +0.030 A 
ATOM     19  C   LIG    1       -1.511   5.548   1.114  0.00  0.00    +0.020 A 
ATOM     20  C   LIG    1       -0.293   4.941   1.155  0.00  0.00    +0.030 A 
ATOM     21  C   LIG    1       -0.129   3.676   0.567  0.00  0.00    -0.080 A 
ENDBRANCH   7  13
ENDBRANCH   1   9
BRANCH   4  22
ATOM     22  C   LIG    1        7.414  -3.100   0.447  0.00  0.00    +0.400 C 
BRANCH  22  23
ATOM     23  N   LIG    1        7.885  -3.436  -0.899  0.00  0.00    -0.340 N 
ATOM     24  C   LIG    1        9.087  -3.114  -1.424  0.00  0.00    +0.280 A 
ATOM     25  C   LIG    1        9.133  -3.608  -2.683  0.00  0.00    -0.150 A 
ATOM     26  C   LIG    1        7.914  -4.245  -2.940  0.00  0.00    -0.000 A 
ATOM     27 CL   LIG    1       10.465  -3.469  -3.788  0.00  0.00    -0.010 Cl
ATOM     28  N   LIG    1        7.166  -4.143  -1.871  0.00  0.00    -0.210 NA
BRANCH  26  29
ATOM     29  C   LIG    1        7.529  -4.932  -4.225  0.00  0.00    +0.550 C 
ATOM     30  F   LIG    1        8.357  -6.042  -4.426  0.00  0.00    -0.160 F 
ATOM     31  F   LIG    1        7.678  -4.041  -5.293  0.00  0.00    -0.160 F 
ATOM     32  F   LIG    1        6.197  -5.351  -4.149  0.00  0.00    -0.160 F 
ENDBRANCH  26  29
ENDBRANCH  22  23
ENDBRANCH   4  22
TORSDOF 5
