REMARK  Name = ZINCrg000000perH.0
REMARK                            x       y       z     vdW  Elec       q    Type
REMARK                         _______ _______ _______ _____ _____    ______ ____
ROOT
ATOM      1  N   LIG    1        3.414  -4.414   2.278  0.00  0.00    -0.740 N 
ATOM      2  H   LIG    1        4.014  -3.778   2.698  0.00  0.00    +0.400 HD
ATOM      3  C   LIG    1        2.361  -3.975   1.561  0.00  0.00    +0.710 C 
ATOM      4  N   LIG    1        2.139  -2.652   1.429  0.00  0.00    -0.740 N 
ATOM      5  H   LIG    1        2.739  -2.016   1.850  0.00  0.00    +0.410 HD
ATOM      6  O   LIG    1        1.609  -4.773   1.034  0.00  0.00    -0.590 OA
ENDROOT
BRANCH   1   7
ATOM      7  C   LIG    1        3.655  -5.852   2.421  0.00  0.00    +0.350 C 
BRANCH   7  11
ATOM      8  C   LIG    1        7.144  -6.483   4.806  0.00  0.00    +0.140 A 
ATOM      9  C   LIG    1        5.897  -6.395   5.408  0.00  0.00    -0.010 A 
ATOM     10  C   LIG    1        4.771  -6.191   4.635  0.00  0.00    +0.070 A 
ATOM     11  C   LIG    1        4.885  -6.075   3.262  0.00  0.00    -0.150 A 
ATOM     12  C   LIG    1        6.126  -6.167   2.659  0.00  0.00    +0.070 A 
ATOM     13  C   LIG    1        7.256  -6.365   3.428  0.00  0.00    -0.080 A 
BRANCH   8  14
ATOM     14  O   LIG    1        8.254  -6.684   5.564  0.00  0.00    -0.290 OA
BRANCH  14  15
ATOM     15  C   LIG    1        9.504  -6.764   4.877  0.00  0.00    +0.240 C 
BRANCH  15  19
ATOM     16  C   LIG    1       12.964  -7.314   6.418  0.00  0.00    +0.290 C 
ATOM     17  N   LIG    1       11.887  -7.096   5.450  0.00  0.00    -0.730 N 
ATOM     18  H   LIG    1       12.091  -7.030   4.504  0.00  0.00    +0.400 HD
ATOM     19  C   LIG    1       10.612  -6.988   5.873  0.00  0.00    +0.510 C 
ATOM     20  O   LIG    1       10.357  -7.071   7.056  0.00  0.00    -0.510 OA
ENDBRANCH  15  19
ENDBRANCH  14  15
ENDBRANCH   8  14
ENDBRANCH   7  11
ENDBRANCH   1   7
BRANCH   4  21
ATOM     21  C   LIG    1        0.994  -2.175   0.650  0.00  0.00    +0.320 C 
BRANCH  21  22
ATOM     22  C   LIG    1        0.974  -0.668   0.659  0.00  0.00    +0.510 C 
ATOM     23  N   LIG    1        0.002  -0.004   0.002  0.00  0.00    -0.720 N 
ATOM     24  H   LIG    1       -0.684  -0.496  -0.476  0.00  0.00    +0.400 HD
ATOM     25  O   LIG    1        1.831  -0.054   1.256  0.00  0.00    -0.540 OA
BRANCH  23  26
ATOM     26  C   LIG    1       -0.018   1.461   0.010  0.00  0.00    +0.240 C 
ATOM     27  C   LIG    1       -0.734   1.954   1.269  0.00  0.00    +0.000 C 
ATOM     28  C   LIG    1       -0.755   3.484   1.277  0.00  0.00    +0.010 C 
ATOM     29  C   LIG    1       -1.495   3.991   0.038  0.00  0.00    +0.000 C 
ATOM     30  C   LIG    1       -0.778   3.497  -1.221  0.00  0.00    +0.020 C 
ATOM     31  C   LIG    1       -0.758   1.968  -1.230  0.00  0.00    +0.010 C 
ENDBRANCH  23  26
ENDBRANCH  21  22
ENDBRANCH   4  21
TORSDOF 8
