REMARK  Name = ZINCpk00000KfKFG.2
REMARK                            x       y       z     vdW  Elec       q    Type
REMARK                         _______ _______ _______ _____ _____    ______ ____
ROOT
ATOM      1  N   LIG    1       -0.778   1.948   1.419  0.00  0.00    -0.450 N 
ATOM      2  C   LIG    1       -0.397   1.139   0.253  0.00  0.00    +0.230 C 
ATOM      3  C   LIG    1       -1.136   1.652  -0.985  0.00  0.00    +0.270 C 
ATOM      4  N   LIG    1       -0.791   3.062  -1.212  0.00  0.00    -0.390 N 
ATOM      5  C   LIG    1       -1.200   3.861  -0.050  0.00  0.00    +0.300 C 
ATOM      6  H   LIG    1        0.206   3.146  -1.344  0.00  0.00    +0.420 HD
ATOM      7  C   LIG    1       -0.462   3.366   1.195  0.00  0.00    +0.220 C 
ATOM      8  C   LIG    1        1.046   3.526   0.992  0.00  0.00    +0.030 C 
ENDROOT
BRANCH   4   9
ATOM      9  C   LIG    1       -1.487   3.549  -2.411  0.00  0.00    +0.180 C 
ATOM     10  C   LIG    1       -0.670   3.199  -3.657  0.00  0.00    +0.070 C 
ATOM     11  C   LIG    1        0.819   3.284  -3.363  0.00  0.00    +0.010 C 
ATOM     12  C   LIG    1        1.309   4.690  -3.069  0.00  0.00    +0.030 C 
ATOM     13  C   LIG    1        0.724   5.208  -1.754  0.00  0.00    +0.260 C 
ATOM     14  N   LIG    1       -0.587   5.818  -2.029  0.00  0.00    -0.570 N 
ATOM     15  C   LIG    1       -1.636   5.054  -2.336  0.00  0.00    +0.500 C 
ATOM     16  O   LIG    1       -2.713   5.566  -2.556  0.00  0.00    -0.500 OA
BRANCH  14  17
ATOM     17  C   LIG    1       -0.741   7.273  -1.966  0.00  0.00    +0.210 C 
BRANCH  17  18
ATOM     18  C   LIG    1       -1.127   7.678  -0.567  0.00  0.00    +0.490 C 
ATOM     19  O   LIG    1       -1.305   8.854  -0.299  0.00  0.00    -0.670 OA
ATOM     20  O   LIG    1       -1.262   6.829   0.298  0.00  0.00    -0.690 OA
ENDBRANCH  17  18
ENDBRANCH  14  17
ENDBRANCH   4   9
BRANCH   1  25
ATOM     21  C   LIG    1        2.977   0.649   4.218  0.00  0.00    +0.160 C 
ATOM     22  C   LIG    1        1.522   0.869   3.895  0.00  0.00    +0.070 A 
ATOM     23  C   LIG    1        0.543   0.613   4.764  0.00  0.00    -0.080 A 
ATOM     24  S   LIG    1       -0.991   1.006   3.993  0.00  0.00    +0.210 S 
ATOM     25  C   LIG    1       -0.167   1.478   2.571  0.00  0.00    +0.180 A 
ATOM     26  N   LIG    1        1.111   1.327   2.725  0.00  0.00    -0.490 NA
ENDBRANCH   1  25
TORSDOF 4
