REMARK  Name = ZINCpk00000KfKFG.1
REMARK                            x       y       z     vdW  Elec       q    Type
REMARK                         _______ _______ _______ _____ _____    ______ ____
ROOT
ATOM      1  N   LIG    1       -0.944   3.509   1.731  0.00  0.00    -0.450 N 
ATOM      2  C   LIG    1       -1.955   2.749   2.479  0.00  0.00    +0.260 C 
ATOM      3  C   LIG    1       -1.315   2.149   3.733  0.00  0.00    +0.290 C 
ATOM      4  N   LIG    1       -0.205   1.269   3.343  0.00  0.00    -0.390 N 
ATOM      5  C   LIG    1        0.808   2.048   2.618  0.00  0.00    +0.280 C 
ATOM      6  H   LIG    1       -0.553   0.533   2.747  0.00  0.00    +0.420 HD
ATOM      7  C   LIG    1        0.185   2.647   1.355  0.00  0.00    +0.130 C 
ATOM      8  C   LIG    1        1.234   3.475   0.611  0.00  0.00    +0.090 C 
ENDROOT
BRANCH   4   9
ATOM      9  C   LIG    1        0.399   0.680   4.546  0.00  0.00    +0.180 C 
ATOM     10  C   LIG    1        1.074  -0.645   4.186  0.00  0.00    +0.070 C 
ATOM     11  C   LIG    1        0.295  -1.368   3.101  0.00  0.00    +0.020 C 
ATOM     12  C   LIG    1       -1.074  -1.847   3.546  0.00  0.00    +0.030 C 
ATOM     13  C   LIG    1       -2.001  -0.663   3.829  0.00  0.00    +0.260 C 
ATOM     14  N   LIG    1       -1.798  -0.228   5.221  0.00  0.00    -0.570 N 
ATOM     15  C   LIG    1       -0.679   0.407   5.574  0.00  0.00    +0.500 C 
ATOM     16  O   LIG    1       -0.525   0.766   6.722  0.00  0.00    -0.490 OA
BRANCH  14  17
ATOM     17  C   LIG    1       -2.831  -0.494   6.224  0.00  0.00    +0.220 C 
BRANCH  17  18
ATOM     18  C   LIG    1       -3.798   0.661   6.268  0.00  0.00    +0.490 C 
ATOM     19  O   LIG    1       -4.740   0.639   7.042  0.00  0.00    -0.670 OA
ATOM     20  O   LIG    1       -3.639   1.618   5.529  0.00  0.00    -0.690 OA
ENDBRANCH  17  18
ENDBRANCH  14  17
ENDBRANCH   4   9
BRANCH   1  25
ATOM     21  C   LIG    1       -3.055   7.110  -0.758  0.00  0.00    +0.160 C 
ATOM     22  C   LIG    1       -2.471   5.734  -0.571  0.00  0.00    +0.080 A 
ATOM     23  C   LIG    1       -2.413   4.836  -1.555  0.00  0.00    -0.060 A 
ATOM     24  S   LIG    1       -1.665   3.374  -0.918  0.00  0.00    +0.060 S 
ATOM     25  C   LIG    1       -1.502   4.112   0.615  0.00  0.00    +0.220 A 
ATOM     26  N   LIG    1       -1.980   5.317   0.583  0.00  0.00    -0.440 NA
ENDBRANCH   1  25
TORSDOF 4
