REMARK  Name = ZINCnE00000h4zSx.0
REMARK                            x       y       z     vdW  Elec       q    Type
REMARK                         _______ _______ _______ _____ _____    ______ ____
ROOT
ATOM      1  N   LIG    1       -5.036   5.365   0.058  0.00  0.00    -0.710 N 
ATOM      2  H   LIG    1       -4.203   5.861   0.056  0.00  0.00    +0.410 HD
ATOM      3  C   LIG    1       -5.018   4.017   0.050  0.00  0.00    +0.570 C 
ATOM      4  O   LIG    1       -6.062   3.395   0.052  0.00  0.00    -0.550 OA
ENDROOT
BRANCH   3   5
ATOM      5  C   LIG    1       -3.725   3.294   0.039  0.00  0.00    -0.160 A 
ATOM      6  C   LIG    1       -3.707   1.899   0.030  0.00  0.00    +0.060 A 
ATOM      7  C   LIG    1       -2.504   1.226   0.021  0.00  0.00    +0.040 A 
ATOM      8  C   LIG    1       -1.304   1.940   0.019  0.00  0.00    -0.100 A 
ATOM      9  C   LIG    1       -1.323   3.336   0.032  0.00  0.00    +0.050 A 
ATOM     10  C   LIG    1       -2.527   4.008   0.037  0.00  0.00    +0.020 A 
BRANCH   8  11
ATOM     11  C   LIG    1       -0.015   1.218   0.009  0.00  0.00    +0.520 C 
ATOM     12  O   LIG    1        1.036   1.844   0.002  0.00  0.00    -0.680 OA
ATOM     13  O   LIG    1        0.002  -0.004   0.002  0.00  0.00    -0.680 OA
ENDBRANCH   8  11
ENDBRANCH   3   5
BRANCH   1  14
ATOM     14  C   LIG    1       -6.315   6.080   0.069  0.00  0.00    -0.290 C 
BRANCH  14  15
ATOM     15  C   LIG    1       -6.257   7.196   1.079  0.00  0.00    -0.100 A 
ATOM     16  C   LIG    1       -5.074   7.880   1.287  0.00  0.00    +0.040 A 
ATOM     17  C   LIG    1       -5.022   8.906   2.212  0.00  0.00    +0.020 A 
ATOM     18  C   LIG    1       -6.152   9.244   2.934  0.00  0.00    +0.010 A 
ATOM     19  C   LIG    1       -7.334   8.556   2.730  0.00  0.00    +0.000 A 
ATOM     20  C   LIG    1       -7.386   7.532   1.802  0.00  0.00    +0.000 A 
ENDBRANCH  14  15
BRANCH  14  22
ATOM     21  C   LIG    1       -6.706   5.424  -2.809  0.00  0.00    -0.480 C 
ATOM     22  P   LIG    1       -6.637   6.774  -1.586  0.00  0.00    +2.450 P 
ATOM     23  O   LIG    1       -5.550   7.712  -1.948  0.00  0.00    -0.970 OA
ATOM     24  C   LIG    1       -8.228   7.664  -1.572  0.00  0.00    -0.490 C 
ENDBRANCH  14  22
ENDBRANCH   1  14
TORSDOF 5
