REMARK  Name = ZINCqH000003686K.0
REMARK                            x       y       z     vdW  Elec       q    Type
REMARK                         _______ _______ _______ _____ _____    ______ ____
ROOT
ATOM      1  C   LIG    1        0.037  -6.771  -5.192  0.00  0.00    +0.290 C 
ATOM      2  C   LIG    1        0.038  -8.287  -4.907  0.00  0.00    +0.050 C 
ATOM      3  C   LIG    1       -0.532  -8.369  -3.467  0.00  0.00    +0.040 C 
ATOM      4  C   LIG    1        0.070  -7.096  -2.822  0.00  0.00    +0.240 C 
ATOM      5  N   LIG    1        0.046  -6.083  -3.893  0.00  0.00    -0.620 N 
ATOM      6  C   LIG    1        0.030  -4.747  -3.711  0.00  0.00    +0.530 C 
ATOM      7  O   LIG    1        0.010  -4.005  -4.669  0.00  0.00    -0.500 OA
ENDROOT
BRANCH   1  11
ATOM      8  C   LIG    1        3.531  -5.715  -7.421  0.00  0.00    +0.170 A 
ATOM      9  C   LIG    1        3.529  -5.612  -6.038  0.00  0.00    -0.110 A 
ATOM     10  C   LIG    1        2.398  -5.953  -5.320  0.00  0.00    +0.100 A 
ATOM     11  C   LIG    1        1.268  -6.399  -5.978  0.00  0.00    -0.150 A 
ATOM     12  C   LIG    1        1.267  -6.509  -7.361  0.00  0.00    +0.180 A 
ATOM     13  C   LIG    1        2.398  -6.162  -8.084  0.00  0.00    -0.100 A 
BRANCH   8  15
ATOM     14  C   LIG    1        5.774  -4.928  -7.379  0.00  0.00    +0.250 C 
ATOM     15  O   LIG    1        4.643  -5.380  -8.127  0.00  0.00    -0.320 OA
ENDBRANCH   8  15
BRANCH  12  16
ATOM     16  O   LIG    1        0.157  -6.953  -8.007  0.00  0.00    -0.310 OA
ATOM     17  C   LIG    1        0.227  -7.041  -9.432  0.00  0.00    +0.240 C 
ENDBRANCH  12  16
ENDBRANCH   1  11
BRANCH   6  18
ATOM     18  C   LIG    1        0.036  -4.177  -2.316  0.00  0.00    +0.230 C 
BRANCH  18  19
ATOM     19  O   LIG    1        0.016  -2.750  -2.385  0.00  0.00    -0.290 OA
BRANCH  19  20
ATOM     20  C   LIG    1        0.018  -2.075  -1.205  0.00  0.00    +0.130 A 
ATOM     21  C   LIG    1        0.040  -2.772  -0.006  0.00  0.00    -0.090 A 
ATOM     22  C   LIG    1        0.042  -2.084   1.192  0.00  0.00    +0.050 A 
ATOM     23  C   LIG    1        0.023  -0.701   1.196  0.00  0.00    -0.040 A 
ATOM     24  C   LIG    1        0.002  -0.004   0.002  0.00  0.00    -0.050 A 
ATOM     25  C   LIG    1       -0.018   1.503   0.010  0.00  0.00    +0.090 C 
ATOM     26  C   LIG    1       -0.006  -0.688  -1.198  0.00  0.00    -0.020 A 
ENDBRANCH  19  20
ENDBRANCH  18  19
ENDBRANCH   6  18
TORSDOF 6
