REMARK  Name = ZINCpe00000MJLgv.0
REMARK                            x       y       z     vdW  Elec       q    Type
REMARK                         _______ _______ _______ _____ _____    ______ ____
ROOT
ATOM      1  N   LIG    1        0.185   5.051   8.080  0.00  0.00    -0.730 N 
ATOM      2  H   LIG    1        1.004   4.542   8.183  0.00  0.00    +0.400 HD
ATOM      3  C   LIG    1       -0.545   4.935   6.952  0.00  0.00    +0.510 C 
ATOM      4  O   LIG    1       -1.568   5.572   6.824  0.00  0.00    -0.520 OA
ENDROOT
BRANCH   1   5
ATOM      5  C   LIG    1       -0.259   5.948   9.150  0.00  0.00    +0.320 C 
BRANCH   5  11
ATOM      6  C   LIG    1        1.902   6.617  10.221  0.00  0.00    -0.070 A 
ATOM      7  C   LIG    1        2.805   6.569  11.266  0.00  0.00    +0.030 A 
ATOM      8  C   LIG    1        2.530   5.800  12.382  0.00  0.00    +0.020 A 
ATOM      9  C   LIG    1        1.353   5.079  12.451  0.00  0.00    +0.010 A 
ATOM     10  C   LIG    1        0.448   5.131  11.407  0.00  0.00    +0.030 A 
ATOM     11  C   LIG    1        0.725   5.896  10.290  0.00  0.00    -0.110 A 
BRANCH   6  12
ATOM     12  C   LIG    1        2.202   7.456   9.005  0.00  0.00    +0.220 C 
BRANCH  12  14
ATOM     13  C   LIG    1        3.848   8.924   8.067  0.00  0.00    +0.200 C 
ATOM     14  O   LIG    1        3.467   8.100   9.170  0.00  0.00    -0.390 OA
ENDBRANCH  12  14
ENDBRANCH   6  12
ENDBRANCH   5  11
ENDBRANCH   1   5
BRANCH   3  15
ATOM     15  C   LIG    1       -0.088   4.012   5.852  0.00  0.00    +0.210 C 
BRANCH  15  16
ATOM     16  N   LIG    1       -1.047   4.063   4.740  0.00  0.00    -0.500 NA
ATOM     17  C   LIG    1       -0.984   5.367   4.045  0.00  0.00    +0.170 C 
ATOM     18  C   LIG    1       -1.261   5.098   2.554  0.00  0.00    +0.030 C 
ATOM     19  C   LIG    1       -1.451   3.568   2.449  0.00  0.00    +0.140 C 
ATOM     20  C   LIG    1       -0.729   3.037   3.713  0.00  0.00    +0.180 C 
BRANCH  19  21
ATOM     21  N   LIG    1       -0.817   3.048   1.230  0.00  0.00    -0.530 NA
ATOM     22  C   LIG    1       -0.731   1.580   1.266  0.00  0.00    +0.150 C 
ATOM     23  C   LIG    1       -0.013   1.086   0.008  0.00  0.00    +0.220 C 
ATOM     24  O   LIG    1       -0.706   1.560  -1.149  0.00  0.00    -0.380 OA
ATOM     25  C   LIG    1       -0.807   2.985  -1.216  0.00  0.00    +0.220 C 
ATOM     26  C   LIG    1       -1.534   3.499   0.029  0.00  0.00    +0.160 C 
ENDBRANCH  19  21
ENDBRANCH  15  16
ENDBRANCH   3  15
TORSDOF 7
