REMARK  Name = ZINCpe00000bcSwr.0
REMARK                            x       y       z     vdW  Elec       q    Type
REMARK                         _______ _______ _______ _____ _____    ______ ____
ROOT
ATOM      1  C   LIG    1       -2.405   8.227   6.116  0.00  0.00    +0.500 C 
ATOM      2  N   LIG    1       -2.166   6.976   5.675  0.00  0.00    -0.610 N 
ATOM      3  C   LIG    1       -3.056   5.869   6.050  0.00  0.00    +0.290 C 
ATOM      4  C   LIG    1       -2.215   4.763   6.701  0.00  0.00    +0.300 C 
ATOM      5  N   LIG    1       -1.060   4.482   5.837  0.00  0.00    -1.000 NA
ATOM      6  C   LIG    1       -0.167   5.588   5.466  0.00  0.00    +0.290 C 
ATOM      7  C   LIG    1       -1.011   6.695   4.811  0.00  0.00    +0.270 C 
ATOM      8  O   LIG    1       -3.361   8.447   6.829  0.00  0.00    -0.530 OA
ENDROOT
BRANCH   5   9
ATOM      9  S   LIG    1       -0.766   2.944   5.296  0.00  0.00    +2.710 S 
ATOM     10  O   LIG    1       -2.031   2.305   5.198  0.00  0.00    -0.950 OA
ATOM     11  O   LIG    1        0.129   3.069   4.199  0.00  0.00    -0.950 OA
BRANCH   9  12
ATOM     12  C   LIG    1        0.118   2.104   6.568  0.00  0.00    -0.690 A 
ATOM     13  C   LIG    1        1.344   2.467   6.949  0.00  0.00    -0.060 A 
ATOM     14  S   LIG    1        1.899   1.408   8.239  0.00  0.00    +0.150 S 
ATOM     15  C   LIG    1        0.394   0.499   8.180  0.00  0.00    -0.190 A 
ATOM     16  C   LIG    1        0.057  -0.681   9.054  0.00  0.00    +0.140 C 
ATOM     17  C   LIG    1        2.131   3.614   6.368  0.00  0.00    +0.160 C 
ATOM     18  C   LIG    1       -0.406   1.018   7.247  0.00  0.00    +0.080 A 
ENDBRANCH   9  12
ENDBRANCH   5   9
BRANCH   1  19
ATOM     19  C   LIG    1       -1.483   9.353   5.723  0.00  0.00    +0.330 C 
BRANCH  19  21
ATOM     20  C   LIG    1       -1.516  10.970   7.546  0.00  0.00    +0.550 C 
ATOM     21  N   LIG    1       -1.954  10.603   6.325  0.00  0.00    -0.600 N 
ATOM     22  C   LIG    1       -2.903  11.453   5.601  0.00  0.00    +0.290 C 
ATOM     23  O   LIG    1       -0.729  10.264   8.147  0.00  0.00    -0.540 OA
BRANCH  20  25
ATOM     24  C   LIG    1       -1.556  12.588   9.354  0.00  0.00    +0.140 C 
ATOM     25  C   LIG    1       -1.989  12.225   8.150  0.00  0.00    -0.090 C 
ENDBRANCH  20  25
ENDBRANCH  19  21
ENDBRANCH   1  19
TORSDOF 5
