REMARK  Name = ZINCrg00000SjSqt.0
REMARK                            x       y       z     vdW  Elec       q    Type
REMARK                         _______ _______ _______ _____ _____    ______ ____
ROOT
ATOM      1  N   LIG    1       -8.504  -1.214  -2.691  0.00  0.00    -0.600 N 
ATOM      2  C   LIG    1       -8.366   0.089  -2.989  0.00  0.00    +0.520 C 
ATOM      3  C   LIG    1       -6.986   0.569  -2.597  0.00  0.00    +0.060 C 
ATOM      4  C   LIG    1       -6.460  -0.527  -1.642  0.00  0.00    -0.010 C 
ATOM      5  O   LIG    1       -9.223   0.780  -3.498  0.00  0.00    -0.530 OA
ATOM      6  C   LIG    1       -7.279  -1.757  -2.093  0.00  0.00    +0.330 C 
ENDROOT
BRANCH   6   7
ATOM      7  C   LIG    1       -7.617  -2.623  -0.907  0.00  0.00    -0.250 A 
ATOM      8  C   LIG    1       -6.977  -3.758  -0.542  0.00  0.00    +0.260 A 
ATOM      9  N   LIG    1       -7.579  -4.230   0.569  0.00  0.00    -0.370 N 
ATOM     10  N   LIG    1       -8.629  -3.361   0.894  0.00  0.00    -0.290 NA
ATOM     11  C   LIG    1       -7.205  -5.441   1.304  0.00  0.00    +0.360 C 
ATOM     12  C   LIG    1       -8.650  -2.398   0.008  0.00  0.00    +0.240 A 
ENDBRANCH   6   7
BRANCH   1  13
ATOM     13  C   LIG    1       -9.722  -1.993  -2.932  0.00  0.00    +0.320 C 
BRANCH  13  14
ATOM     14  C   LIG    1       -9.660  -2.616  -4.328  0.00  0.00    +0.150 C 
BRANCH  14  16
ATOM     15  C   LIG    1       -8.445  -4.204  -5.649  0.00  0.00    +0.200 C 
ATOM     16  O   LIG    1       -8.590  -3.561  -4.381  0.00  0.00    -0.390 OA
ENDBRANCH  14  16
ENDBRANCH  13  14
ENDBRANCH   1  13
BRANCH   4  17
ATOM     17  C   LIG    1       -4.962  -0.761  -1.848  0.00  0.00    +0.300 C 
BRANCH  17  18
ATOM     18  N   LIG    1       -4.221   0.434  -1.436  0.00  0.00    -0.740 N 
ATOM     19  H   LIG    1       -4.697   1.208  -1.096  0.00  0.00    +0.400 HD
ATOM     20  C   LIG    1       -2.877   0.458  -1.529  0.00  0.00    +0.720 C 
ATOM     21  N   LIG    1       -2.195   1.557  -1.150  0.00  0.00    -0.480 N 
ATOM     22  C   LIG    1       -0.762   1.599  -1.243  0.00  0.00    +0.300 C 
ATOM     23  C   LIG    1       -0.013   1.086   0.008  0.00  0.00    +0.010 C 
ATOM     24  C   LIG    1       -0.740   1.586   1.282  0.00  0.00    +0.000 C 
ATOM     25  C   LIG    1       -1.240   2.995   1.109  0.00  0.00    +0.000 C 
ATOM     26  C   LIG    1       -2.710   2.884   0.698  0.00  0.00    +0.180 C 
ATOM     27  O   LIG    1       -2.890   2.719  -0.642  0.00  0.00    -0.140 OA
ATOM     28  O   LIG    1       -2.279  -0.512  -1.955  0.00  0.00    -0.570 OA
ENDBRANCH  17  18
ENDBRANCH   4  17
TORSDOF 6
