REMARK  Name = ZINCtV00000L6jDd.0
REMARK                            x       y       z     vdW  Elec       q    Type
REMARK                         _______ _______ _______ _____ _____    ______ ____
ROOT
ATOM      1  C   LIG    1        4.862   0.031   2.438  0.00  0.00    -0.110 A 
ATOM      2  C   LIG    1        4.136   0.432   3.542  0.00  0.00    +0.120 A 
ATOM      3  C   LIG    1        4.611   0.168   4.815  0.00  0.00    -0.120 A 
ATOM      4  C   LIG    1        5.813  -0.495   4.983  0.00  0.00    +0.100 A 
ATOM      5  C   LIG    1        6.543  -0.896   3.880  0.00  0.00    -0.190 A 
ATOM      6  C   LIG    1        7.856  -1.611   4.074  0.00  0.00    +0.300 C 
ATOM      7  O   LIG    1        8.227  -2.259   2.850  0.00  0.00    -0.370 OA
ATOM      8  C   LIG    1        8.140  -1.389   1.715  0.00  0.00    +0.390 C 
ATOM      9  O   LIG    1        6.767  -1.041   1.510  0.00  0.00    -0.320 OA
ATOM     10 BR   LIG    1        3.615   0.716   6.327  0.00  0.00    -0.040 Br
ATOM     11  C   LIG    1        6.066  -0.640   2.604  0.00  0.00    +0.160 A 
ENDROOT
BRANCH   8  12
ATOM     12  C   LIG    1        8.671  -2.095   0.494  0.00  0.00    -0.100 A 
ATOM     13  C   LIG    1        7.843  -2.315  -0.591  0.00  0.00    +0.050 A 
ATOM     14  C   LIG    1        8.331  -2.958  -1.713  0.00  0.00    +0.010 A 
ATOM     15  C   LIG    1        9.644  -3.390  -1.746  0.00  0.00    +0.030 A 
ATOM     16  C   LIG    1       10.470  -3.175  -0.658  0.00  0.00    +0.010 A 
ATOM     17  C   LIG    1        9.983  -2.527   0.462  0.00  0.00    +0.040 A 
ENDBRANCH   8  12
BRANCH   1  18
ATOM     18  C   LIG    1        4.344   0.318   1.052  0.00  0.00    +0.300 C 
BRANCH  18  19
ATOM     19  O   LIG    1        3.076   1.019   1.144  0.00  0.00    -0.340 OA
BRANCH  19  21
ATOM     20  O   LIG    1        2.997   1.064  -1.074  0.00  0.00    -0.470 OA
ATOM     21  C   LIG    1        2.475   1.352  -0.015  0.00  0.00    +0.520 C 
BRANCH  21  22
ATOM     22  C   LIG    1        1.184   2.065   0.002  0.00  0.00    -0.140 A 
ATOM     23  C   LIG    1       -0.016   1.347   0.009  0.00  0.00    +0.150 A 
ATOM     24  C   LIG    1       -1.222   2.024   0.019  0.00  0.00    +0.010 A 
ATOM     25  C   LIG    1       -1.242   3.406   0.032  0.00  0.00    +0.100 A 
ATOM     26  C   LIG    1       -0.058   4.123   0.025  0.00  0.00    +0.030 A 
ATOM     27  F   LIG    1        0.002  -0.004   0.002  0.00  0.00    -0.120 F 
ATOM     28  C   LIG    1        1.154   3.463   0.010  0.00  0.00    +0.020 A 
ATOM     29 CL   LIG    1        2.637   4.366  -0.000  0.00  0.00    -0.030 Cl
ENDBRANCH  21  22
ENDBRANCH  19  21
ENDBRANCH  18  19
ENDBRANCH   1  18
TORSDOF 5
