REMARK  Name = ZINCtV00001bB3Ii.0
REMARK                            x       y       z     vdW  Elec       q    Type
REMARK                         _______ _______ _______ _____ _____    ______ ____
ROOT
ATOM      1  C   LIG    1        1.577   0.518   0.697  0.00  0.00    +0.390 C 
ATOM      2  O   LIG    1        0.853   0.111   1.584  0.00  0.00    -0.500 OA
ENDROOT
BRANCH   1  15
ATOM      3  C   LIG    1        1.747   1.224   3.507  0.00  0.00    +0.330 C 
ATOM      4  N   LIG    1        2.988   0.474   3.296  0.00  0.00    -0.500 N 
ATOM      5  C   LIG    1        3.784  -0.021   4.328  0.00  0.00    +0.130 A 
ATOM      6  C   LIG    1        3.630   0.056   5.711  0.00  0.00    -0.020 A 
ATOM      7  C   LIG    1        4.565  -0.522   6.545  0.00  0.00    +0.050 A 
ATOM      8  C   LIG    1        5.660  -1.180   6.018  0.00  0.00    -0.010 A 
ATOM      9  C   LIG    1        5.820  -1.260   4.645  0.00  0.00    +0.070 A 
ATOM     10  C   LIG    1        4.889  -0.685   3.810  0.00  0.00    -0.130 A 
ATOM     11  C   LIG    1        4.774  -0.605   2.305  0.00  0.00    -0.010 C 
ATOM     12  C   LIG    1        5.975   0.139   1.718  0.00  0.00    +0.070 C 
ATOM     13  C   LIG    1        4.661  -2.005   1.698  0.00  0.00    +0.080 C 
ATOM     14  C   LIG    1        3.500   0.179   2.072  0.00  0.00    +0.290 C 
ATOM     15  C   LIG    1        2.968   0.516   0.871  0.00  0.00    -0.260 C 
ENDBRANCH   1  15
BRANCH   1  16
ATOM     16  C   LIG    1        0.980   1.026  -0.590  0.00  0.00    +0.030 C 
BRANCH  16  17
ATOM     17  C   LIG    1       -0.545   0.920  -0.522  0.00  0.00    +0.090 C 
BRANCH  17  18
ATOM     18  C   LIG    1       -0.945  -0.531  -0.442  0.00  0.00    -0.050 A 
ATOM     19  C   LIG    1       -0.419  -1.443  -1.337  0.00  0.00    +0.000 A 
ATOM     20  C   LIG    1       -0.781  -2.775  -1.261  0.00  0.00    +0.000 A 
ATOM     21  C   LIG    1       -1.678  -3.193  -0.295  0.00  0.00    -0.010 A 
ATOM     22  C   LIG    1       -2.208  -2.280   0.597  0.00  0.00    +0.000 A 
ATOM     23  C   LIG    1       -1.841  -0.949   0.524  0.00  0.00    +0.020 A 
ENDBRANCH  17  18
BRANCH  17  24
ATOM     24  C   LIG    1       -1.148   1.539  -1.756  0.00  0.00    -0.070 A 
ATOM     25  C   LIG    1       -2.115   2.520  -1.635  0.00  0.00    +0.010 A 
ATOM     26  C   LIG    1       -2.664   3.092  -2.768  0.00  0.00    +0.000 A 
ATOM     27  C   LIG    1       -2.254   2.676  -4.021  0.00  0.00    +0.000 A 
ATOM     28  C   LIG    1       -1.291   1.691  -4.141  0.00  0.00    +0.000 A 
ATOM     29  C   LIG    1       -0.738   1.123  -3.009  0.00  0.00    +0.010 A 
ENDBRANCH  17  24
ENDBRANCH  16  17
ENDBRANCH   1  16
TORSDOF 5
