REMARK  Name = ZINCqH0000005ODw.0
REMARK                            x       y       z     vdW  Elec       q    Type
REMARK                         _______ _______ _______ _____ _____    ______ ____
ROOT
ATOM      1  C   LIG    1        1.258   2.133   0.002  0.00  0.00    -0.070 A 
ATOM      2  C   LIG    1        2.418   1.373  -0.027  0.00  0.00    +0.070 A 
ATOM      3  C   LIG    1        2.324  -0.028  -0.033  0.00  0.00    +0.190 A 
ATOM      4  N   LIG    1        1.166  -0.655  -0.012  0.00  0.00    -0.440 NA
ATOM      5  C   LIG    1        0.002  -0.004   0.016  0.00  0.00    +0.130 A 
ATOM      6  C   LIG    1       -1.219  -0.702   0.038  0.00  0.00    +0.050 A 
ATOM      7  C   LIG    1       -2.391  -0.009   0.067  0.00  0.00    +0.040 A 
ATOM      8  C   LIG    1       -2.404   1.383   0.074  0.00  0.00    +0.030 A 
ATOM      9  C   LIG    1       -1.239   2.093   0.060  0.00  0.00    +0.050 A 
ATOM     10  C   LIG    1       -0.017   1.413   0.024  0.00  0.00    -0.060 A 
ENDROOT
BRANCH   3  11
ATOM     11  C   LIG    1        3.571  -0.829  -0.064  0.00  0.00    +0.020 A 
ATOM     12  C   LIG    1        4.810  -0.190  -0.092  0.00  0.00    -0.070 A 
ATOM     13  C   LIG    1        5.973  -0.939  -0.115  0.00  0.00    +0.150 A 
ATOM     14  C   LIG    1        5.907  -2.328  -0.121  0.00  0.00    +0.040 A 
ATOM     15  C   LIG    1        4.671  -2.967  -0.100  0.00  0.00    +0.150 A 
ATOM     16  C   LIG    1        3.506  -2.221  -0.071  0.00  0.00    -0.040 A 
BRANCH  15  17
ATOM     17  O   LIG    1        4.608  -4.326  -0.107  0.00  0.00    -0.300 OA
ATOM     18  C   LIG    1        3.307  -4.915  -0.083  0.00  0.00    +0.240 C 
ENDBRANCH  15  17
BRANCH  14  19
ATOM     19  O   LIG    1        7.051  -3.063  -0.149  0.00  0.00    -0.310 OA
ATOM     20  C   LIG    1        7.570  -3.406  -1.436  0.00  0.00    +0.230 C 
ENDBRANCH  14  19
BRANCH  13  21
ATOM     21  O   LIG    1        7.182  -0.316  -0.136  0.00  0.00    -0.300 OA
ATOM     22  C   LIG    1        7.176   1.113  -0.128  0.00  0.00    +0.250 C 
ENDBRANCH  13  21
ENDBRANCH   3  11
BRANCH   1  23
ATOM     23  C   LIG    1        1.306   3.610   0.009  0.00  0.00    +0.520 C 
ATOM     24  O   LIG    1        0.279   4.252  -0.071  0.00  0.00    -0.490 OA
BRANCH  23  26
ATOM     25  C   LIG    1        2.464   5.696   0.104  0.00  0.00    +0.290 C 
ATOM     26  O   LIG    1        2.491   4.244   0.103  0.00  0.00    -0.350 OA
ENDBRANCH  23  26
ENDBRANCH   1  23
TORSDOF 6
