REMARK  Name = ZINCnE000001UhxD.1
REMARK                            x       y       z     vdW  Elec       q    Type
REMARK                         _______ _______ _______ _____ _____    ______ ____
ROOT
ATOM      1  C   LIG    1        3.623   2.134  -0.021  0.00  0.00    -0.140 C 
ENDROOT
BRANCH   1   7
ATOM      2  O   LIG    1       -1.074   2.015   0.018  0.00  0.00    -0.600 OA
ATOM      3  C   LIG    1       -0.017   1.406   0.010  0.00  0.00    +0.500 A 
ATOM      4  C   LIG    1        0.002  -0.004   0.002  0.00  0.00    -0.180 A 
ATOM      5  C   LIG    1        1.207  -0.640  -0.013  0.00  0.00    +0.100 A 
ATOM      6  N   LIG    1        2.336   0.073  -0.020  0.00  0.00    -0.610 NA
ATOM      7  C   LIG    1        2.318   1.380  -0.013  0.00  0.00    +0.380 A 
ATOM      8  N   LIG    1        1.160   2.068   0.002  0.00  0.00    -0.640 NA
BRANCH   5   9
ATOM      9  C   LIG    1        1.265  -2.145  -0.021  0.00  0.00    +0.520 C 
ATOM     10  F   LIG    1        1.954  -2.591   1.112  0.00  0.00    -0.170 F 
ATOM     11  F   LIG    1        1.931  -2.580  -1.172  0.00  0.00    -0.180 F 
ATOM     12  F   LIG    1       -0.035  -2.663  -0.011  0.00  0.00    -0.180 F 
ENDBRANCH   5   9
ENDBRANCH   1   7
BRANCH   1  13
ATOM     13  S   LIG    1        5.002   0.956  -0.041  0.00  0.00    +1.300 S 
ATOM     14  O   LIG    1        4.987   0.189   1.156  0.00  0.00    -0.810 OA
BRANCH  13  15
ATOM     15  C   LIG    1        6.460   2.034  -0.049  0.00  0.00    -0.220 C 
BRANCH  15  16
ATOM     16  C   LIG    1        7.709   1.191  -0.065  0.00  0.00    -0.080 A 
ATOM     17  C   LIG    1        8.297   0.802   1.126  0.00  0.00    +0.120 A 
ATOM     18  C   LIG    1        9.441   0.022   1.109  0.00  0.00    -0.010 A 
ATOM     19  C   LIG    1       10.002  -0.358  -0.096  0.00  0.00    +0.050 A 
ATOM     20  C   LIG    1        9.417   0.036  -1.285  0.00  0.00    +0.020 A 
ATOM     21  F   LIG    1        7.753   1.178   2.303  0.00  0.00    -0.130 F 
ATOM     22  C   LIG    1        8.271   0.810  -1.270  0.00  0.00    -0.010 A 
ATOM     23 CL   LIG    1        7.538   1.304  -2.765  0.00  0.00    -0.050 Cl
ENDBRANCH  15  16
ENDBRANCH  13  15
ENDBRANCH   1  13
TORSDOF 5
