REMARK  Name = ZINCrD000000CEyK.0
REMARK                            x       y       z     vdW  Elec       q    Type
REMARK                         _______ _______ _______ _____ _____    ______ ____
ROOT
ATOM      1  C   LIG    1       -0.329   3.555  -3.481  0.00  0.00    -0.120 A 
ATOM      2  C   LIG    1        0.079   2.228  -3.337  0.00  0.00    +0.050 A 
ATOM      3  C   LIG    1        0.995   1.690  -4.217  0.00  0.00    +0.030 A 
ATOM      4  C   LIG    1        1.512   2.460  -5.242  0.00  0.00    +0.040 A 
ATOM      5  C   LIG    1        1.112   3.782  -5.393  0.00  0.00    +0.080 A 
ATOM      6  C   LIG    1        0.189   4.331  -4.519  0.00  0.00    +0.070 A 
ENDROOT
BRANCH   1   8
ATOM      7  O   LIG    1       -2.103   4.973  -2.928  0.00  0.00    -0.520 OA
ATOM      8  C   LIG    1       -1.311   4.136  -2.541  0.00  0.00    +0.560 C 
ATOM      9  N   LIG    1       -1.329   3.737  -1.253  0.00  0.00    -0.610 N 
ATOM     10  C   LIG    1       -0.431   2.672  -0.778  0.00  0.00    +0.250 C 
ATOM     11  C   LIG    1        0.291   3.173   0.478  0.00  0.00    +0.220 C 
ATOM     12  O   LIG    1       -0.673   3.656   1.416  0.00  0.00    -0.360 OA
ATOM     13  C   LIG    1       -1.435   4.773   0.950  0.00  0.00    +0.150 C 
ATOM     14  C   LIG    1       -2.246   4.354  -0.282  0.00  0.00    +0.280 C 
BRANCH  13  15
ATOM     15  C   LIG    1       -2.386   5.240   2.053  0.00  0.00    +0.220 C 
BRANCH  15  16
ATOM     16  O   LIG    1       -1.627   5.740   3.156  0.00  0.00    -0.570 OA
ATOM     17  H   LIG    1       -2.167   6.054   3.895  0.00  0.00    +0.380 HD
ENDBRANCH  15  16
ENDBRANCH  13  15
ENDBRANCH   1   8
BRANCH   5  18
ATOM     18  O   LIG    1        1.623   4.535  -6.403  0.00  0.00    -0.250 OA
BRANCH  18  19
ATOM     19  C   LIG    1        2.756   5.244  -6.159  0.00  0.00    +0.120 A 
ATOM     20  C   LIG    1        3.362   5.178  -4.913  0.00  0.00    -0.020 A 
ATOM     21  C   LIG    1        4.514   5.900  -4.668  0.00  0.00    +0.060 A 
ATOM     22  C   LIG    1        5.064   6.686  -5.663  0.00  0.00    +0.040 A 
ATOM     23  C   LIG    1        4.462   6.753  -6.907  0.00  0.00    -0.140 A 
ATOM     24  C   LIG    1        3.312   6.030  -7.158  0.00  0.00    +0.060 A 
BRANCH  23  25
ATOM     25  C   LIG    1        5.064   7.610  -7.990  0.00  0.00    +0.510 C 
ATOM     26  F   LIG    1        4.138   8.582  -8.384  0.00  0.00    -0.170 F 
ATOM     27  F   LIG    1        5.396   6.810  -9.088  0.00  0.00    -0.170 F 
ATOM     28  F   LIG    1        6.217   8.235  -7.503  0.00  0.00    -0.170 F 
ENDBRANCH  23  25
ENDBRANCH  18  19
ENDBRANCH   5  18
TORSDOF 6
