REMARK  Name = ZINCvU0000000ASj.0
REMARK                            x       y       z     vdW  Elec       q    Type
REMARK                         _______ _______ _______ _____ _____    ______ ____
ROOT
ATOM      1  N   LIG    1        0.255   2.532  -5.301  0.00  0.00    -0.630 N 
ATOM      2  H   LIG    1        0.938   2.356  -5.967  0.00  0.00    +0.420 HD
ATOM      3  C   LIG    1       -0.998   2.846  -5.686  0.00  0.00    +0.520 C 
ATOM      4  O   LIG    1       -1.851   3.067  -4.853  0.00  0.00    -0.480 OA
ENDROOT
BRANCH   1   6
ATOM      5  C   LIG    1        1.806   2.154  -3.457  0.00  0.00    -0.190 A 
ATOM      6  C   LIG    1        0.569   2.462  -3.952  0.00  0.00    +0.050 A 
ATOM      7  S   LIG    1       -0.532   2.749  -2.686  0.00  0.00    +0.310 S 
ATOM      8  C   LIG    1        0.680   2.453  -1.451  0.00  0.00    -0.240 A 
ATOM      9  C   LIG    1        0.431   2.526   0.043  0.00  0.00    +0.120 C 
ATOM     10  C   LIG    1        1.576   1.813   0.768  0.00  0.00    -0.010 C 
ATOM     11  C   LIG    1        1.481   2.087   2.270  0.00  0.00    +0.030 C 
ATOM     12  C   LIG    1        2.914   2.340   0.233  0.00  0.00    +0.030 C 
ATOM     13  C   LIG    1        3.111   1.841  -1.200  0.00  0.00    +0.090 C 
ATOM     14  C   LIG    1        1.859   2.151  -2.006  0.00  0.00    -0.040 A 
BRANCH   5  15
ATOM     15  C   LIG    1        2.962   1.856  -4.305  0.00  0.00    +0.540 C 
ATOM     16  O   LIG    1        3.184   0.711  -4.650  0.00  0.00    -0.490 OA
BRANCH  15  17
ATOM     17  O   LIG    1        3.780   2.851  -4.704  0.00  0.00    -0.350 OA
BRANCH  17  19
ATOM     18  C   LIG    1        5.713   3.735  -5.893  0.00  0.00    +0.070 C 
ATOM     19  C   LIG    1        4.905   2.483  -5.544  0.00  0.00    +0.200 C 
ENDBRANCH  17  19
ENDBRANCH  15  17
ENDBRANCH   5  15
ENDBRANCH   1   6
BRANCH   3  20
ATOM     20  C   LIG    1       -1.339   2.922  -7.152  0.00  0.00    +0.100 C 
BRANCH  20  21
ATOM     21  C   LIG    1       -2.792   3.287  -7.311  0.00  0.00    -0.070 A 
ATOM     22  C   LIG    1       -3.766   2.543  -6.673  0.00  0.00    +0.040 A 
ATOM     23  C   LIG    1       -5.099   2.880  -6.816  0.00  0.00    +0.000 A 
ATOM     24  C   LIG    1       -5.458   3.958  -7.604  0.00  0.00    +0.010 A 
ATOM     25  C   LIG    1       -4.484   4.699  -8.246  0.00  0.00    +0.000 A 
ATOM     26  C   LIG    1       -3.151   4.364  -8.100  0.00  0.00    +0.010 A 
ENDBRANCH  20  21
BRANCH  20  27
ATOM     27  C   LIG    1       -1.083   1.584  -7.797  0.00  0.00    -0.090 A 
ATOM     28  C   LIG    1       -1.614   0.436  -7.240  0.00  0.00    +0.010 A 
ATOM     29  C   LIG    1       -1.383  -0.791  -7.834  0.00  0.00    +0.020 A 
ATOM     30  C   LIG    1       -0.615  -0.870  -8.980  0.00  0.00    +0.020 A 
ATOM     31  C   LIG    1       -0.080   0.278  -9.534  0.00  0.00    +0.020 A 
ATOM     32  C   LIG    1       -0.314   1.505  -8.943  0.00  0.00    +0.020 A 
ENDBRANCH  20  27
ENDBRANCH   3  20
TORSDOF 7
