REMARK  Name = ZINCrg00000b5x2i.0
REMARK                            x       y       z     vdW  Elec       q    Type
REMARK                         _______ _______ _______ _____ _____    ______ ____
ROOT
ATOM      1  C   LIG    1       -2.261   2.040   0.887  0.00  0.00    +0.270 C 
ENDROOT
BRANCH   1   6
ATOM      2  C   LIG    1        0.002  -0.004   0.002  0.00  0.00    +0.600 C 
ATOM      3  N   LIG    1       -0.016   1.344   0.009  0.00  0.00    -0.630 N 
ATOM      4  C   LIG    1        0.990   2.416   0.006  0.00  0.00    +0.290 C 
ATOM      5  C   LIG    1       -0.036   3.307   0.719  0.00  0.00    +0.050 C 
ATOM      6  C   LIG    1       -1.051   2.389   0.018  0.00  0.00    +0.230 C 
ATOM      7  O   LIG    1       -1.042  -0.626   0.009  0.00  0.00    -0.510 OA
BRANCH   2  12
ATOM      8  C   LIG    1        3.591  -0.697  -0.035  0.00  0.00    +0.270 A 
ATOM      9  C   LIG    1        3.604  -2.091  -0.043  0.00  0.00    +0.250 A 
ATOM     10  N   LIG    1        2.469  -2.764  -0.035  0.00  0.00    -0.400 NA
ATOM     11  C   LIG    1        1.315  -2.120  -0.016  0.00  0.00    +0.260 A 
ATOM     12  C   LIG    1        1.295  -0.727  -0.014  0.00  0.00    +0.080 A 
ATOM     13  N   LIG    1        2.439  -0.047  -0.021  0.00  0.00    -0.470 NA
BRANCH   8  15
ATOM     14  C   LIG    1        4.670   1.420  -0.036  0.00  0.00    +0.250 C 
ATOM     15  O   LIG    1        4.759  -0.006  -0.043  0.00  0.00    -0.300 OA
ENDBRANCH   8  15
ENDBRANCH   2  12
ENDBRANCH   1   6
BRANCH   1  16
ATOM     16  N   LIG    1       -3.079   1.034   0.204  0.00  0.00    -0.710 N 
ATOM     17  H   LIG    1       -2.810   0.700  -0.666  0.00  0.00    +0.400 HD
ATOM     18  C   LIG    1       -4.204   0.572   0.785  0.00  0.00    +0.600 C 
ATOM     19  O   LIG    1       -4.541   0.992   1.877  0.00  0.00    -0.580 OA
BRANCH  18  20
ATOM     20  C   LIG    1       -5.021  -0.433   0.103  0.00  0.00    -0.320 A 
ATOM     21  C   LIG    1       -6.215  -1.013   0.572  0.00  0.00    +0.110 A 
ATOM     22  N   LIG    1       -6.961  -0.866   1.704  0.00  0.00    -0.480 N 
ATOM     23  H   LIG    1       -6.675  -0.243   2.390  0.00  0.00    +0.430 HD
ATOM     24  C   LIG    1       -8.088  -1.576   1.878  0.00  0.00    +0.310 A 
ATOM     25  C   LIG    1       -8.521  -2.460   0.936  0.00  0.00    -0.040 A 
ATOM     26  C   LIG    1       -7.802  -2.651  -0.236  0.00  0.00    +0.190 A 
ATOM     27  C   LIG    1       -6.626  -1.920  -0.434  0.00  0.00    +0.020 A 
ATOM     28  N   LIG    1       -5.724  -1.873  -1.431  0.00  0.00    -0.510 NA
ATOM     29  C   LIG    1       -4.774  -1.011  -1.157  0.00  0.00    +0.320 A 
ENDBRANCH  18  20
ENDBRANCH   1  16
TORSDOF 5
