REMARK  Name = ZINCrH00000No55d.0
REMARK                            x       y       z     vdW  Elec       q    Type
REMARK                         _______ _______ _______ _____ _____    ______ ____
ROOT
ATOM      1  C   LIG    1        6.151   1.710  -0.043  0.00  0.00    +0.520 C 
ATOM      2  N   LIG    1        7.327   1.052  -0.062  0.00  0.00    -0.670 N 
ATOM      3  H   LIG    1        7.343   0.084   0.002  0.00  0.00    +0.410 HD
ATOM      4  O   LIG    1        6.135   2.923  -0.041  0.00  0.00    -0.510 OA
ENDROOT
BRANCH   2   5
ATOM      5  C   LIG    1        8.526   1.764  -0.175  0.00  0.00    +0.140 A 
ATOM      6  C   LIG    1        8.656   3.002   0.415  0.00  0.00    +0.050 A 
ATOM      7  C   LIG    1        9.843   3.721   0.310  0.00  0.00    +0.020 A 
ATOM      8  C   LIG    1       10.910   3.221  -0.380  0.00  0.00    +0.110 A 
ATOM      9  C   LIG    1       10.816   1.958  -0.998  0.00  0.00    -0.060 A 
ATOM     10  C   LIG    1       11.895   1.417  -1.715  0.00  0.00    +0.040 A 
ATOM     11  C   LIG    1       11.770   0.193  -2.300  0.00  0.00    +0.010 A 
ATOM     12  C   LIG    1       10.585  -0.531  -2.199  0.00  0.00    +0.020 A 
ATOM     13  C   LIG    1        9.518  -0.037  -1.512  0.00  0.00    +0.010 A 
ATOM     14  C   LIG    1        9.613   1.218  -0.891  0.00  0.00    -0.050 A 
BRANCH   8  15
ATOM     15  O   LIG    1       12.060   3.939  -0.469  0.00  0.00    -0.490 OA
ATOM     16  H   LIG    1       12.690   3.763   0.243  0.00  0.00    +0.390 HD
ENDBRANCH   8  15
ENDBRANCH   2   5
BRANCH   1  17
ATOM     17  C   LIG    1        4.857   0.939  -0.024  0.00  0.00    +0.070 C 
BRANCH  17  18
ATOM     18  C   LIG    1        3.681   1.918  -0.004  0.00  0.00    +0.290 C 
BRANCH  18  21
ATOM     19  O   LIG    1        1.230   3.044   0.036  0.00  0.00    -0.540 OA
ATOM     20  C   LIG    1        1.246   1.827   0.034  0.00  0.00    +0.550 C 
ATOM     21  N   LIG    1        2.422   1.169   0.015  0.00  0.00    -0.730 N 
ATOM     22  H   LIG    1        2.435   0.199   0.013  0.00  0.00    +0.400 HD
BRANCH  20  23
ATOM     23  C   LIG    1       -0.012   1.078   0.053  0.00  0.00    -0.090 C 
ATOM     24  C   LIG    1       -1.188   1.736   0.067  0.00  0.00    +0.130 C 
BRANCH  24  25
ATOM     25  C   LIG    1       -2.453   0.983   0.079  0.00  0.00    -0.080 A 
ATOM     26  C   LIG    1       -2.439  -0.415   0.071  0.00  0.00    +0.030 A 
ATOM     27  C   LIG    1       -3.628  -1.113   0.088  0.00  0.00    +0.010 A 
ATOM     28  C   LIG    1       -4.833  -0.434   0.102  0.00  0.00    +0.020 A 
ATOM     29  C   LIG    1       -4.856   0.950   0.104  0.00  0.00    +0.010 A 
ATOM     30  C   LIG    1       -3.675   1.663   0.093  0.00  0.00    +0.040 A 
ENDBRANCH  24  25
ENDBRANCH  20  23
ENDBRANCH  18  21
ENDBRANCH  17  18
ENDBRANCH   1  17
TORSDOF 7
