REMARK  Name = ZINCkj000005iL0l.0
REMARK                            x       y       z     vdW  Elec       q    Type
REMARK                         _______ _______ _______ _____ _____    ______ ____
ROOT
ATOM      1  N   LIG    1        0.401   3.516  -1.182  0.00  0.00    -0.510 N 
ATOM      2  H   LIG    1       -0.515   3.095  -1.176  0.00  0.00    +0.440 HD
ATOM      3  H   LIG    1        0.898   3.229  -2.013  0.00  0.00    +0.420 HD
ENDROOT
BRANCH   1   4
ATOM      4  C   LIG    1        0.267   4.979  -1.173  0.00  0.00    +0.330 C 
BRANCH   4   9
ATOM      5  C   LIG    1       -2.583   5.738  -3.546  0.00  0.00    +0.120 A 
ATOM      6  C   LIG    1       -1.898   6.235  -4.642  0.00  0.00    -0.020 A 
ATOM      7  C   LIG    1       -0.519   6.325  -4.613  0.00  0.00    +0.060 A 
ATOM      8  C   LIG    1        0.180   5.918  -3.492  0.00  0.00    +0.020 A 
ATOM      9  C   LIG    1       -0.498   5.421  -2.394  0.00  0.00    -0.150 A 
ATOM     10  C   LIG    1       -1.879   5.324  -2.418  0.00  0.00    +0.080 A 
BRANCH   5  12
ATOM     11  C   LIG    1       -4.596   6.087  -4.765  0.00  0.00    +0.250 C 
ATOM     12  O   LIG    1       -3.940   5.649  -3.573  0.00  0.00    -0.300 OA
ENDBRANCH   5  12
BRANCH  10  13
ATOM     13  O   LIG    1       -2.547   4.830  -1.342  0.00  0.00    -0.330 OA
ATOM     14  C   LIG    1       -2.957   5.769  -0.345  0.00  0.00    +0.250 C 
ENDBRANCH  10  13
ENDBRANCH   4   9
ENDBRANCH   1   4
BRANCH   1  15
ATOM     15  C   LIG    1        1.147   3.085   0.008  0.00  0.00    +0.300 C 
BRANCH  15  16
ATOM     16  C   LIG    1        1.286   1.562  -0.002  0.00  0.00    +0.110 C 
ATOM     17  C   LIG    1        2.044   1.124  -1.259  0.00  0.00    -0.020 C 
ATOM     18  C   LIG    1        2.246  -0.394  -1.219  0.00  0.00    +0.230 C 
ATOM     19  O   LIG    1        2.952  -0.749  -0.028  0.00  0.00    -0.370 OA
ATOM     20  C   LIG    1        2.268  -0.406   1.179  0.00  0.00    +0.220 C 
ATOM     21  C   LIG    1        2.068   1.111   1.236  0.00  0.00    +0.020 C 
BRANCH  16  22
ATOM     22  O   LIG    1       -0.011   0.963   0.007  0.00  0.00    -0.560 OA
ATOM     23  H   LIG    1        0.002  -0.004   0.002  0.00  0.00    +0.400 HD
ENDBRANCH  16  22
ENDBRANCH  15  16
ENDBRANCH   1  15
TORSDOF 7
