REMARK  Name = ZINCrD00000F5Lua.0
REMARK                            x       y       z     vdW  Elec       q    Type
REMARK                         _______ _______ _______ _____ _____    ______ ____
ROOT
ATOM      1  C   LIG    1       -0.087   1.125   2.330  0.00  0.00    +0.200 A 
ATOM      2  C   LIG    1        1.194   0.658   2.273  0.00  0.00    -0.120 A 
ATOM      3  C   LIG    1        1.913   0.445   3.463  0.00  0.00    +0.070 A 
ATOM      4  C   LIG    1        1.341   0.690   4.659  0.00  0.00    +0.200 A 
ATOM      5  N   LIG    1        0.054   1.153   4.736  0.00  0.00    -0.370 N 
ATOM      6  C   LIG    1       -0.752   1.477   5.793  0.00  0.00    +0.160 A 
ATOM      7  C   LIG    1       -1.940   1.886   5.279  0.00  0.00    +0.070 A 
ATOM      8  N   LIG    1       -1.872   1.817   3.945  0.00  0.00    -0.440 NA
ATOM      9 BR   LIG    1        2.002   0.305   0.600  0.00  0.00    -0.010 Br
ATOM     10  C   LIG    1       -0.675   1.377   3.591  0.00  0.00    +0.190 A 
ENDROOT
BRANCH   7  11
ATOM     11  C   LIG    1       -3.135   2.340   6.077  0.00  0.00    +0.080 C 
ATOM     12  C   LIG    1       -4.445   2.566   5.320  0.00  0.00    +0.090 C 
ATOM     13  C   LIG    1       -3.644   3.763   5.838  0.00  0.00    +0.040 C 
BRANCH  13  14
ATOM     14  C   LIG    1       -4.199   4.511   7.023  0.00  0.00    +0.120 A 
ATOM     15  C   LIG    1       -4.899   3.975   8.049  0.00  0.00    -0.120 A 
ATOM     16  C   LIG    1       -5.225   5.007   8.934  0.00  0.00    +0.230 A 
ATOM     17  N   LIG    1       -4.738   6.124   8.457  0.00  0.00    -0.300 NA
ATOM     18  N   LIG    1       -4.082   5.836   7.253  0.00  0.00    -0.370 N 
ATOM     19  C   LIG    1       -3.392   6.802   6.395  0.00  0.00    +0.360 C 
ENDBRANCH  13  14
ENDBRANCH   7  11
BRANCH   1  21
ATOM     20  C   LIG    1       -1.168   2.688   0.902  0.00  0.00    +0.240 C 
ATOM     21  O   LIG    1       -0.792   1.340   1.188  0.00  0.00    -0.300 OA
ENDBRANCH   1  21
BRANCH   6  22
ATOM     22  N   LIG    1       -0.415   1.402   7.150  0.00  0.00    -0.570 N 
ATOM     23  H   LIG    1       -1.134   0.926   7.675  0.00  0.00    +0.370 HD
BRANCH  22  24
ATOM     24  C   LIG    1        0.889   0.750   7.333  0.00  0.00    +0.100 C 
ATOM     25  C   LIG    1        1.023   0.202   8.775  0.00  0.00    +0.030 C 
ATOM     26  C   LIG    1        2.493   0.549   9.119  0.00  0.00    +0.220 C 
ATOM     27  O   LIG    1        2.693   1.832   8.487  0.00  0.00    -0.360 OA
ATOM     28  C   LIG    1        2.028   1.780   7.214  0.00  0.00    +0.220 C 
ENDBRANCH  22  24
ENDBRANCH   6  22
TORSDOF 5
