REMARK  Name = ZINCrm000000OVNb.0
REMARK                            x       y       z     vdW  Elec       q    Type
REMARK                         _______ _______ _______ _____ _____    ______ ____
ROOT
ATOM      1  N   LIG    1       -2.892   1.622   2.411  0.00  0.00    -0.680 N 
ATOM      2  H   LIG    1       -2.443   2.234   3.014  0.00  0.00    +0.420 HD
ENDROOT
BRANCH   1   7
ATOM      3  C   LIG    1       -6.144   1.479   3.859  0.00  0.00    +0.560 A 
ATOM      4  N   LIG    1       -6.755   0.638   3.027  0.00  0.00    -0.630 NA
ATOM      5  C   LIG    1       -6.097   0.127   2.001  0.00  0.00    +0.620 A 
ATOM      6  N   LIG    1       -4.832   0.448   1.797  0.00  0.00    -0.610 NA
ATOM      7  C   LIG    1       -4.214   1.288   2.625  0.00  0.00    +0.620 A 
ATOM      8  N   LIG    1       -4.870   1.799   3.660  0.00  0.00    -0.610 NA
BRANCH   3  12
ATOM      9  C   LIG    1       -9.097   2.664   5.508  0.00  0.00    +0.180 C 
ATOM     10  C   LIG    1       -8.119   3.838   5.746  0.00  0.00    +0.090 C 
ATOM     11  C   LIG    1       -6.928   3.490   4.819  0.00  0.00    +0.240 C 
ATOM     12  N   LIG    1       -6.831   2.012   4.931  0.00  0.00    -0.440 N 
ATOM     13  C   LIG    1       -8.225   1.518   4.965  0.00  0.00    +0.260 C 
BRANCH   9  14
ATOM     14  N   LIG    1       -9.733   2.267   6.771  0.00  0.00    -0.630 N 
ATOM     15  H   LIG    1      -10.333   1.471   6.610  0.00  0.00    +0.440 HD
ATOM     16  H   LIG    1      -10.282   3.035   7.128  0.00  0.00    +0.440 HD
ATOM     17  H   LIG    1       -9.022   2.021   7.443  0.00  0.00    +0.440 HD
ENDBRANCH   9  14
ENDBRANCH   3  12
ENDBRANCH   1   7
BRANCH   1  18
ATOM     18  C   LIG    1       -2.168   1.052   1.272  0.00  0.00    +0.300 C 
BRANCH  18  19
ATOM     19  C   LIG    1       -0.732   1.581   1.264  0.00  0.00    +0.040 C 
BRANCH  19  20
ATOM     20  C   LIG    1       -0.013   1.086   0.008  0.00  0.00    +0.010 C 
ATOM     21  C   LIG    1       -0.745   1.595  -1.237  0.00  0.00    +0.060 C 
ATOM     22  C   LIG    1        0.025   1.162  -2.487  0.00  0.00    +0.260 C 
ATOM     23  N   LIG    1        1.381   1.723  -2.451  0.00  0.00    -0.510 N 
ATOM     24  C   LIG    1        2.112   1.183  -1.298  0.00  0.00    +0.260 C 
ATOM     25  H   LIG    1        1.866   1.479  -3.301  0.00  0.00    +0.430 HD
ATOM     26  H   LIG    1        1.325   2.728  -2.372  0.00  0.00    +0.430 HD
ATOM     27  C   LIG    1        1.423   1.617  -0.003  0.00  0.00    +0.070 C 
ENDBRANCH  19  20
BRANCH  19  28
ATOM     28  C   LIG    1       -0.007   1.082   2.488  0.00  0.00    -0.100 A 
ATOM     29  C   LIG    1        0.134  -0.276   2.702  0.00  0.00    +0.010 A 
ATOM     30  C   LIG    1        0.803  -0.733   3.822  0.00  0.00    +0.020 A 
ATOM     31  C   LIG    1        1.323   0.168   4.732  0.00  0.00    +0.020 A 
ATOM     32  C   LIG    1        1.178   1.526   4.520  0.00  0.00    +0.020 A 
ATOM     33  C   LIG    1        0.513   1.983   3.398  0.00  0.00    +0.000 A 
ENDBRANCH  19  28
ENDBRANCH  18  19
ENDBRANCH   1  18
TORSDOF 7
