REMARK  Name = ZINCrH000004nhUM.0
REMARK                            x       y       z     vdW  Elec       q    Type
REMARK                         _______ _______ _______ _____ _____    ______ ____
ROOT
ATOM      1  C   LIG    1       -2.509  -3.749   4.443  0.00  0.00    +0.560 C 
ATOM      2  N   LIG    1       -2.108  -3.287   3.241  0.00  0.00    -0.610 N 
ATOM      3  C   LIG    1       -3.004  -3.341   2.076  0.00  0.00    +0.290 C 
ATOM      4  C   LIG    1       -2.252  -4.001   0.915  0.00  0.00    +0.170 C 
ATOM      5  N   LIG    1       -0.984  -3.294   0.692  0.00  0.00    -0.530 NA
ATOM      6  C   LIG    1       -0.102  -3.401   1.862  0.00  0.00    +0.170 C 
ATOM      7  C   LIG    1       -0.765  -2.716   3.062  0.00  0.00    +0.300 C 
ATOM      8  O   LIG    1       -1.725  -3.787   5.371  0.00  0.00    -0.530 OA
ENDROOT
BRANCH   1  13
ATOM      9  C   LIG    1       -5.487  -5.677   5.687  0.00  0.00    +0.120 A 
ATOM     10  C   LIG    1       -6.514  -5.068   4.981  0.00  0.00    -0.060 A 
ATOM     11  C   LIG    1       -6.239  -4.035   4.104  0.00  0.00    +0.050 A 
ATOM     12  C   LIG    1       -4.942  -3.599   3.929  0.00  0.00    +0.010 A 
ATOM     13  C   LIG    1       -3.901  -4.210   4.631  0.00  0.00    -0.090 A 
ATOM     14  C   LIG    1       -4.180  -5.252   5.516  0.00  0.00    +0.040 A 
BRANCH   9  16
ATOM     15  C   LIG    1       -7.132  -7.080   6.676  0.00  0.00    +0.250 C 
ATOM     16  O   LIG    1       -5.763  -6.692   6.548  0.00  0.00    -0.310 OA
ENDBRANCH   9  16
ENDBRANCH   1  13
BRANCH   5  17
ATOM     17  C   LIG    1       -0.314  -3.785  -0.520  0.00  0.00    +0.280 C 
BRANCH  17  18
ATOM     18  C   LIG    1        0.847  -2.883  -0.853  0.00  0.00    -0.220 A 
ATOM     19  C   LIG    1        2.103  -3.025  -0.419  0.00  0.00    +0.210 A 
ATOM     20  N   LIG    1        2.938  -2.103  -0.853  0.00  0.00    -0.470 NA
ATOM     21  C   LIG    1        2.457  -1.191  -1.629  0.00  0.00    +0.060 A 
ATOM     22  S   LIG    1        0.787  -1.455  -1.883  0.00  0.00    +0.140 S 
BRANCH  21  23
ATOM     23  C   LIG    1        3.252  -0.058  -2.224  0.00  0.00    +0.070 C 
ATOM     24  C   LIG    1        4.423  -0.615  -3.059  0.00  0.00    +0.040 C 
ATOM     25  C   LIG    1        5.583   0.379  -2.796  0.00  0.00    +0.020 C 
ATOM     26  C   LIG    1        5.403   0.726  -1.297  0.00  0.00    +0.020 C 
ATOM     27  C   LIG    1        3.874   0.795  -1.105  0.00  0.00    +0.030 C 
ENDBRANCH  21  23
ENDBRANCH  17  18
ENDBRANCH   5  17
TORSDOF 5
