REMARK  Name = ZINCah00000040xK.0
REMARK                            x       y       z     vdW  Elec       q    Type
REMARK                         _______ _______ _______ _____ _____    ______ ____
ROOT
ATOM      1  C   LIG    1       -1.387   3.049   2.999  0.00  0.00    -0.070 A 
ATOM      2  N   LIG    1       -2.092   1.934   2.927  0.00  0.00    -0.210 NA
ATOM      3  N   LIG    1       -1.721   1.243   1.909  0.00  0.00    -0.360 N 
ATOM      4  H   LIG    1       -2.099   0.388   1.652  0.00  0.00    +0.450 HD
ATOM      5  C   LIG    1       -0.722   1.881   1.250  0.00  0.00    -0.070 A 
ATOM      6  C   LIG    1       -0.481   3.037   1.909  0.00  0.00    +0.040 A 
ENDROOT
BRANCH   5   7
ATOM      7  C   LIG    1       -0.017   1.395   0.010  0.00  0.00    +0.490 C 
ATOM      8  F   LIG    1        1.296   1.879  -0.000  0.00  0.00    -0.180 F 
ATOM      9  F   LIG    1        0.002  -0.004   0.002  0.00  0.00    -0.200 F 
ENDBRANCH   5   7
BRANCH   1  11
ATOM     10  O   LIG    1       -2.338   3.990   4.903  0.00  0.00    -0.440 OA
ATOM     11  C   LIG    1       -1.518   4.101   4.016  0.00  0.00    +0.550 C 
ENDBRANCH   1  11
TORSDOF 2
