REMARK  Name = ZINCah00000040xK.1
REMARK                            x       y       z     vdW  Elec       q    Type
REMARK                         _______ _______ _______ _____ _____    ______ ____
ROOT
ATOM      1  C   LIG    1        0.002  -0.004   0.002  0.00  0.00    -0.090 A 
ATOM      2  C   LIG    1       -1.096  -0.853   0.008  0.00  0.00    +0.050 A 
ATOM      3  C   LIG    1       -0.565  -2.143  -0.005  0.00  0.00    -0.060 A 
ATOM      4  N   LIG    1        0.740  -2.042  -0.017  0.00  0.00    -0.230 NA
ATOM      5  N   LIG    1        1.107  -0.811  -0.019  0.00  0.00    -0.350 N 
ATOM      6  H   LIG    1        2.026  -0.501  -0.031  0.00  0.00    +0.460 HD
ENDROOT
BRANCH   3   7
ATOM      7  C   LIG    1       -1.355  -3.427  -0.005  0.00  0.00    +0.490 C 
ATOM      8  F   LIG    1       -2.172  -3.472  -1.139  0.00  0.00    -0.190 F 
ATOM      9  F   LIG    1       -2.149  -3.485   1.145  0.00  0.00    -0.190 F 
ENDBRANCH   3   7
BRANCH   1  11
ATOM     10  O   LIG    1        1.025   2.080   0.003  0.00  0.00    -0.460 OA
ATOM     11  C   LIG    1       -0.018   1.459   0.010  0.00  0.00    +0.550 C 
ENDBRANCH   1  11
TORSDOF 2
