REMARK  Name = ZINCqH0000005jCt.0
REMARK                            x       y       z     vdW  Elec       q    Type
REMARK                         _______ _______ _______ _____ _____    ______ ____
ROOT
ATOM      1  C   LIG    1        1.993   5.305   1.940  0.00  0.00    +0.280 C 
ATOM      2  N   LIG    1        3.239   4.791   1.367  0.00  0.00    -0.630 N 
ATOM      3  C   LIG    1        3.204   3.779   0.478  0.00  0.00    +0.710 C 
ATOM      4  N   LIG    1        2.023   3.240   0.116  0.00  0.00    -0.740 N 
ATOM      5  H   LIG    1        1.198   3.580   0.496  0.00  0.00    +0.400 HD
ATOM      6  O   LIG    1        4.239   3.352   0.003  0.00  0.00    -0.560 OA
ENDROOT
BRANCH   4   7
ATOM      7  C   LIG    1        1.986   2.139  -0.850  0.00  0.00    +0.240 C 
ATOM      8  C   LIG    1        2.071   2.723  -2.274  0.00  0.00    +0.010 C 
ATOM      9  C   LIG    1        1.616   1.726  -3.357  0.00  0.00    +0.010 C 
ATOM     10  C   LIG    1        2.122   0.331  -3.104  0.00  0.00    +0.010 C 
ATOM     11  C   LIG    1        1.038  -0.451  -2.334  0.00  0.00    +0.020 C 
ATOM     12  C   LIG    1        1.038  -0.144  -0.912  0.00  0.00    +0.020 C 
ATOM     13  C   LIG    1        0.730   1.340  -0.630  0.00  0.00    +0.180 C 
ATOM     14  F   LIG    1        0.305   1.489   0.694  0.00  0.00    -0.210 F 
ENDBRANCH   4   7
BRANCH   2  15
ATOM     15  C   LIG    1        4.523   5.377   1.761  0.00  0.00    +0.420 C 
BRANCH  15  16
ATOM     16  C   LIG    1        4.923   6.429   0.759  0.00  0.00    +0.190 A 
ATOM     17  N   LIG    1        5.537   6.208  -0.371  0.00  0.00    -0.460 NA
ATOM     18  C   LIG    1        5.730   7.374  -1.005  0.00  0.00    +0.140 A 
ATOM     19  C   LIG    1        5.223   8.356  -0.235  0.00  0.00    +0.120 A 
ATOM     20  N   LIG    1        4.711   7.756   0.884  0.00  0.00    -0.450 N 
BRANCH  20  21
ATOM     21  C   LIG    1        4.055   8.430   2.008  0.00  0.00    +0.340 C 
BRANCH  21  22
ATOM     22  C   LIG    1        5.065   8.695   3.094  0.00  0.00    -0.120 A 
ATOM     23  C   LIG    1        5.188   7.816   4.154  0.00  0.00    +0.020 A 
ATOM     24  C   LIG    1        6.117   8.057   5.148  0.00  0.00    +0.010 A 
ATOM     25  C   LIG    1        6.919   9.182   5.086  0.00  0.00    +0.020 A 
ATOM     26  C   LIG    1        6.793  10.063   4.029  0.00  0.00    +0.010 A 
ATOM     27  C   LIG    1        5.866   9.820   3.033  0.00  0.00    +0.020 A 
ENDBRANCH  21  22
ENDBRANCH  20  21
ENDBRANCH  15  16
ENDBRANCH   2  15
TORSDOF 5
