REMARK  Name = ZINCrD00000F5LD3.1
REMARK                            x       y       z     vdW  Elec       q    Type
REMARK                         _______ _______ _______ _____ _____    ______ ____
ROOT
ATOM      1  C   LIG    1        0.189   6.095  -0.469  0.00  0.00    +0.260 C 
ENDROOT
BRANCH   1   4
ATOM      2  C   LIG    1       -0.756   2.647   0.753  0.00  0.00    +0.110 A 
ATOM      3  C   LIG    1       -0.220   3.668  -0.014  0.00  0.00    +0.000 A 
ATOM      4  C   LIG    1       -0.390   4.985   0.371  0.00  0.00    -0.130 A 
ATOM      5  C   LIG    1       -1.086   5.286   1.526  0.00  0.00    +0.020 A 
ATOM      6  C   LIG    1       -1.619   4.272   2.300  0.00  0.00    -0.020 A 
ATOM      7  C   LIG    1       -1.456   2.950   1.918  0.00  0.00    +0.120 A 
BRANCH   2   9
ATOM      8  C   LIG    1        0.136   1.115  -0.832  0.00  0.00    +0.250 C 
ATOM      9  O   LIG    1       -0.594   1.351   0.374  0.00  0.00    -0.300 OA
ENDBRANCH   2   9
BRANCH   7  10
ATOM     10  O   LIG    1       -1.980   1.951   2.678  0.00  0.00    -0.300 OA
BRANCH  10  11
ATOM     11  C   LIG    1       -2.686   2.337   3.859  0.00  0.00    +0.190 C 
BRANCH  11  12
ATOM     12  C   LIG    1       -3.198   1.087   4.577  0.00  0.00    -0.010 C 
ATOM     13  C   LIG    1       -4.059   1.503   5.772  0.00  0.00    +0.040 C 
ATOM     14  C   LIG    1       -2.010   0.258   5.069  0.00  0.00    +0.020 C 
ENDBRANCH  11  12
ENDBRANCH  10  11
ENDBRANCH   7  10
ENDBRANCH   1   4
BRANCH   1  15
ATOM     15  N   LIG    1       -0.762   7.213  -0.525  0.00  0.00    -0.500 N 
ATOM     16  H   LIG    1       -0.344   7.985  -1.023  0.00  0.00    +0.440 HD
ATOM     17  H   LIG    1       -0.994   7.504   0.413  0.00  0.00    +0.420 HD
BRANCH  15  18
ATOM     18  C   LIG    1       -1.982   6.785  -1.221  0.00  0.00    +0.390 C 
BRANCH  18  19
ATOM     19  C   LIG    1       -2.905   7.964  -1.390  0.00  0.00    +0.130 A 
ATOM     20  N   LIG    1       -3.765   8.389  -0.505  0.00  0.00    -0.450 NA
ATOM     21  C   LIG    1       -4.411   9.458  -0.995  0.00  0.00    +0.010 A 
ATOM     22  C   LIG    1       -3.938   9.700  -2.232  0.00  0.00    +0.020 A 
ATOM     23  C   LIG    1       -4.376  10.802  -3.162  0.00  0.00    +0.150 C 
ATOM     24  C   LIG    1       -5.481  10.248  -0.285  0.00  0.00    +0.140 C 
ATOM     25  N   LIG    1       -2.982   8.753  -2.483  0.00  0.00    -0.550 N 
ATOM     26  H   LIG    1       -2.459   8.665  -3.295  0.00  0.00    +0.430 HD
ENDBRANCH  18  19
ENDBRANCH  15  18
ENDBRANCH   1  15
BRANCH   1  27
ATOM     27  C   LIG    1        1.503   6.572   0.153  0.00  0.00    -0.020 C 
BRANCH  27  28
ATOM     28  C   LIG    1        2.157   7.574  -0.763  0.00  0.00    +0.480 C 
ATOM     29  O   LIG    1        3.160   8.165  -0.403  0.00  0.00    -0.660 OA
ATOM     30  O   LIG    1        1.683   7.793  -1.865  0.00  0.00    -0.700 OA
ENDBRANCH  27  28
ENDBRANCH   1  27
TORSDOF 10
