REMARK  Name = ZINCpe00000ME9XX.2
REMARK                            x       y       z     vdW  Elec       q    Type
REMARK                         _______ _______ _______ _____ _____    ______ ____
ROOT
ATOM      1  C   LIG    1       -2.068   3.313  -2.505  0.00  0.00    +0.200 C 
ATOM      2  N   LIG    1       -1.383   2.834  -1.297  0.00  0.00    -0.540 NA
ATOM      3  C   LIG    1       -1.334   1.366  -1.266  0.00  0.00    +0.170 C 
ATOM      4  C   LIG    1       -0.479   0.914  -0.080  0.00  0.00    +0.060 C 
ATOM      5  C   LIG    1       -1.080   1.451   1.218  0.00  0.00    +0.140 C 
ATOM      6  O   LIG    1       -2.373   0.885   1.432  0.00  0.00    -0.370 OA
ATOM      7  C   LIG    1       -2.981   1.268   2.668  0.00  0.00    +0.220 C 
ATOM      8  C   LIG    1       -3.188   2.787   2.682  0.00  0.00    +0.250 C 
ATOM      9  N   LIG    1       -1.910   3.437   2.350  0.00  0.00    -0.590 N 
ATOM     10  C   LIG    1       -1.408   4.420   3.124  0.00  0.00    +0.580 C 
ATOM     11  O   LIG    1       -0.313   4.887   2.878  0.00  0.00    -0.530 OA
ATOM     12  C   LIG    1       -1.197   2.977   1.145  0.00  0.00    +0.240 C 
ATOM     13  C   LIG    1       -2.020   3.365  -0.086  0.00  0.00    +0.180 C 
ENDROOT
BRANCH  10  14
ATOM     14  C   LIG    1       -2.189   4.930   4.271  0.00  0.00    -0.090 A 
ATOM     15  C   LIG    1       -2.585   4.063   5.290  0.00  0.00    +0.030 A 
ATOM     16  C   LIG    1       -3.313   4.546   6.358  0.00  0.00    +0.020 A 
ATOM     17  C   LIG    1       -3.651   5.886   6.419  0.00  0.00    +0.030 A 
ATOM     18  C   LIG    1       -3.262   6.751   5.412  0.00  0.00    +0.030 A 
ATOM     19  C   LIG    1       -2.529   6.282   4.341  0.00  0.00    -0.070 A 
BRANCH  19  20
ATOM     20  C   LIG    1       -2.100   7.227   3.248  0.00  0.00    +0.390 C 
BRANCH  20  21
ATOM     21  N   LIG    1       -3.068   7.174   2.150  0.00  0.00    -0.370 N 
ATOM     22  C   LIG    1       -3.734   8.211   1.612  0.00  0.00    +0.470 A 
ATOM     23  N   LIG    1       -4.500   7.750   0.657  0.00  0.00    -0.540 NA
ATOM     24  C   LIG    1       -4.351   6.429   0.555  0.00  0.00    +0.400 A 
ATOM     25  N   LIG    1       -3.480   6.031   1.445  0.00  0.00    -0.300 NA
ENDBRANCH  20  21
ENDBRANCH  19  20
ENDBRANCH  10  14
TORSDOF 3
