REMARK  Name = ZINCtV000002I44C.0
REMARK                            x       y       z     vdW  Elec       q    Type
REMARK                         _______ _______ _______ _____ _____    ______ ____
ROOT
ATOM      1  C   LIG    1       -5.152   0.073   1.201  0.00  0.00    +0.160 A 
ATOM      2  C   LIG    1       -6.277  -0.739   1.214  0.00  0.00    -0.050 A 
ATOM      3  C   LIG    1       -6.884  -1.095   0.024  0.00  0.00    +0.010 A 
ATOM      4  C   LIG    1       -6.370  -0.642  -1.178  0.00  0.00    -0.010 A 
ATOM      5  C   LIG    1       -5.253   0.172  -1.192  0.00  0.00    +0.090 A 
ATOM      6 CL   LIG    1       -8.291  -2.111   0.038  0.00  0.00    -0.060 Cl
ATOM      7  C   LIG    1       -4.639   0.526  -0.006  0.00  0.00    -0.140 A 
ENDROOT
BRANCH   1   8
ATOM      8  O   LIG    1       -4.553   0.425   2.369  0.00  0.00    -0.240 OA
BRANCH   8  13
ATOM      9  C   LIG    1       -6.498  -1.868   7.132  0.00  0.00    +0.100 C 
ATOM     10  C   LIG    1       -5.978  -1.254   5.858  0.00  0.00    -0.070 A 
ATOM     11  C   LIG    1       -6.458  -0.029   5.436  0.00  0.00    +0.020 A 
ATOM     12  C   LIG    1       -5.979   0.539   4.271  0.00  0.00    +0.020 A 
ATOM     13  C   LIG    1       -5.022  -0.128   3.518  0.00  0.00    +0.060 A 
ATOM     14  C   LIG    1       -4.541  -1.358   3.945  0.00  0.00    -0.080 A 
ATOM     15  C   LIG    1       -3.498  -2.082   3.133  0.00  0.00    +0.100 C 
ATOM     16  C   LIG    1       -5.020  -1.918   5.113  0.00  0.00    +0.020 A 
ENDBRANCH   8  13
ENDBRANCH   1   8
BRANCH   7  17
ATOM     17  C   LIG    1       -3.418   1.408  -0.024  0.00  0.00    +0.330 C 
BRANCH  17  18
ATOM     18  N   LIG    1       -2.217   0.583   0.135  0.00  0.00    -0.730 N 
ATOM     19  H   LIG    1       -2.299  -0.379   0.229  0.00  0.00    +0.400 HD
BRANCH  18  20
ATOM     20  C   LIG    1       -0.960   1.180   0.149  0.00  0.00    +0.280 A 
ATOM     21  C   LIG    1       -0.849   2.565   0.018  0.00  0.00    -0.100 A 
ATOM     22  C   LIG    1        0.377   3.164   0.024  0.00  0.00    +0.160 A 
ATOM     23  C   LIG    1        1.528   2.388   0.169  0.00  0.00    -0.250 A 
ATOM     24  C   LIG    1        2.868   2.997   0.181  0.00  0.00    +0.420 A 
ATOM     25  C   LIG    1        3.983   2.138   0.332  0.00  0.00    -0.170 A 
ATOM     26  C   LIG    1        3.801   0.808   0.459  0.00  0.00    +0.330 A 
ATOM     27  N   LIG    1        2.571   0.237   0.450  0.00  0.00    -0.610 N 
ATOM     28  H   LIG    1        2.496  -0.726   0.545  0.00  0.00    +0.420 HD
ATOM     29  O   LIG    1        3.012   4.203   0.065  0.00  0.00    -0.510 OA
ATOM     30  C   LIG    1        1.426   0.990   0.308  0.00  0.00    +0.240 A 
ATOM     31  C   LIG    1        0.172   0.394   0.299  0.00  0.00    -0.130 A 
ENDBRANCH  18  20
ENDBRANCH  17  18
ENDBRANCH   7  17
TORSDOF 5
