REMARK  Name = ZINCnE00000rhmzk.0
REMARK                            x       y       z     vdW  Elec       q    Type
REMARK                         _______ _______ _______ _____ _____    ______ ____
ROOT
ATOM      1  C   LIG    1       -4.732   1.007   0.263  0.00  0.00    +0.210 A 
ATOM      2  N   LIG    1       -3.568   1.625   0.286  0.00  0.00    -0.520 NA
ATOM      3  C   LIG    1       -2.438   0.962   0.047  0.00  0.00    +0.320 A 
ATOM      4  N   LIG    1       -2.431  -0.344  -0.213  0.00  0.00    -0.530 NA
ATOM      5  C   LIG    1       -3.554  -1.033  -0.249  0.00  0.00    +0.340 A 
ATOM      6  C   LIG    1       -4.768  -0.370  -0.008  0.00  0.00    -0.230 A 
ENDROOT
BRANCH   1   8
ATOM      7  C   LIG    1       -5.689   3.029   1.334  0.00  0.00    +0.020 C 
ATOM      8  C   LIG    1       -6.006   1.767   0.529  0.00  0.00    +0.080 C 
ATOM      9  C   LIG    1       -6.652   2.160  -0.801  0.00  0.00    +0.040 C 
ENDBRANCH   1   8
BRANCH   6  10
ATOM     10  C   LIG    1       -6.045  -1.100  -0.038  0.00  0.00    +0.530 C 
ATOM     11  O   LIG    1       -7.101  -0.491   0.065  0.00  0.00    -0.670 OA
ATOM     12  O   LIG    1       -6.051  -2.317  -0.167  0.00  0.00    -0.680 OA
ENDBRANCH   6  10
BRANCH   3  13
ATOM     13  C   LIG    1       -1.163   1.690   0.077  0.00  0.00    +0.050 C 
ATOM     14  C   LIG    1       -0.009   1.037  -0.156  0.00  0.00    +0.070 C 
BRANCH  14  15
ATOM     15  C   LIG    1        1.268   1.768  -0.132  0.00  0.00    -0.080 A 
ATOM     16  C   LIG    1        1.289   3.142   0.133  0.00  0.00    +0.070 A 
ATOM     17  C   LIG    1        2.484   3.823   0.156  0.00  0.00    -0.010 A 
ATOM     18  C   LIG    1        3.683   3.155  -0.095  0.00  0.00    +0.100 A 
ATOM     19  O   LIG    1        4.954   3.639  -0.137  0.00  0.00    -0.310 OA
ATOM     20  C   LIG    1        5.882   2.550   0.005  0.00  0.00    +0.240 C 
ATOM     21  C   LIG    1        5.093   1.350  -0.570  0.00  0.00    +0.070 C 
ATOM     22  C   LIG    1        3.656   1.788  -0.357  0.00  0.00    -0.180 A 
ATOM     23  C   LIG    1        2.471   1.097  -0.380  0.00  0.00    +0.080 A 
ENDBRANCH  14  15
ENDBRANCH   3  13
TORSDOF 4
