REMARK  Name = ZINCvU00000007SZ.0
REMARK                            x       y       z     vdW  Elec       q    Type
REMARK                         _______ _______ _______ _____ _____    ______ ____
ROOT
ATOM      1  S   LIG    1        3.818   0.737  -0.031  0.00  0.00    -0.580 S 
ATOM      2  C   LIG    1        2.107   0.688  -0.014  0.00  0.00    +0.470 A 
ATOM      3  N   LIG    1        1.340  -0.422  -0.013  0.00  0.00    -0.370 N 
ATOM      4  N   LIG    1        0.002  -0.004   0.002  0.00  0.00    -0.250 NA
ATOM      5  C   LIG    1       -0.015   1.290   0.009  0.00  0.00    +0.270 A 
ATOM      6  N   LIG    1        1.278   1.751  -0.001  0.00  0.00    -0.490 N 
ENDROOT
BRANCH   5   7
ATOM      7  C   LIG    1       -1.253   2.150   0.020  0.00  0.00    +0.260 C 
BRANCH   7   8
ATOM      8  C   LIG    1       -2.476   1.270   0.022  0.00  0.00    -0.190 A 
ATOM      9  C   LIG    1       -3.092   0.811   1.113  0.00  0.00    +0.030 A 
ATOM     10  C   LIG    1       -4.201   0.021   0.867  0.00  0.00    +0.000 A 
ATOM     11  C   LIG    1       -4.481  -0.170  -0.423  0.00  0.00    -0.030 A 
ATOM     12  S   LIG    1       -3.307   0.685  -1.414  0.00  0.00    +0.120 S 
ENDBRANCH   7   8
ENDBRANCH   5   7
BRANCH   3  13
ATOM     13  C   LIG    1        1.817  -1.807  -0.025  0.00  0.00    +0.520 C 
BRANCH  13  14
ATOM     14  N   LIG    1        1.624  -2.380  -1.365  0.00  0.00    -0.540 NA
ATOM     15  C   LIG    1        2.571  -3.479  -1.610  0.00  0.00    +0.250 C 
ATOM     16  C   LIG    1        2.473  -4.472  -0.451  0.00  0.00    +0.050 C 
ATOM     17  C   LIG    1        1.032  -4.839  -0.209  0.00  0.00    -0.080 A 
ATOM     18  C   LIG    1        0.755  -5.971   0.542  0.00  0.00    +0.000 A 
ATOM     19  C   LIG    1       -0.552  -6.341   0.791  0.00  0.00    +0.000 A 
ATOM     20  C   LIG    1       -1.589  -5.578   0.289  0.00  0.00    +0.000 A 
ATOM     21  C   LIG    1       -1.315  -4.452  -0.460  0.00  0.00    +0.010 A 
ATOM     22  C   LIG    1       -0.003  -4.080  -0.712  0.00  0.00    -0.110 A 
ATOM     23  C   LIG    1        0.246  -2.848  -1.542  0.00  0.00    +0.280 C 
ENDBRANCH  13  14
ENDBRANCH   3  13
BRANCH   6  24
ATOM     24  C   LIG    1        1.687   3.158   0.003  0.00  0.00    +0.340 C 
BRANCH  24  25
ATOM     25  C   LIG    1        1.843   3.640   1.447  0.00  0.00    +0.080 C 
BRANCH  25  26
ATOM     26  C   LIG    1        2.264   5.087   1.450  0.00  0.00    -0.090 A 
ATOM     27  C   LIG    1        3.607   5.416   1.445  0.00  0.00    +0.020 A 
ATOM     28  C   LIG    1        3.993   6.743   1.444  0.00  0.00    +0.000 A 
ATOM     29  C   LIG    1        3.036   7.741   1.458  0.00  0.00    +0.000 A 
ATOM     30  C   LIG    1        1.694   7.412   1.469  0.00  0.00    +0.000 A 
ATOM     31  C   LIG    1        1.308   6.085   1.465  0.00  0.00    +0.000 A 
ENDBRANCH  25  26
ENDBRANCH  24  25
ENDBRANCH   6  24
TORSDOF 7
