REMARK  Name = ZINCpe000014OHQ4.0
REMARK                            x       y       z     vdW  Elec       q    Type
REMARK                         _______ _______ _______ _____ _____    ______ ____
ROOT
ATOM      1  C   LIG    1       -2.051   2.515   5.996  0.00  0.00    +0.170 A 
ATOM      2  C   LIG    1       -0.927   1.722   6.068  0.00  0.00    -0.020 A 
ATOM      3  C   LIG    1       -0.308   1.295   4.886  0.00  0.00    +0.210 A 
ATOM      4  N   LIG    1        0.798   0.535   4.902  0.00  0.00    -0.530 NA
ATOM      5  C   LIG    1        1.357   0.150   3.778  0.00  0.00    +0.420 A 
ATOM      6  N   LIG    1        0.878   0.477   2.587  0.00  0.00    -0.580 NA
ATOM      7  C   LIG    1       -0.211   1.225   2.460  0.00  0.00    +0.490 A 
ATOM      8 CL   LIG    1        2.787  -0.832   3.856  0.00  0.00    +0.020 Cl
ATOM      9  C   LIG    1       -0.855   1.676   3.636  0.00  0.00    -0.190 A 
ATOM     10  C   LIG    1       -2.005   2.474   3.591  0.00  0.00    +0.000 A 
ATOM     11  C   LIG    1       -2.590   2.884   4.755  0.00  0.00    +0.110 A 
ENDROOT
BRANCH   1  13
ATOM     12  C   LIG    1       -2.055   2.527   8.373  0.00  0.00    +0.250 C 
ATOM     13  O   LIG    1       -2.651   2.936   7.141  0.00  0.00    -0.300 OA
ENDBRANCH   1  13
BRANCH   7  14
ATOM     14  N   LIG    1       -0.698   1.558   1.213  0.00  0.00    -0.690 N 
ATOM     15  H   LIG    1       -1.495   2.106   1.135  0.00  0.00    +0.410 HD
BRANCH  14  16
ATOM     16  C   LIG    1       -0.013   1.086   0.008  0.00  0.00    +0.270 C 
BRANCH  16  17
ATOM     17  C   LIG    1       -0.753   1.593  -1.232  0.00  0.00    +0.330 C 
BRANCH  17  18
ATOM     18  N   LIG    1       -0.067   1.120  -2.437  0.00  0.00    -1.000 NA
ATOM     19  C   LIG    1        1.076   1.750  -3.117  0.00  0.00    +0.270 C 
ATOM     20  C   LIG    1        1.784   0.698  -3.982  0.00  0.00    +0.270 C 
ATOM     21  N   LIG    1        0.754  -0.212  -4.521  0.00  0.00    -1.110 NA
ATOM     22  H   LIG    1        0.759  -0.684  -5.368  0.00  0.00    +0.440 HD
ATOM     23  S   LIG    1       -0.421  -0.242  -3.334  0.00  0.00    +2.770 S 
ATOM     24  O   LIG    1       -1.669  -0.010  -3.973  0.00  0.00    -0.980 OA
ATOM     25  O   LIG    1       -0.154  -1.368  -2.509  0.00  0.00    -0.970 OA
ENDBRANCH  17  18
ENDBRANCH  16  17
ENDBRANCH  14  16
ENDBRANCH   7  14
BRANCH  11  26
ATOM     26  O   LIG    1       -3.706   3.659   4.710  0.00  0.00    -0.300 OA
ATOM     27  C   LIG    1       -4.206   4.002   3.416  0.00  0.00    +0.250 C 
ENDBRANCH  11  26
TORSDOF 6
