REMARK  Name = ZINCvU0000000J68.0
REMARK                            x       y       z     vdW  Elec       q    Type
REMARK                         _______ _______ _______ _____ _____    ______ ____
ROOT
ATOM      1  N   LIG    1        2.088   4.347   0.005  0.00  0.00    -0.600 N 
ATOM      2  C   LIG    1        1.030   3.512   0.011  0.00  0.00    +0.520 C 
ATOM      3  O   LIG    1       -0.097   3.960   0.024  0.00  0.00    -0.500 OA
ENDROOT
BRANCH   1   4
ATOM      4  C   LIG    1        1.876   5.797   0.015  0.00  0.00    +0.350 C 
BRANCH   4   8
ATOM      5  C   LIG    1        1.709   7.185   4.052  0.00  0.00    -0.060 A 
ATOM      6  C   LIG    1        2.921   7.133   3.388  0.00  0.00    +0.000 A 
ATOM      7  C   LIG    1        2.975   6.684   2.082  0.00  0.00    +0.020 A 
ATOM      8  C   LIG    1        1.817   6.287   1.439  0.00  0.00    -0.120 A 
ATOM      9  C   LIG    1        0.605   6.343   2.101  0.00  0.00    +0.040 A 
ATOM     10  C   LIG    1        0.551   6.788   3.409  0.00  0.00    +0.010 A 
BRANCH   5  12
ATOM     11  C   LIG    1        2.169   9.113   5.542  0.00  0.00    +0.040 C 
ATOM     12  C   LIG    1        1.650   7.675   5.476  0.00  0.00    -0.030 C 
ATOM     13  C   LIG    1        2.517   6.778   6.360  0.00  0.00    +0.040 C 
ATOM     14  C   LIG    1        0.202   7.633   5.970  0.00  0.00    +0.030 C 
ENDBRANCH   5  12
ENDBRANCH   4   8
ENDBRANCH   1   4
BRANCH   2  15
ATOM     15  C   LIG    1        1.248   2.021   0.001  0.00  0.00    +0.230 C 
BRANCH  15  16
ATOM     16  O   LIG    1       -0.016   1.355   0.009  0.00  0.00    -0.280 OA
BRANCH  16  17
ATOM     17  C   LIG    1        0.002  -0.004   0.002  0.00  0.00    +0.180 A 
ATOM     18  C   LIG    1        1.212  -0.682  -0.019  0.00  0.00    -0.060 A 
ATOM     19  C   LIG    1        1.228  -2.064  -0.021  0.00  0.00    +0.150 A 
ATOM     20  C   LIG    1        0.040  -2.770  -0.014  0.00  0.00    -0.080 A 
ATOM     21  C   LIG    1       -1.168  -2.096   0.002  0.00  0.00    +0.150 A 
ATOM     22  C   LIG    1       -1.189  -0.715   0.010  0.00  0.00    +0.010 A 
BRANCH  20  23
ATOM     23  N   LIG    1        0.060  -4.250  -0.022  0.00  0.00    +0.030 N 
ATOM     24  O   LIG    1        1.123  -4.845  -0.036  0.00  0.00    -0.160 OA
ATOM     25  O   LIG    1       -0.987  -4.873  -0.016  0.00  0.00    -0.160 OA
ENDBRANCH  20  23
ENDBRANCH  16  17
ENDBRANCH  15  16
ENDBRANCH   2  15
BRANCH   1  26
ATOM     26  C   LIG    1        3.449   3.806  -0.010  0.00  0.00    +0.410 C 
BRANCH  26  27
ATOM     27  C   LIG    1        3.902   3.628  -1.437  0.00  0.00    -0.050 A 
ATOM     28  C   LIG    1        4.537   4.551  -2.181  0.00  0.00    -0.030 A 
ATOM     29  C   LIG    1        4.774   3.965  -3.446  0.00  0.00    -0.060 A 
ATOM     30  C   LIG    1        4.262   2.721  -3.401  0.00  0.00    +0.180 A 
ATOM     31  O   LIG    1        3.735   2.523  -2.182  0.00  0.00    -0.180 OA
ENDBRANCH  26  27
ENDBRANCH   1  26
TORSDOF 9
