REMARK  Name = ZINCkj000005hDdb.1
REMARK                            x       y       z     vdW  Elec       q    Type
REMARK                         _______ _______ _______ _____ _____    ______ ____
ROOT
ATOM      1  N   LIG    1       -4.112   6.742   0.812  0.00  0.00    -0.390 N 
ATOM      2  C   LIG    1       -2.993   7.337   1.554  0.00  0.00    +0.280 C 
ATOM      3  C   LIG    1       -1.684   7.059   0.814  0.00  0.00    +0.210 C 
ATOM      4  N   LIG    1       -1.494   5.607   0.688  0.00  0.00    -0.520 NA
ATOM      5  C   LIG    1       -2.619   4.993  -0.032  0.00  0.00    +0.210 C 
ATOM      6  C   LIG    1       -3.921   5.288   0.716  0.00  0.00    +0.270 C 
ATOM      7  H   LIG    1       -4.148   7.137  -0.116  0.00  0.00    +0.420 HD
ENDROOT
BRANCH   4   8
ATOM      8  C   LIG    1       -0.217   5.298   0.031  0.00  0.00    +0.210 C 
ATOM      9  C   LIG    1       -0.082   3.783  -0.134  0.00  0.00    +0.070 C 
BRANCH   8  10
ATOM     10  C   LIG    1        0.920   5.814   0.875  0.00  0.00    +0.110 A 
ATOM     11  C   LIG    1        2.123   6.137   0.276  0.00  0.00    -0.030 A 
ATOM     12  C   LIG    1        3.163   6.612   1.061  0.00  0.00    +0.070 A 
ATOM     13  C   LIG    1        2.953   6.744   2.425  0.00  0.00    -0.030 A 
ATOM     14  C   LIG    1        1.724   6.396   2.954  0.00  0.00    +0.260 A 
ATOM     15  N   LIG    1        0.756   5.953   2.176  0.00  0.00    -0.460 NA
ENDBRANCH   8  10
ENDBRANCH   4   8
BRANCH   1  16
ATOM     16  C   LIG    1       -5.371   7.024   1.514  0.00  0.00    +0.280 C 
BRANCH  16  17
ATOM     17  C   LIG    1       -6.547   6.513   0.678  0.00  0.00    +0.110 C 
BRANCH  17  18
ATOM     18  C   LIG    1       -7.838   6.803   1.399  0.00  0.00    +0.470 C 
ATOM     19  O   LIG    1       -7.820   7.361   2.470  0.00  0.00    -0.500 OA
BRANCH  18  21
ATOM     20  C   LIG    1      -10.213   6.753   1.600  0.00  0.00    +0.280 C 
ATOM     21  O   LIG    1       -9.009   6.442   0.850  0.00  0.00    -0.350 OA
ENDBRANCH  18  21
ENDBRANCH  17  18
ENDBRANCH  16  17
ENDBRANCH   1  16
TORSDOF 6
