REMARK  Name = ZINCqH0000006HJQ.0
REMARK                            x       y       z     vdW  Elec       q    Type
REMARK                         _______ _______ _______ _____ _____    ______ ____
ROOT
ATOM      1  C   LIG    1        6.921  -1.593   3.386  0.00  0.00    +0.570 C 
ATOM      2  N   LIG    1        5.701  -1.585   2.816  0.00  0.00    -0.660 N 
ATOM      3  H   LIG    1        5.152  -2.384   2.832  0.00  0.00    +0.410 HD
ATOM      4  O   LIG    1        7.575  -0.569   3.439  0.00  0.00    -0.510 OA
ENDROOT
BRANCH   1   7
ATOM      5  C   LIG    1        9.236  -4.029   5.063  0.00  0.00    +0.120 A 
ATOM      6  C   LIG    1        8.732  -2.855   4.539  0.00  0.00    +0.030 A 
ATOM      7  C   LIG    1        7.465  -2.845   3.947  0.00  0.00    -0.090 A 
ATOM      8  C   LIG    1        6.714  -4.021   3.892  0.00  0.00    +0.040 A 
ATOM      9  C   LIG    1        7.226  -5.191   4.412  0.00  0.00    -0.030 A 
ATOM     10 CL   LIG    1        6.295  -6.654   4.335  0.00  0.00    -0.030 Cl
ATOM     11  C   LIG    1        8.484  -5.201   5.000  0.00  0.00    +0.100 A 
BRANCH   5  13
ATOM     12  C   LIG    1       11.184  -2.805   5.669  0.00  0.00    +0.250 C 
ATOM     13  O   LIG    1       10.468  -4.042   5.640  0.00  0.00    -0.300 OA
ENDBRANCH   5  13
BRANCH  11  14
ATOM     14  O   LIG    1        8.983  -6.354   5.516  0.00  0.00    -0.310 OA
ATOM     15  C   LIG    1        8.696  -6.629   6.888  0.00  0.00    +0.230 C 
ENDBRANCH  11  14
ENDBRANCH   1   7
BRANCH   2  16
ATOM     16  C   LIG    1        5.224  -0.423   2.199  0.00  0.00    +0.170 A 
ATOM     17  C   LIG    1        5.533   0.823   2.732  0.00  0.00    +0.000 A 
ATOM     18  C   LIG    1        5.062   1.971   2.123  0.00  0.00    +0.060 A 
ATOM     19  C   LIG    1        4.289   1.885   0.982  0.00  0.00    -0.040 A 
ATOM     20  C   LIG    1        3.973   0.641   0.448  0.00  0.00    +0.180 A 
ATOM     21  C   LIG    1        4.443  -0.513   1.056  0.00  0.00    -0.020 A 
BRANCH  20  22
ATOM     22  N   LIG    1        3.185   0.555  -0.705  0.00  0.00    -0.560 N 
ATOM     23  C   LIG    1        2.537   1.701  -1.354  0.00  0.00    +0.260 C 
ATOM     24  C   LIG    1        1.459   1.095  -2.280  0.00  0.00    +0.060 C 
ATOM     25  C   LIG    1        2.033  -0.314  -2.553  0.00  0.00    +0.070 C 
ATOM     26  C   LIG    1        2.923  -0.589  -1.361  0.00  0.00    +0.520 C 
ATOM     27  O   LIG    1        3.341  -1.683  -1.043  0.00  0.00    -0.510 OA
ENDBRANCH  20  22
ENDBRANCH   2  16
TORSDOF 5
