REMARK  Name = ZINCqH0000007ttO.0
REMARK                            x       y       z     vdW  Elec       q    Type
REMARK                         _______ _______ _______ _____ _____    ______ ____
ROOT
ATOM      1  N   LIG    1       -2.468   1.316   0.021  0.00  0.00    -0.700 N 
ATOM      2  H   LIG    1       -2.442   0.346   0.015  0.00  0.00    +0.420 HD
ATOM      3  C   LIG    1       -1.319   2.021   0.019  0.00  0.00    +0.570 C 
ATOM      4  O   LIG    1       -1.352   3.236   0.026  0.00  0.00    -0.530 OA
ENDROOT
BRANCH   3   5
ATOM      5  C   LIG    1       -0.016   1.315   0.009  0.00  0.00    +0.120 A 
ATOM      6  N   LIG    1        0.002  -0.004   0.002  0.00  0.00    -0.440 NA
ATOM      7  C   LIG    1        1.150  -0.681  -0.013  0.00  0.00    +0.130 A 
ATOM      8  C   LIG    1        1.162  -2.088  -0.021  0.00  0.00    +0.070 A 
ATOM      9  C   LIG    1        2.349  -2.754  -0.038  0.00  0.00    -0.020 A 
ATOM     10  C   LIG    1        3.562  -2.063  -0.045  0.00  0.00    +0.040 A 
ATOM     11  C   LIG    1        3.591  -0.702  -0.037  0.00  0.00    +0.070 A 
ATOM     12 CL   LIG    1        2.356  -4.490  -0.049  0.00  0.00    -0.050 Cl
ATOM     13  C   LIG    1        2.386   0.019  -0.021  0.00  0.00    -0.090 A 
ATOM     14  C   LIG    1        2.376   1.426  -0.013  0.00  0.00    +0.100 A 
ATOM     15  C   LIG    1        1.170   2.064   0.002  0.00  0.00    +0.030 A 
ENDBRANCH   3   5
BRANCH   1  16
ATOM     16  C   LIG    1       -3.756   2.014   0.031  0.00  0.00    +0.210 C 
ATOM     17  C   LIG    1       -4.138   2.360   1.471  0.00  0.00    +0.030 C 
BRANCH  16  18
ATOM     18  C   LIG    1       -4.830   1.111  -0.579  0.00  0.00    +0.270 C 
BRANCH  18  22
ATOM     19  C   LIG    1       -8.507   3.269  -0.870  0.00  0.00    +0.130 A 
ATOM     20  C   LIG    1       -7.699   3.120  -1.988  0.00  0.00    -0.020 A 
ATOM     21  C   LIG    1       -6.510   2.422  -1.891  0.00  0.00    +0.070 A 
ATOM     22  C   LIG    1       -6.127   1.872  -0.682  0.00  0.00    -0.160 A 
ATOM     23  C   LIG    1       -6.934   2.014   0.432  0.00  0.00    +0.060 A 
ATOM     24  C   LIG    1       -8.120   2.716   0.342  0.00  0.00    -0.080 A 
BRANCH  19  26
ATOM     25  C   LIG    1      -10.459   4.068   0.228  0.00  0.00    +0.250 C 
ATOM     26  O   LIG    1       -9.677   3.955  -0.963  0.00  0.00    -0.320 OA
ENDBRANCH  19  26
ENDBRANCH  18  22
BRANCH  18  27
ATOM     27  O   LIG    1       -5.016  -0.036   0.253  0.00  0.00    -0.550 OA
ATOM     28  H   LIG    1       -5.296   0.172   1.154  0.00  0.00    +0.370 HD
ENDBRANCH  18  27
ENDBRANCH  16  18
ENDBRANCH   1  16
TORSDOF 6
