REMARK  Name = ZINCvU0000000IIV.0
REMARK                            x       y       z     vdW  Elec       q    Type
REMARK                         _______ _______ _______ _____ _____    ______ ____
ROOT
ATOM      1  C   LIG    1        7.118   7.395   0.864  0.00  0.00    +0.600 C 
ATOM      2  N   LIG    1        7.359   7.486   2.187  0.00  0.00    -0.720 N 
ATOM      3  H   LIG    1        6.689   7.191   2.824  0.00  0.00    +0.400 HD
ATOM      4  O   LIG    1        7.958   7.766   0.066  0.00  0.00    -0.510 OA
ENDROOT
BRANCH   1   8
ATOM      5  C   LIG    1        3.609   5.889  -0.002  0.00  0.00    +0.060 A 
ATOM      6  N   LIG    1        4.277   6.188  -1.070  0.00  0.00    -0.450 NA
ATOM      7  C   LIG    1        5.470   6.702  -0.909  0.00  0.00    +0.160 A 
ATOM      8  C   LIG    1        5.842   6.849   0.387  0.00  0.00    -0.300 A 
ATOM      9  C   LIG    1        6.355   7.094  -2.064  0.00  0.00    +0.180 C 
ATOM     10  S   LIG    1        4.516   6.274   1.395  0.00  0.00    +0.190 S 
BRANCH   5  11
ATOM     11  C   LIG    1        2.225   5.292   0.009  0.00  0.00    +0.330 C 
BRANCH  11  12
ATOM     12  O   LIG    1        2.322   3.866   0.000  0.00  0.00    -0.310 OA
BRANCH  12  17
ATOM     13  C   LIG    1       -2.513   0.977   0.019  0.00  0.00    +0.100 C 
ATOM     14  C   LIG    1       -1.220   1.750   0.017  0.00  0.00    -0.120 A 
ATOM     15  C   LIG    1       -0.013   1.076   0.008  0.00  0.00    +0.050 A 
ATOM     16  C   LIG    1        1.175   1.782   0.000  0.00  0.00    -0.010 A 
ATOM     17  C   LIG    1        1.155   3.169   0.008  0.00  0.00    +0.120 A 
ATOM     18  C   LIG    1       -0.057   3.844   0.023  0.00  0.00    -0.070 A 
ATOM     19  C   LIG    1       -1.242   3.133   0.031  0.00  0.00    +0.050 A 
ENDBRANCH  12  17
ENDBRANCH  11  12
ENDBRANCH   5  11
ENDBRANCH   1   8
BRANCH   2  20
ATOM     20  C   LIG    1        8.633   8.031   2.663  0.00  0.00    +0.300 C 
ATOM     21  C   LIG    1        8.543   9.558   2.723  0.00  0.00    +0.040 C 
BRANCH  20  22
ATOM     22  C   LIG    1        8.927   7.491   4.039  0.00  0.00    -0.100 A 
ATOM     23  C   LIG    1        7.907   7.367   4.964  0.00  0.00    +0.040 A 
ATOM     24  C   LIG    1        8.173   6.867   6.224  0.00  0.00    +0.000 A 
ATOM     25  C   LIG    1        9.468   6.499   6.564  0.00  0.00    +0.140 A 
ATOM     26  C   LIG    1       10.491   6.630   5.635  0.00  0.00    +0.010 A 
ATOM     27  C   LIG    1       10.218   7.126   4.375  0.00  0.00    +0.070 A 
BRANCH  25  28
ATOM     28  N   LIG    1        9.742   5.996   7.844  0.00  0.00    -0.410 N 
ATOM     29  C   LIG    1        8.839   5.817   8.861  0.00  0.00    +0.120 A 
ATOM     30  C   LIG    1        9.522   5.312   9.905  0.00  0.00    +0.160 A 
ATOM     31  N   LIG    1       10.809   5.192   9.545  0.00  0.00    -0.480 NA
ATOM     32  C   LIG    1       10.953   5.598   8.313  0.00  0.00    +0.400 A 
ENDBRANCH  25  28
ENDBRANCH  20  22
ENDBRANCH   2  20
TORSDOF 7
