REMARK  Name = ZINCrD00000l3DF6.0
REMARK                            x       y       z     vdW  Elec       q    Type
REMARK                         _______ _______ _______ _____ _____    ______ ____
ROOT
ATOM      1  C   LIG    1       -2.496   4.176   0.048  0.00  0.00    +0.180 C 
ENDROOT
BRANCH   1   2
ATOM      2  C   LIG    1       -1.179   3.444   0.032  0.00  0.00    +0.440 A 
ATOM      3  N   LIG    1       -0.081   4.147   0.025  0.00  0.00    -0.540 NA
ATOM      4  C   LIG    1        1.134   3.566   0.010  0.00  0.00    +0.530 A 
ATOM      5  C   LIG    1        1.198   2.094   0.002  0.00  0.00    -0.210 A 
ATOM      6  C   LIG    1        2.409   1.407  -0.013  0.00  0.00    +0.150 A 
ATOM      7  C   LIG    1        2.408   0.039  -0.020  0.00  0.00    +0.010 A 
ATOM      8  C   LIG    1        1.213  -0.668  -0.013  0.00  0.00    +0.030 A 
ATOM      9  C   LIG    1        0.002  -0.004   0.002  0.00  0.00    +0.000 A 
ATOM     10 CL   LIG    1        1.241  -2.404  -0.023  0.00  0.00    -0.040 Cl
ATOM     11  C   LIG    1       -0.017   1.383   0.010  0.00  0.00    +0.190 A 
ATOM     12  O   LIG    1        2.151   4.239   0.005  0.00  0.00    -0.460 OA
ATOM     13  N   LIG    1       -1.197   2.099   0.019  0.00  0.00    -0.620 N 
ATOM     14  H   LIG    1       -2.046   1.629   0.021  0.00  0.00    +0.430 HD
ENDBRANCH   1   2
BRANCH   1  15
ATOM     15  C   LIG    1       -2.304   5.542   0.654  0.00  0.00    +0.390 C 
ATOM     16  O   LIG    1       -1.239   6.112   0.541  0.00  0.00    -0.330 OA
BRANCH  15  20
ATOM     17  C   LIG    1       -5.489   7.399   2.759  0.00  0.00    +0.060 A 
ATOM     18  C   LIG    1       -4.264   8.056   2.629  0.00  0.00    +0.040 A 
ATOM     19  C   LIG    1       -3.228   7.456   1.946  0.00  0.00    +0.160 A 
ATOM     20  C   LIG    1       -3.406   6.184   1.382  0.00  0.00    -0.170 A 
ATOM     21  C   LIG    1       -4.638   5.529   1.508  0.00  0.00    +0.070 A 
ATOM     22  F   LIG    1       -2.043   8.091   1.820  0.00  0.00    -0.100 F 
ATOM     23  C   LIG    1       -5.668   6.129   2.196  0.00  0.00    +0.100 A 
ATOM     24  F   LIG    1       -6.854   5.496   2.324  0.00  0.00    -0.120 F 
BRANCH  17  26
ATOM     25  C   LIG    1       -7.445   8.537   4.051  0.00  0.00    +0.120 C 
ATOM     26  C   LIG    1       -6.564   8.025   3.469  0.00  0.00    -0.190 C 
ENDBRANCH  17  26
ENDBRANCH  15  20
ENDBRANCH   1  15
BRANCH   1  27
ATOM     27  C   LIG    1       -2.997   4.316  -1.329  0.00  0.00    +0.200 C 
ATOM     28  N   LIG    1       -3.384   4.424  -2.391  0.00  0.00    -0.350 NA
ENDBRANCH   1  27
TORSDOF 5
