REMARK  Name = ZINCvU00000003Mw.0
REMARK                            x       y       z     vdW  Elec       q    Type
REMARK                         _______ _______ _______ _____ _____    ______ ____
ROOT
ATOM      1  C   LIG    1        0.052  -0.003   0.008  0.00  0.00    +0.540 C 
ATOM      2  N   LIG    1       -0.016   1.344   0.009  0.00  0.00    -0.660 N 
ATOM      3  H   LIG    1       -0.880   1.785   0.019  0.00  0.00    +0.420 HD
ATOM      4  O   LIG    1        1.127  -0.555  -0.093  0.00  0.00    -0.500 OA
ENDROOT
BRANCH   2   5
ATOM      5  C   LIG    1        1.160   2.104  -0.008  0.00  0.00    +0.150 A 
ATOM      6  C   LIG    1        1.217   3.310   0.678  0.00  0.00    +0.010 A 
ATOM      7  C   LIG    1        2.378   4.059   0.667  0.00  0.00    +0.060 A 
ATOM      8  C   LIG    1        3.485   3.615  -0.038  0.00  0.00    +0.020 A 
ATOM      9  O   LIG    1        4.726   4.161  -0.210  0.00  0.00    -0.290 OA
ATOM     10  C   LIG    1        5.295   3.470  -1.331  0.00  0.00    +0.270 C 
ATOM     11  O   LIG    1        4.635   2.196  -1.337  0.00  0.00    -0.290 OA
ATOM     12  C   LIG    1        6.796   3.288  -1.138  0.00  0.00    +0.060 C 
ATOM     13  C   LIG    1        7.479   4.659  -1.107  0.00  0.00    +0.030 C 
ATOM     14  C   LIG    1        7.202   5.394  -2.420  0.00  0.00    +0.010 C 
ATOM     15  C   LIG    1        5.694   5.590  -2.588  0.00  0.00    +0.030 C 
ATOM     16  C   LIG    1        5.004   4.224  -2.624  0.00  0.00    +0.010 C 
ATOM     17  C   LIG    1        3.429   2.408  -0.732  0.00  0.00    +0.050 A 
ATOM     18  C   LIG    1        2.267   1.656  -0.716  0.00  0.00    +0.050 A 
ENDBRANCH   2   5
BRANCH   1  19
ATOM     19  C   LIG    1       -1.207  -0.821   0.131  0.00  0.00    +0.100 C 
BRANCH  19  20
ATOM     20  S   LIG    1       -0.789  -2.582   0.097  0.00  0.00    +0.090 S 
BRANCH  20  25
ATOM     21  C   LIG    1       -4.896  -5.929   0.503  0.00  0.00    +0.200 C 
ATOM     22  C   LIG    1       -4.064  -4.675   0.418  0.00  0.00    +0.190 A 
ATOM     23  N   LIG    1       -4.508  -3.451   0.456  0.00  0.00    -0.280 NA
ATOM     24  N   LIG    1       -3.529  -2.624   0.359  0.00  0.00    -0.290 NA
ATOM     25  C   LIG    1       -2.398  -3.282   0.254  0.00  0.00    +0.140 A 
ATOM     26  N   LIG    1       -2.705  -4.612   0.282  0.00  0.00    -0.450 N 
BRANCH  26  27
ATOM     27  C   LIG    1       -1.772  -5.737   0.190  0.00  0.00    +0.240 C 
ATOM     28  C   LIG    1       -0.774  -5.670   1.348  0.00  0.00    +0.010 C 
ATOM     29  C   LIG    1        0.200  -6.845   1.251  0.00  0.00    +0.030 C 
ATOM     30  C   LIG    1        0.955  -6.774  -0.078  0.00  0.00    +0.010 C 
ATOM     31  C   LIG    1       -0.042  -6.841  -1.236  0.00  0.00    +0.030 C 
ATOM     32  C   LIG    1       -1.017  -5.666  -1.139  0.00  0.00    +0.010 C 
ENDBRANCH  26  27
ENDBRANCH  20  25
ENDBRANCH  19  20
ENDBRANCH   1  19
TORSDOF 5
