REMARK  Name = ZINCvU0000000IGh.0
REMARK                            x       y       z     vdW  Elec       q    Type
REMARK                         _______ _______ _______ _____ _____    ______ ____
ROOT
ATOM      1  C   LIG    1       -0.508  -2.037  -0.313  0.00  0.00    +0.210 A 
ATOM      2  N   LIG    1       -0.930  -0.806  -0.535  0.00  0.00    -0.410 NA
ATOM      3  C   LIG    1        0.002  -0.004   0.002  0.00  0.00    +0.180 A 
ATOM      4  N   LIG    1        0.929  -0.762   0.509  0.00  0.00    -0.370 NA
ATOM      5  O   LIG    1        0.656  -1.933   0.346  0.00  0.00    +0.100 OA
ENDROOT
BRANCH   1  13
ATOM      6  C   LIG    1       -4.208  -4.246  -2.428  0.00  0.00    -0.020 A 
ATOM      7  C   LIG    1       -4.847  -5.387  -2.803  0.00  0.00    +0.160 A 
ATOM      8  C   LIG    1       -4.309  -6.640  -2.515  0.00  0.00    +0.040 A 
ATOM      9  C   LIG    1       -3.126  -6.758  -1.850  0.00  0.00    +0.120 A 
ATOM     10  C   LIG    1       -2.438  -5.602  -1.447  0.00  0.00    -0.100 A 
ATOM     11  C   LIG    1       -1.213  -5.684  -0.758  0.00  0.00    +0.130 A 
ATOM     12  C   LIG    1       -0.597  -4.523  -0.395  0.00  0.00    +0.020 A 
ATOM     13  C   LIG    1       -1.188  -3.290  -0.713  0.00  0.00    +0.250 A 
ATOM     14  N   LIG    1       -2.339  -3.222  -1.355  0.00  0.00    -0.400 NA
ATOM     15  C   LIG    1       -2.984  -4.325  -1.738  0.00  0.00    +0.170 A 
BRANCH   6  17
ATOM     16  O   LIG    1       -5.859  -2.860  -3.340  0.00  0.00    -0.190 OA
ATOM     17  N   LIG    1       -4.799  -2.926  -2.743  0.00  0.00    +0.020 N 
ATOM     18  O   LIG    1       -4.225  -1.905  -2.406  0.00  0.00    -0.090 OA
ENDBRANCH   6  17
ENDBRANCH   1  13
BRANCH   3  19
ATOM     19  C   LIG    1       -0.018   1.503   0.010  0.00  0.00    +0.220 C 
BRANCH  19  20
ATOM     20  C   LIG    1       -0.724   1.989   1.250  0.00  0.00    -0.100 A 
ATOM     21  C   LIG    1       -2.089   2.206   1.228  0.00  0.00    +0.030 A 
ATOM     22  C   LIG    1       -2.737   2.647   2.367  0.00  0.00    +0.010 A 
ATOM     23  C   LIG    1       -2.018   2.881   3.525  0.00  0.00    -0.070 A 
ATOM     24  C   LIG    1       -0.652   2.669   3.545  0.00  0.00    +0.000 A 
ATOM     25  C   LIG    1       -0.005   2.223   2.408  0.00  0.00    +0.020 A 
BRANCH  23  26
ATOM     26  C   LIG    1       -2.723   3.366   4.765  0.00  0.00    +0.030 C 
ATOM     27  C   LIG    1       -3.779   2.341   5.185  0.00  0.00    +0.010 C 
ATOM     28  C   LIG    1       -4.495   2.834   6.444  0.00  0.00    +0.000 C 
ATOM     29  C   LIG    1       -5.173   4.175   6.154  0.00  0.00    +0.000 C 
ATOM     30  C   LIG    1       -4.117   5.199   5.733  0.00  0.00    +0.000 C 
ATOM     31  C   LIG    1       -3.401   4.707   4.474  0.00  0.00    +0.010 C 
ENDBRANCH  23  26
ENDBRANCH  19  20
ENDBRANCH   3  19
TORSDOF 5
