REMARK  Name = ZINCrD00000760Ss.0
REMARK                            x       y       z     vdW  Elec       q    Type
REMARK                         _______ _______ _______ _____ _____    ______ ____
ROOT
ATOM      1  O   LIG    1       -7.095   0.679  -5.825  0.00  0.00    -0.480 OA
ATOM      2  C   LIG    1       -6.423   1.073  -4.891  0.00  0.00    +0.570 A 
ATOM      3  C   LIG    1       -6.350   0.296  -3.641  0.00  0.00    -0.160 A 
ATOM      4  C   LIG    1       -7.045  -0.903  -3.493  0.00  0.00    +0.130 A 
ATOM      5  C   LIG    1       -6.953  -1.602  -2.307  0.00  0.00    +0.020 A 
ATOM      6  C   LIG    1       -6.176  -1.119  -1.268  0.00  0.00    +0.100 A 
ATOM      7  C   LIG    1       -5.483   0.069  -1.402  0.00  0.00    +0.020 A 
ATOM      8  C   LIG    1       -5.562   0.785  -2.586  0.00  0.00    +0.170 A 
ATOM      9  N   LIG    1       -4.878   1.982  -2.752  0.00  0.00    -0.420 N 
ATOM     10  C   LIG    1       -4.049   2.707  -1.938  0.00  0.00    +0.170 A 
ATOM     11  N   LIG    1       -3.678   3.766  -2.616  0.00  0.00    -0.260 NA
ATOM     12  N   LIG    1       -4.215   3.754  -3.783  0.00  0.00    -0.270 NA
ATOM     13  C   LIG    1       -4.965   2.686  -3.924  0.00  0.00    +0.420 A 
ATOM     14  N   LIG    1       -5.737   2.231  -4.982  0.00  0.00    -0.460 N 
ENDROOT
BRANCH  14  15
ATOM     15  C   LIG    1       -5.796   2.977  -6.165  0.00  0.00    +0.120 A 
ATOM     16  C   LIG    1       -4.874   2.749  -7.178  0.00  0.00    +0.030 A 
ATOM     17  C   LIG    1       -4.938   3.483  -8.346  0.00  0.00    +0.020 A 
ATOM     18  C   LIG    1       -5.912   4.452  -8.503  0.00  0.00    +0.030 A 
ATOM     19  C   LIG    1       -6.827   4.686  -7.493  0.00  0.00    +0.020 A 
ATOM     20  C   LIG    1       -6.772   3.952  -6.325  0.00  0.00    +0.040 A 
ENDBRANCH  14  15
BRANCH  10  21
ATOM     21  S   LIG    1       -3.568   2.292  -0.294  0.00  0.00    +0.040 S 
BRANCH  21  22
ATOM     22  C   LIG    1       -2.477   3.664   0.170  0.00  0.00    +0.110 C 
BRANCH  22  23
ATOM     23  C   LIG    1       -1.966   3.450   1.596  0.00  0.00    +0.170 C 
ATOM     24  C   LIG    1       -1.043   4.615   2.003  0.00  0.00    +0.020 C 
ATOM     25  C   LIG    1       -1.715   5.208   3.265  0.00  0.00    +0.000 C 
ATOM     26  C   LIG    1       -2.599   4.030   3.747  0.00  0.00    +0.200 C 
ATOM     27  O   LIG    1       -3.069   3.437   2.517  0.00  0.00    -0.370 OA
ENDBRANCH  22  23
ENDBRANCH  21  22
ENDBRANCH  10  21
TORSDOF 4
