REMARK  Name = ZINCpk000005EUsx.0
REMARK                            x       y       z     vdW  Elec       q    Type
REMARK                         _______ _______ _______ _____ _____    ______ ____
ROOT
ATOM      1  C   LIG    1       -2.460   5.893   5.069  0.00  0.00    +0.600 C 
ATOM      2  N   LIG    1       -2.750   7.049   4.441  0.00  0.00    -0.600 N 
ATOM      3  C   LIG    1       -2.534   7.136   2.984  0.00  0.00    +0.270 C 
ATOM      4  C   LIG    1       -3.693   7.864   2.272  0.00  0.00    +0.020 C 
ATOM      5  C   LIG    1       -5.015   7.448   2.867  0.00  0.00    +0.020 C 
ATOM      6  C   LIG    1       -5.390   8.411   3.990  0.00  0.00    +0.230 C 
ATOM      7  C   LIG    1       -4.801   8.077   5.295  0.00  0.00    +0.020 C 
ATOM      8  C   LIG    1       -3.256   8.155   5.224  0.00  0.00    +0.300 C 
ATOM      9  O   LIG    1       -1.938   4.982   4.456  0.00  0.00    -0.550 OA
ENDROOT
BRANCH   1  16
ATOM     10  C   LIG    1       -4.575   6.497  12.132  0.00  0.00    +0.030 C 
ATOM     11  C   LIG    1       -3.720   6.066  10.938  0.00  0.00    -0.020 C 
ATOM     12  C   LIG    1       -3.839   4.552  10.744  0.00  0.00    +0.040 C 
ATOM     13  C   LIG    1       -2.805   4.085   9.714  0.00  0.00    +0.290 C 
ATOM     14  N   LIG    1       -2.914   4.927   8.520  0.00  0.00    -0.450 N 
ATOM     15  C   LIG    1       -2.433   4.669   7.287  0.00  0.00    +0.230 A 
ATOM     16  C   LIG    1       -2.774   5.732   6.500  0.00  0.00    -0.070 A 
ATOM     17  N   LIG    1       -3.458   6.614   7.276  0.00  0.00    -0.450 NA
ATOM     18  C   LIG    1       -3.541   6.137   8.479  0.00  0.00    +0.210 A 
ATOM     19  C   LIG    1       -4.211   6.779   9.672  0.00  0.00    +0.160 C 
ENDBRANCH   1  16
BRANCH   6  20
ATOM     20  N   LIG    1       -6.849   8.417   4.125  0.00  0.00    -0.720 N 
ATOM     21  H   LIG    1       -7.360   7.623   3.902  0.00  0.00    +0.400 HD
ATOM     22  C   LIG    1       -7.480   9.525   4.561  0.00  0.00    +0.520 C 
ATOM     23  O   LIG    1       -6.841  10.517   4.840  0.00  0.00    -0.530 OA
BRANCH  22  24
ATOM     24  C   LIG    1       -8.981   9.531   4.701  0.00  0.00    +0.240 C 
BRANCH  24  25
ATOM     25  C   LIG    1       -9.422  10.848   5.190  0.00  0.00    +0.210 C 
ATOM     26  N   LIG    1       -9.763  11.864   5.567  0.00  0.00    -0.410 NA
ENDBRANCH  24  25
ENDBRANCH  22  24
ENDBRANCH   6  20
TORSDOF 4
