REMARK  Name = ZINCpk00000y6zeB.0
REMARK                            x       y       z     vdW  Elec       q    Type
REMARK                         _______ _______ _______ _____ _____    ______ ____
ROOT
ATOM      1  O   LIG    1        3.312  10.310  -0.304  0.00  0.00    -0.590 OA
ATOM      2  C   LIG    1        2.208  10.816  -0.245  0.00  0.00    +0.740 C 
ATOM      3  N   LIG    1        2.085  12.148  -0.079  0.00  0.00    -0.610 N 
ATOM      4  C   LIG    1        0.819  12.902  -0.099  0.00  0.00    +0.250 C 
ATOM      5  C   LIG    1        1.111  14.185   0.723  0.00  0.00    +0.030 C 
ATOM      6  C   LIG    1        2.573  14.494   0.304  0.00  0.00    +0.020 C 
ATOM      7  C   LIG    1        3.192  13.089   0.146  0.00  0.00    +0.250 C 
ATOM      8  N   LIG    1        1.107  10.044  -0.346  0.00  0.00    -0.750 N 
ATOM      9  H   LIG    1        0.226  10.448  -0.299  0.00  0.00    +0.390 HD
ENDROOT
BRANCH   7  10
ATOM     10  C   LIG    1        4.142  13.070  -1.052  0.00  0.00    -0.020 C 
ATOM     11  C   LIG    1        5.275  14.075  -0.823  0.00  0.00    +0.220 C 
ATOM     12  O   LIG    1        6.129  14.098  -1.968  0.00  0.00    -0.380 OA
ATOM     13  C   LIG    1        5.477  14.500  -3.174  0.00  0.00    +0.210 C 
ATOM     14  C   LIG    1        4.353  13.513  -3.498  0.00  0.00    -0.040 C 
ATOM     15  C   LIG    1        3.375  13.459  -2.320  0.00  0.00    +0.170 C 
BRANCH  15  16
ATOM     16  O   LIG    1        2.363  12.485  -2.583  0.00  0.00    -0.550 OA
ATOM     17  H   LIG    1        1.837  12.669  -3.374  0.00  0.00    +0.370 HD
ENDBRANCH  15  16
ENDBRANCH   7  10
BRANCH   8  18
ATOM     18  C   LIG    1        1.241   8.597  -0.526  0.00  0.00    +0.290 C 
BRANCH  18  19
ATOM     19  C   LIG    1       -0.149   7.963  -0.611  0.00  0.00    +0.020 C 
BRANCH  19  20
ATOM     20  C   LIG    1       -0.009   6.451  -0.799  0.00  0.00    +0.270 C 
BRANCH  20  21
ATOM     21  N   LIG    1       -1.340   5.844  -0.881  0.00  0.00    -0.730 N 
ATOM     22  H   LIG    1       -2.131   6.400  -0.814  0.00  0.00    +0.400 HD
BRANCH  21  23
ATOM     23  C   LIG    1       -1.468   4.470  -1.053  0.00  0.00    +0.400 A 
ATOM     24  C   LIG    1       -0.328   3.678  -1.147  0.00  0.00    -0.110 A 
ATOM     25  C   LIG    1       -0.470   2.313  -1.319  0.00  0.00    +0.100 A 
ATOM     26  C   LIG    1       -1.752   1.784  -1.390  0.00  0.00    -0.110 A 
ATOM     27  C   LIG    1       -2.839   2.630  -1.294  0.00  0.00    +0.310 A 
ATOM     28  N   LIG    1       -2.674   3.928  -1.125  0.00  0.00    -0.550 NA
ENDBRANCH  21  23
ENDBRANCH  20  21
ENDBRANCH  19  20
ENDBRANCH  18  19
ENDBRANCH   8  18
TORSDOF 7
