REMARK  Name = ZINCrD000000B0ih.0
REMARK                            x       y       z     vdW  Elec       q    Type
REMARK                         _______ _______ _______ _____ _____    ______ ____
ROOT
ATOM      1  O   LIG    1        4.209  -0.070  -0.038  0.00  0.00    -0.520 OA
ATOM      2  C   LIG    1        3.521   0.933  -0.026  0.00  0.00    +0.610 C 
ATOM      3  N   LIG    1        4.102   2.149  -0.025  0.00  0.00    -0.720 N 
ATOM      4  H   LIG    1        3.553   2.949  -0.016  0.00  0.00    +0.410 HD
ENDROOT
BRANCH   2   5
ATOM      5  C   LIG    1        2.049   0.818  -0.013  0.00  0.00    +0.010 A 
ATOM      6  N   LIG    1        1.184   1.814   0.001  0.00  0.00    -0.250 NA
ATOM      7  N   LIG    1       -0.016   1.356   0.009  0.00  0.00    -0.210 N 
ATOM      8  C   LIG    1        0.002  -0.004   0.002  0.00  0.00    -0.010 A 
ATOM      9  C   LIG    1       -0.895  -1.221   0.004  0.00  0.00    +0.130 C 
ATOM     10  C   LIG    1        0.021  -2.394   0.421  0.00  0.00    +0.050 C 
ATOM     11  C   LIG    1        1.412  -1.886  -0.020  0.00  0.00    +0.110 C 
ATOM     12  C   LIG    1        1.299  -0.381  -0.012  0.00  0.00    -0.150 A 
BRANCH   7  13
ATOM     13  C   LIG    1       -1.175   2.144   0.019  0.00  0.00    +0.120 A 
ATOM     14  C   LIG    1       -2.306   1.727  -0.671  0.00  0.00    +0.020 A 
ATOM     15  C   LIG    1       -3.449   2.502  -0.654  0.00  0.00    +0.040 A 
ATOM     16  C   LIG    1       -3.464   3.698   0.040  0.00  0.00    +0.020 A 
ATOM     17  C   LIG    1       -2.338   4.119   0.723  0.00  0.00    +0.040 A 
ATOM     18  C   LIG    1       -1.194   3.345   0.715  0.00  0.00    +0.040 A 
ENDBRANCH   7  13
ENDBRANCH   2   5
BRANCH   3  19
ATOM     19  C   LIG    1        5.562   2.263  -0.039  0.00  0.00    +0.300 C 
BRANCH  19  20
ATOM     20  C   LIG    1        5.958   3.741  -0.035  0.00  0.00    +0.200 C 
BRANCH  20  21
ATOM     21  O   LIG    1        5.543   4.342   1.193  0.00  0.00    -0.310 OA
BRANCH  21  22
ATOM     22  C   LIG    1        5.821   5.662   1.359  0.00  0.00    +0.120 A 
ATOM     23  C   LIG    1        6.484   6.363   0.362  0.00  0.00    -0.040 A 
ATOM     24  C   LIG    1        6.762   7.705   0.530  0.00  0.00    +0.030 A 
ATOM     25  C   LIG    1        6.387   8.350   1.696  0.00  0.00    +0.060 A 
ATOM     26  C   LIG    1        5.730   7.651   2.695  0.00  0.00    +0.030 A 
ATOM     27  F   LIG    1        6.664   9.662   1.861  0.00  0.00    -0.140 F 
ATOM     28  C   LIG    1        5.447   6.309   2.527  0.00  0.00    +0.020 A 
ENDBRANCH  21  22
ENDBRANCH  20  21
ENDBRANCH  19  20
ENDBRANCH   3  19
TORSDOF 6
