REMARK  Name = ZINCqH0000038Xm7.0
REMARK                            x       y       z     vdW  Elec       q    Type
REMARK                         _______ _______ _______ _____ _____    ______ ____
ROOT
ATOM      1  N   LIG    1       -0.706   1.976   1.219  0.00  0.00    -0.510 NA
ATOM      2  C   LIG    1       -0.123   1.361   2.439  0.00  0.00    +0.170 C 
ATOM      3  C   LIG    1       -0.567   2.324   3.568  0.00  0.00    +0.020 C 
ATOM      4  C   LIG    1       -0.465   3.713   2.898  0.00  0.00    +0.230 C 
ATOM      5  C   LIG    1       -0.540   3.437   1.385  0.00  0.00    +0.180 C 
ENDROOT
BRANCH   4   6
ATOM      6  N   LIG    1       -1.584   4.562   3.316  0.00  0.00    -0.730 N 
ATOM      7  H   LIG    1       -2.405   4.572   2.799  0.00  0.00    +0.400 HD
BRANCH   6   8
ATOM      8  C   LIG    1       -1.468   5.359   4.458  0.00  0.00    +0.220 A 
ATOM      9  C   LIG    1       -0.292   5.345   5.198  0.00  0.00    -0.040 A 
ATOM     10  C   LIG    1       -0.172   6.132   6.329  0.00  0.00    +0.060 A 
ATOM     11  C   LIG    1       -1.219   6.936   6.730  0.00  0.00    +0.000 A 
ATOM     12  C   LIG    1       -2.406   6.957   5.993  0.00  0.00    +0.020 A 
ATOM     13  C   LIG    1       -2.525   6.167   4.849  0.00  0.00    -0.020 A 
BRANCH  12  14
ATOM     14  C   LIG    1       -3.494   7.790   6.407  0.00  0.00    +0.250 C 
ATOM     15  N   LIG    1       -4.357   8.452   6.735  0.00  0.00    -0.420 NA
ENDBRANCH  12  14
ENDBRANCH   6   8
ENDBRANCH   4   6
BRANCH   1  16
ATOM     16  C   LIG    1       -0.018   1.503   0.010  0.00  0.00    +0.290 C 
BRANCH  16  20
ATOM     17  C   LIG    1        1.315  -3.264   0.856  0.00  0.00    +0.360 C 
ATOM     18  N   LIG    1        0.572  -2.101   0.363  0.00  0.00    -0.370 N 
ATOM     19  N   LIG    1        0.889  -0.758   0.600  0.00  0.00    -0.280 NA
ATOM     20  C   LIG    1        0.002  -0.004   0.002  0.00  0.00    +0.080 A 
ATOM     21  C   LIG    1       -0.924  -0.826  -0.639  0.00  0.00    -0.070 A 
ATOM     22  C   LIG    1       -0.553  -2.134  -0.409  0.00  0.00    +0.150 A 
BRANCH  22  23
ATOM     23  C   LIG    1       -1.243  -3.340  -0.900  0.00  0.00    -0.140 A 
ATOM     24  C   LIG    1       -2.299  -3.345  -1.741  0.00  0.00    +0.050 A 
ATOM     25  C   LIG    1       -2.775  -4.600  -2.059  0.00  0.00    +0.020 A 
ATOM     26  C   LIG    1       -2.120  -5.616  -1.488  0.00  0.00    -0.040 A 
ATOM     27  S   LIG    1       -0.815  -4.995  -0.487  0.00  0.00    +0.120 S 
ENDBRANCH  22  23
ENDBRANCH  16  20
ENDBRANCH   1  16
TORSDOF 6
