REMARK  Name = ZINCvU0000000EQ6.0
REMARK                            x       y       z     vdW  Elec       q    Type
REMARK                         _______ _______ _______ _____ _____    ______ ____
ROOT
ATOM      1  O   LIG    1        5.915   2.123   0.093  0.00  0.00    -0.500 OA
ATOM      2  C   LIG    1        5.983   3.337   0.137  0.00  0.00    +0.590 C 
ATOM      3  N   LIG    1        4.856   4.076   0.127  0.00  0.00    -0.660 N 
ATOM      4  H   LIG    1        4.911   5.043   0.086  0.00  0.00    +0.410 HD
ENDROOT
BRANCH   3   5
ATOM      5  C   LIG    1        3.606   3.447   0.176  0.00  0.00    +0.120 A 
ATOM      6  C   LIG    1        2.521   4.003  -0.489  0.00  0.00    +0.040 A 
ATOM      7  C   LIG    1        1.289   3.383  -0.440  0.00  0.00    +0.020 A 
ATOM      8  C   LIG    1        1.134   2.203   0.273  0.00  0.00    +0.110 A 
ATOM      9  C   LIG    1        2.215   1.649   0.942  0.00  0.00    -0.050 A 
ATOM     10  C   LIG    1        3.450   2.266   0.890  0.00  0.00    +0.060 A 
BRANCH   8  11
ATOM     11  O   LIG    1       -0.080   1.593   0.321  0.00  0.00    -0.300 OA
BRANCH  11  12
ATOM     12  C   LIG    1       -0.168   0.381   1.074  0.00  0.00    +0.230 C 
BRANCH  12  13
ATOM     13  C   LIG    1       -1.600  -0.155   1.013  0.00  0.00    +0.470 C 
ATOM     14  F   LIG    1       -2.476   0.793   1.551  0.00  0.00    -0.170 F 
ATOM     15  F   LIG    1       -1.685  -1.341   1.750  0.00  0.00    -0.170 F 
ATOM     16  F   LIG    1       -1.946  -0.407  -0.319  0.00  0.00    -0.170 F 
ENDBRANCH  12  13
ENDBRANCH  11  12
ENDBRANCH   8  11
ENDBRANCH   3   5
BRANCH   2  17
ATOM     17  C   LIG    1        7.298   4.000   0.201  0.00  0.00    -0.220 A 
ATOM     18  C   LIG    1        8.530   3.376   0.218  0.00  0.00    +0.060 A 
ATOM     19  N   LIG    1        9.467   4.340   0.280  0.00  0.00    -0.280 N 
ATOM     20  N   LIG    1        8.824   5.582   0.303  0.00  0.00    -0.240 NA
ATOM     21  C   LIG    1        7.534   5.392   0.251  0.00  0.00    +0.300 A 
BRANCH  19  22
ATOM     22  C   LIG    1       10.854   4.133   0.317  0.00  0.00    +0.080 A 
ATOM     23  C   LIG    1       11.405   3.275   1.257  0.00  0.00    +0.060 A 
ATOM     24  C   LIG    1       12.771   3.069   1.287  0.00  0.00    +0.040 A 
ATOM     25  C   LIG    1       13.591   3.725   0.388  0.00  0.00    +0.080 A 
ATOM     26  C   LIG    1       13.047   4.586  -0.548  0.00  0.00    +0.010 A 
ATOM     27  C   LIG    1       11.680   4.793  -0.587  0.00  0.00    +0.130 A 
ATOM     28  F   LIG    1       11.149   5.634  -1.501  0.00  0.00    -0.120 F 
ENDBRANCH  19  22
BRANCH  18  29
ATOM     29  C   LIG    1        8.779   1.891   0.176  0.00  0.00    +0.540 C 
ATOM     30  F   LIG    1       10.077   1.648  -0.286  0.00  0.00    -0.170 F 
ATOM     31  F   LIG    1        7.857   1.288  -0.686  0.00  0.00    -0.130 F 
ATOM     32  F   LIG    1        8.634   1.357   1.461  0.00  0.00    -0.160 F 
ENDBRANCH  18  29
ENDBRANCH   2  17
TORSDOF 7
