REMARK  Name = ZINCpe00000bflUb.0
REMARK                            x       y       z     vdW  Elec       q    Type
REMARK                         _______ _______ _______ _____ _____    ______ ____
ROOT
ATOM      1  N   LIG    1        1.516   2.343   0.760  0.00  0.00    -0.730 N 
ATOM      2  H   LIG    1        1.698   3.285   0.615  0.00  0.00    +0.400 HD
ATOM      3  C   LIG    1        0.251   1.926   0.965  0.00  0.00    +0.560 C 
ATOM      4  O   LIG    1        0.022   0.746   1.147  0.00  0.00    -0.530 OA
ENDROOT
BRANCH   3   5
ATOM      5  C   LIG    1       -0.860   2.902   0.961  0.00  0.00    -0.140 A 
ATOM      6  C   LIG    1       -0.600   4.257   0.752  0.00  0.00    +0.050 A 
ATOM      7  C   LIG    1       -1.641   5.163   0.750  0.00  0.00    +0.020 A 
ATOM      8  C   LIG    1       -2.939   4.731   0.954  0.00  0.00    +0.060 A 
ATOM      9  C   LIG    1       -3.203   3.388   1.162  0.00  0.00    -0.080 A 
ATOM     10  C   LIG    1       -2.172   2.471   1.161  0.00  0.00    +0.090 A 
BRANCH   9  11
ATOM     11  C   LIG    1       -4.620   2.926   1.384  0.00  0.00    +0.030 C 
ATOM     12  C   LIG    1       -5.014   1.559   0.821  0.00  0.00    +0.090 C 
ATOM     13  C   LIG    1       -4.837   1.743   2.329  0.00  0.00    +0.200 C 
ATOM     14  F   LIG    1       -5.992   1.750   3.119  0.00  0.00    -0.160 F 
ATOM     15  F   LIG    1       -3.705   1.173   2.922  0.00  0.00    -0.150 F 
ENDBRANCH   9  11
ENDBRANCH   3   5
BRANCH   1  16
ATOM     16  C   LIG    1        2.615   1.375   0.757  0.00  0.00    +0.320 C 
BRANCH  16  21
ATOM     17  C   LIG    1        8.216   1.973   0.686  0.00  0.00    +0.100 C 
ATOM     18  C   LIG    1        7.091   2.818   1.226  0.00  0.00    +0.540 C 
ATOM     19  N   LIG    1        5.816   2.397   1.111  0.00  0.00    -0.650 N 
ATOM     20  C   LIG    1        4.506   2.945   1.511  0.00  0.00    +0.330 C 
ATOM     21  C   LIG    1        3.918   2.083   0.379  0.00  0.00    -0.150 C 
ATOM     22  C   LIG    1        5.170   1.201   0.531  0.00  0.00    +0.320 C 
ATOM     23  O   LIG    1        7.334   3.878   1.765  0.00  0.00    -0.540 OA
BRANCH  21  24
ATOM     24  C   LIG    1        3.835   2.796  -0.946  0.00  0.00    +0.550 C 
ATOM     25  O   LIG    1        3.906   4.006  -0.990  0.00  0.00    -0.520 OA
ATOM     26  N   LIG    1        3.682   2.088  -2.083  0.00  0.00    -0.850 N 
ATOM     27  H   LIG    1        3.558   2.549  -2.928  0.00  0.00    +0.410 HD
ATOM     28  H   LIG    1        3.697   1.119  -2.057  0.00  0.00    +0.400 HD
ENDBRANCH  21  24
ENDBRANCH  16  21
ENDBRANCH   1  16
TORSDOF 5
