REMARK  Name = ZINCvU00000005IW.0
REMARK                            x       y       z     vdW  Elec       q    Type
REMARK                         _______ _______ _______ _____ _____    ______ ____
ROOT
ATOM      1  C   LIG    1        2.111   2.410   1.087  0.00  0.00    +0.220 A 
ATOM      2  N   LIG    1        3.278   2.797   0.628  0.00  0.00    -0.260 NA
ATOM      3  N   LIG    1        3.302   2.698  -0.653  0.00  0.00    -0.290 NA
ATOM      4  C   LIG    1        2.153   2.235  -1.091  0.00  0.00    +0.170 A 
ATOM      5  N   LIG    1        1.356   2.032   0.000  0.00  0.00    -0.450 N 
ENDROOT
BRANCH   1  10
ATOM      6  F   LIG    1        0.512   2.299   6.452  0.00  0.00    -0.130 F 
ATOM      7  C   LIG    1        0.898   2.325   5.157  0.00  0.00    +0.110 A 
ATOM      8  C   LIG    1        0.228   1.554   4.221  0.00  0.00    -0.010 A 
ATOM      9  C   LIG    1        0.617   1.578   2.898  0.00  0.00    +0.050 A 
ATOM     10  C   LIG    1        1.689   2.381   2.503  0.00  0.00    -0.020 A 
ATOM     11  C   LIG    1        2.364   3.151   3.451  0.00  0.00    +0.110 A 
ATOM     12  C   LIG    1        1.962   3.124   4.770  0.00  0.00    +0.000 A 
ENDBRANCH   1  10
BRANCH   4  13
ATOM     13  S   LIG    1        1.720   1.933  -2.772  0.00  0.00    +0.060 S 
BRANCH  13  14
ATOM     14  C   LIG    1        3.256   2.434  -3.587  0.00  0.00    +0.200 C 
BRANCH  14  15
ATOM     15  C   LIG    1        3.115   2.256  -5.077  0.00  0.00    +0.030 A 
ATOM     16  N   LIG    1        3.410   1.190  -5.765  0.00  0.00    -0.340 NA
ATOM     17  O   LIG    1        3.189   1.339  -6.944  0.00  0.00    +0.120 OA
ATOM     18  C   LIG    1        2.711   2.569  -7.204  0.00  0.00    +0.020 A 
ATOM     19  C   LIG    1        2.645   3.214  -5.999  0.00  0.00    -0.020 A 
BRANCH  18  20
ATOM     20  C   LIG    1        2.333   3.114  -8.525  0.00  0.00    -0.030 A 
ATOM     21  C   LIG    1        1.844   4.417  -8.632  0.00  0.00    +0.040 A 
ATOM     22  C   LIG    1        1.498   4.921  -9.868  0.00  0.00    +0.010 A 
ATOM     23  C   LIG    1        1.625   4.136 -11.000  0.00  0.00    +0.030 A 
ATOM     24  C   LIG    1        2.104   2.842 -10.900  0.00  0.00    +0.010 A 
ATOM     25  C   LIG    1        2.459   2.327  -9.671  0.00  0.00    +0.040 A 
ENDBRANCH  18  20
ENDBRANCH  14  15
ENDBRANCH  13  14
ENDBRANCH   4  13
BRANCH   5  26
ATOM     26  C   LIG    1       -0.018   1.523   0.011  0.00  0.00    +0.330 C 
BRANCH  26  27
ATOM     27  C   LIG    1        0.005  -0.006   0.061  0.00  0.00    +0.130 C 
ATOM     28  C   LIG    1       -1.431  -0.547   0.198  0.00  0.00    +0.020 C 
ATOM     29  C   LIG    1       -1.614  -1.457  -1.041  0.00  0.00    +0.020 C 
ATOM     30  C   LIG    1       -0.148  -1.766  -1.436  0.00  0.00    +0.200 C 
ATOM     31  O   LIG    1        0.542  -0.527  -1.167  0.00  0.00    -0.350 OA
ENDBRANCH  26  27
ENDBRANCH   5  26
TORSDOF 7
