REMARK  Name = ZINCtV00000L6k9C.0
REMARK                            x       y       z     vdW  Elec       q    Type
REMARK                         _______ _______ _______ _____ _____    ______ ____
ROOT
ATOM      1  C   LIG    1        9.195   0.264   1.512  0.00  0.00    +0.310 A 
ATOM      2  N   LIG    1        7.977   0.709   1.535  0.00  0.00    -0.530 NA
ATOM      3  C   LIG    1        7.509   1.228   0.414  0.00  0.00    +0.110 A 
ATOM      4  C   LIG    1        8.370   1.216  -0.604  0.00  0.00    -0.100 A 
ATOM      5  S   LIG    1        9.874   0.491  -0.041  0.00  0.00    +0.150 S 
ENDROOT
BRANCH   1   6
ATOM      6  N   LIG    1        9.852  -0.311   2.589  0.00  0.00    -0.630 N 
ATOM      7  H   LIG    1        9.434  -0.317   3.465  0.00  0.00    +0.420 HD
BRANCH   6  11
ATOM      8  C   LIG    1       13.620  -2.015   2.065  0.00  0.00    +0.120 A 
ATOM      9  C   LIG    1       13.324  -1.334   3.237  0.00  0.00    +0.020 A 
ATOM     10  C   LIG    1       12.076  -0.769   3.411  0.00  0.00    +0.040 A 
ATOM     11  C   LIG    1       11.117  -0.883   2.413  0.00  0.00    +0.110 A 
ATOM     12  C   LIG    1       11.412  -1.571   1.243  0.00  0.00    +0.010 A 
ATOM     13  C   LIG    1       12.663  -2.130   1.068  0.00  0.00    -0.030 A 
BRANCH   8  15
ATOM     14  C   LIG    1       15.086  -3.258   0.664  0.00  0.00    +0.240 C 
ATOM     15  O   LIG    1       14.850  -2.571   1.894  0.00  0.00    -0.310 OA
ENDBRANCH   8  15
ENDBRANCH   6  11
ENDBRANCH   1   6
BRANCH   3  16
ATOM     16  C   LIG    1        6.114   1.783   0.294  0.00  0.00    +0.190 C 
BRANCH  16  17
ATOM     17  S   LIG    1        6.125   3.542   0.719  0.00  0.00    +0.110 S 
BRANCH  17  18
ATOM     18  C   LIG    1        4.418   3.921   0.500  0.00  0.00    +0.040 A 
ATOM     19  N   LIG    1        3.475   3.108   0.134  0.00  0.00    -0.260 NA
ATOM     20  N   LIG    1        2.194   3.598   0.019  0.00  0.00    -0.300 N 
ATOM     21  C   LIG    1        2.017   4.904   0.295  0.00  0.00    +0.220 A 
ATOM     22  S   LIG    1        0.558   5.797   0.237  0.00  0.00    -0.400 S 
ATOM     23  S   LIG    1        3.632   5.493   0.735  0.00  0.00    +0.150 S 
BRANCH  20  24
ATOM     24  C   LIG    1        1.128   2.780  -0.372  0.00  0.00    +0.100 A 
ATOM     25  C   LIG    1       -0.050   2.774   0.364  0.00  0.00    +0.100 A 
ATOM     26  C   LIG    1       -1.101   1.965  -0.023  0.00  0.00    +0.010 A 
ATOM     27  C   LIG    1       -0.979   1.157  -1.141  0.00  0.00    +0.120 A 
ATOM     28  C   LIG    1        0.193   1.165  -1.879  0.00  0.00    +0.000 A 
ATOM     29  F   LIG    1       -2.006   0.363  -1.514  0.00  0.00    -0.130 F 
ATOM     30  C   LIG    1        1.246   1.972  -1.496  0.00  0.00    +0.080 A 
ENDBRANCH  20  24
ENDBRANCH  17  18
ENDBRANCH  16  17
ENDBRANCH   3  16
TORSDOF 7
