REMARK  Name = ZINCvU0000000Ikk.0
REMARK                            x       y       z     vdW  Elec       q    Type
REMARK                         _______ _______ _______ _____ _____    ______ ____
ROOT
ATOM      1  C   LIG    1        7.798  -0.559   2.957  0.00  0.00    +0.180 A 
ATOM      2  N   LIG    1        8.365   0.407   3.643  0.00  0.00    -0.270 NA
ATOM      3  N   LIG    1        7.635   1.585   3.463  0.00  0.00    -0.350 N 
ATOM      4  C   LIG    1        6.596   1.353   2.646  0.00  0.00    +0.280 A 
ATOM      5  C   LIG    1        6.634   0.023   2.281  0.00  0.00    -0.290 A 
ENDROOT
BRANCH   1  10
ATOM      6  C   LIG    1        9.556  -6.034   2.651  0.00  0.00    +0.090 C 
ATOM      7  C   LIG    1        9.096  -4.601   2.732  0.00  0.00    -0.070 A 
ATOM      8  C   LIG    1        7.744  -4.309   2.709  0.00  0.00    -0.010 A 
ATOM      9  C   LIG    1        7.317  -2.999   2.787  0.00  0.00    +0.090 A 
ATOM     10  C   LIG    1        8.251  -1.968   2.878  0.00  0.00    -0.030 A 
ATOM     11  C   LIG    1        9.612  -2.268   2.901  0.00  0.00    +0.040 A 
ATOM     12  C   LIG    1       10.027  -3.582   2.828  0.00  0.00    -0.100 A 
ATOM     13  C   LIG    1       11.499  -3.908   2.852  0.00  0.00    +0.090 C 
ENDBRANCH   1  10
BRANCH   5  14
ATOM     14  C   LIG    1        5.689  -0.676   1.394  0.00  0.00    +0.600 C 
ATOM     15  N   LIG    1        4.656  -0.004   0.847  0.00  0.00    -0.730 N 
ATOM     16  H   LIG    1        4.535   0.939   1.038  0.00  0.00    +0.390 HD
ATOM     17  O   LIG    1        5.840  -1.859   1.155  0.00  0.00    -0.530 OA
BRANCH  15  18
ATOM     18  C   LIG    1        3.715  -0.700  -0.036  0.00  0.00    +0.290 C 
ATOM     19  C   LIG    1        4.270  -0.715  -1.462  0.00  0.00    +0.040 C 
BRANCH  18  20
ATOM     20  C   LIG    1        2.389   0.016  -0.020  0.00  0.00    -0.050 A 
ATOM     21  C   LIG    1        1.199  -0.695  -0.013  0.00  0.00    -0.020 A 
ATOM     22  C   LIG    1        0.002  -0.004   0.002  0.00  0.00    +0.270 A 
ATOM     23  N   LIG    1       -0.016   1.315   0.009  0.00  0.00    -0.480 NA
ATOM     24  C   LIG    1        1.096   2.023   0.003  0.00  0.00    +0.260 A 
ATOM     25  C   LIG    1        2.330   1.401  -0.013  0.00  0.00    -0.040 A 
ENDBRANCH  18  20
ENDBRANCH  15  18
ENDBRANCH   5  14
BRANCH   3  26
ATOM     26  C   LIG    1        7.954   2.878   4.075  0.00  0.00    +0.380 C 
BRANCH  26  27
ATOM     27  C   LIG    1        8.047   2.716   5.571  0.00  0.00    -0.120 A 
ATOM     28  C   LIG    1        6.923   2.889   6.356  0.00  0.00    +0.020 A 
ATOM     29  C   LIG    1        7.008   2.736   7.728  0.00  0.00    +0.000 A 
ATOM     30  C   LIG    1        8.220   2.420   8.314  0.00  0.00    +0.010 A 
ATOM     31  C   LIG    1        9.345   2.252   7.529  0.00  0.00    +0.010 A 
ATOM     32  C   LIG    1        9.259   2.400   6.157  0.00  0.00    +0.040 A 
ENDBRANCH  26  27
ENDBRANCH   3  26
TORSDOF 6
