REMARK  Name = ZINCtV00000L6jj0.0
REMARK                            x       y       z     vdW  Elec       q    Type
REMARK                         _______ _______ _______ _____ _____    ______ ____
ROOT
ATOM      1 BR   LIG    1       -6.409  -7.399  -0.929  0.00  0.00    -0.040 Br
ATOM      2  C   LIG    1       -5.182  -6.843   0.398  0.00  0.00    -0.120 A 
ATOM      3  C   LIG    1       -5.343  -7.261   1.706  0.00  0.00    +0.100 A 
ATOM      4  C   LIG    1       -4.448  -6.856   2.679  0.00  0.00    -0.200 A 
ATOM      5  C   LIG    1       -3.387  -6.030   2.342  0.00  0.00    +0.170 A 
ATOM      6  C   LIG    1       -3.230  -5.608   1.028  0.00  0.00    -0.100 A 
ATOM      7  O   LIG    1       -2.507  -5.613   3.291  0.00  0.00    -0.310 OA
ATOM      8  C   LIG    1       -2.493  -6.342   4.522  0.00  0.00    +0.390 C 
ATOM      9  O   LIG    1       -3.844  -6.504   4.972  0.00  0.00    -0.370 OA
ATOM     10  C   LIG    1       -4.630  -7.322   4.101  0.00  0.00    +0.300 C 
ATOM     11  C   LIG    1       -4.125  -6.016   0.060  0.00  0.00    +0.120 A 
ENDROOT
BRANCH   8  12
ATOM     12  C   LIG    1       -1.704  -5.577   5.553  0.00  0.00    -0.100 A 
ATOM     13  C   LIG    1       -1.111  -4.375   5.218  0.00  0.00    +0.050 A 
ATOM     14  C   LIG    1       -0.392  -3.671   6.165  0.00  0.00    +0.010 A 
ATOM     15  C   LIG    1       -0.256  -4.175   7.445  0.00  0.00    +0.020 A 
ATOM     16  C   LIG    1       -0.845  -5.380   7.779  0.00  0.00    +0.010 A 
ATOM     17  C   LIG    1       -1.569  -6.081   6.833  0.00  0.00    +0.040 A 
ENDBRANCH   8  12
BRANCH   6  18
ATOM     18  C   LIG    1       -2.079  -4.708   0.659  0.00  0.00    +0.150 C 
BRANCH  18  19
ATOM     19  S   LIG    1       -2.587  -2.975   0.829  0.00  0.00    -0.080 S 
BRANCH  19  20
ATOM     20  C   LIG    1       -1.137  -2.089   0.363  0.00  0.00    -0.080 A 
ATOM     21  C   LIG    1        0.009  -2.779  -0.010  0.00  0.00    +0.000 A 
ATOM     22  C   LIG    1        1.147  -2.085  -0.374  0.00  0.00    +0.050 A 
ATOM     23  C   LIG    1        1.149  -0.698  -0.368  0.00  0.00    +0.050 A 
ATOM     24  O   LIG    1        2.282  -0.031  -0.723  0.00  0.00    -0.310 OA
ATOM     25  C   LIG    1        2.135   1.352  -1.064  0.00  0.00    +0.220 C 
ATOM     26  C   LIG    1        1.254   2.018   0.001  0.00  0.00    +0.220 C 
ATOM     27  O   LIG    1       -0.016   1.357   0.009  0.00  0.00    -0.300 OA
ATOM     28  C   LIG    1        0.002  -0.004   0.002  0.00  0.00    +0.070 A 
ATOM     29  C   LIG    1       -1.139  -0.701   0.368  0.00  0.00    +0.040 A 
ENDBRANCH  19  20
ENDBRANCH  18  19
ENDBRANCH   6  18
TORSDOF 4
