REMARK  Name = ZINCrH000004rRJk.0
REMARK                            x       y       z     vdW  Elec       q    Type
REMARK                         _______ _______ _______ _____ _____    ______ ____
ROOT
ATOM      1  N   LIG    1       -0.511   1.864   1.193  0.00  0.00    -0.560 N 
ATOM      2  C   LIG    1       -0.073   3.015   1.716  0.00  0.00    +0.710 C 
ATOM      3  N   LIG    1       -0.773   3.385   2.803  0.00  0.00    -0.720 N 
ATOM      4  H   LIG    1       -0.633   4.181   3.340  0.00  0.00    +0.440 HD
ATOM      5  C   LIG    1       -1.790   2.342   3.024  0.00  0.00    +0.170 C 
ATOM      6  C   LIG    1       -3.198   2.933   2.924  0.00  0.00    +0.090 C 
ATOM      7  O   LIG    1        0.851   3.657   1.257  0.00  0.00    -0.530 OA
ATOM      8  C   LIG    1       -1.543   1.359   1.897  0.00  0.00    +0.540 C 
ATOM      9  O   LIG    1       -2.149   0.332   1.675  0.00  0.00    -0.430 OA
ENDROOT
BRANCH   5  10
ATOM     10  C   LIG    1       -1.590   1.677   4.362  0.00  0.00    -0.090 A 
ATOM     11  C   LIG    1       -0.628   2.151   5.232  0.00  0.00    +0.070 A 
ATOM     12  C   LIG    1       -0.447   1.545   6.462  0.00  0.00    +0.050 A 
ATOM     13  C   LIG    1       -1.222   0.456   6.816  0.00  0.00    -0.020 A 
ATOM     14  C   LIG    1       -2.182  -0.024   5.942  0.00  0.00    +0.050 A 
ATOM     15 CL   LIG    1       -0.992  -0.310   8.357  0.00  0.00    -0.050 Cl
ATOM     16  C   LIG    1       -2.366   0.587   4.715  0.00  0.00    -0.010 A 
ATOM     17 CL   LIG    1       -3.570  -0.015   3.618  0.00  0.00    -0.020 Cl
ENDBRANCH   5  10
BRANCH   1  18
ATOM     18  C   LIG    1        0.064   1.228   0.005  0.00  0.00    +0.360 C 
BRANCH  18  21
ATOM     19  N   LIG    1       -0.288   1.272  -2.443  0.00  0.00    -0.670 N 
ATOM     20  H   LIG    1        0.480   0.688  -2.535  0.00  0.00    +0.410 HD
ATOM     21  C   LIG    1       -0.651   1.724  -1.226  0.00  0.00    +0.500 C 
ATOM     22  O   LIG    1       -1.552   2.529  -1.121  0.00  0.00    -0.500 OA
BRANCH  19  28
ATOM     23  C   LIG    1       -0.412   2.362  -7.236  0.00  0.00    +0.090 C 
ATOM     24  C   LIG    1       -1.107   2.182  -5.910  0.00  0.00    -0.070 A 
ATOM     25  C   LIG    1       -2.471   2.386  -5.812  0.00  0.00    -0.010 A 
ATOM     26  C   LIG    1       -3.112   2.221  -4.598  0.00  0.00    +0.030 A 
ATOM     27  C   LIG    1       -2.393   1.847  -3.481  0.00  0.00    +0.000 A 
ATOM     28  C   LIG    1       -1.022   1.646  -3.575  0.00  0.00    +0.150 A 
ATOM     29  C   LIG    1       -0.381   1.812  -4.795  0.00  0.00    -0.010 A 
ENDBRANCH  19  28
ENDBRANCH  18  21
ENDBRANCH   1  18
TORSDOF 4
