REMARK  Name = ZINCqH0000038Zmx.2
REMARK                            x       y       z     vdW  Elec       q    Type
REMARK                         _______ _______ _______ _____ _____    ______ ____
ROOT
ATOM      1  C   LIG    1        1.207   1.675  -0.001  0.00  0.00    +0.210 A 
ATOM      2  N   LIG    1       -0.014   1.209   0.009  0.00  0.00    -0.370 NA
ATOM      3  O   LIG    1        0.002  -0.004   0.002  0.00  0.00    +0.100 OA
ATOM      4  C   LIG    1        1.264  -0.445  -0.012  0.00  0.00    +0.200 A 
ATOM      5  N   LIG    1        2.041   0.610  -0.014  0.00  0.00    -0.470 NA
ENDROOT
BRANCH   1  10
ATOM      6  C   LIG    1        1.007   5.429   0.019  0.00  0.00    -0.180 A 
ATOM      7  C   LIG    1        2.346   5.772   0.007  0.00  0.00    +0.100 A 
ATOM      8  C   LIG    1        3.317   4.787  -0.006  0.00  0.00    +0.030 A 
ATOM      9  C   LIG    1        2.953   3.456  -0.009  0.00  0.00    +0.110 A 
ATOM     10  C   LIG    1        1.605   3.105   0.003  0.00  0.00    -0.020 A 
ATOM     11  C   LIG    1        0.631   4.101   0.011  0.00  0.00    +0.110 A 
BRANCH   6  13
ATOM     12  F   LIG    1        0.573   7.763   0.032  0.00  0.00    -0.170 F 
ATOM     13  C   LIG    1       -0.045   6.508   0.034  0.00  0.00    +0.510 C 
ATOM     14  F   LIG    1       -0.832   6.377   1.183  0.00  0.00    -0.170 F 
ATOM     15  F   LIG    1       -0.854   6.386  -1.101  0.00  0.00    -0.170 F 
ENDBRANCH   6  13
ENDBRANCH   1  10
BRANCH   4  16
ATOM     16  C   LIG    1        1.709  -1.884  -0.024  0.00  0.00    +0.350 C 
BRANCH  16  17
ATOM     17  N   LIG    1        1.867  -2.360   1.357  0.00  0.00    -0.530 NA
ATOM     18  C   LIG    1        3.021  -1.709   2.013  0.00  0.00    +0.180 C 
ATOM     19  C   LIG    1        3.599  -2.788   2.964  0.00  0.00    +0.040 C 
ATOM     20  C   LIG    1        3.389  -4.076   2.137  0.00  0.00    -0.110 C 
ATOM     21  C   LIG    1        4.535  -4.261   1.150  0.00  0.00    +0.030 C 
ATOM     22  C   LIG    1        4.332  -5.574   0.385  0.00  0.00    -0.010 C 
ATOM     23  C   LIG    1        4.208  -6.723   1.390  0.00  0.00    +0.200 C 
ATOM     24  O   LIG    1        3.115  -6.469   2.275  0.00  0.00    -0.380 OA
ATOM     25  C   LIG    1        3.265  -5.281   3.058  0.00  0.00    +0.230 C 
ATOM     26  C   LIG    1        2.069  -3.821   1.393  0.00  0.00    +0.220 C 
ENDBRANCH  16  17
ENDBRANCH   4  16
TORSDOF 4
