REMARK  Name = ZINCnE00000dS2Pv.0
REMARK                            x       y       z     vdW  Elec       q    Type
REMARK                         _______ _______ _______ _____ _____    ______ ____
ROOT
ATOM      1  C   LIG    1       -6.041   2.611   0.786  0.00  0.00    +0.070 C 
ATOM      2  C   LIG    1       -6.654   3.863   0.141  0.00  0.00    +0.260 C 
ATOM      3  N   LIG    1       -6.501   4.974   1.095  0.00  0.00    -0.760 N 
ATOM      4  H   LIG    1       -7.220   5.608   1.248  0.00  0.00    +0.400 HD
ATOM      5  C   LIG    1       -5.278   5.086   1.776  0.00  0.00    +0.130 A 
ATOM      6  C   LIG    1       -4.967   6.253   2.458  0.00  0.00    -0.040 A 
ATOM      7  C   LIG    1       -3.764   6.364   3.132  0.00  0.00    +0.000 A 
ATOM      8  C   LIG    1       -2.870   5.312   3.135  0.00  0.00    -0.010 A 
ATOM      9  C   LIG    1       -3.170   4.137   2.448  0.00  0.00    -0.050 A 
ATOM     10  C   LIG    1       -4.383   4.022   1.765  0.00  0.00    +0.090 A 
ATOM     11  O   LIG    1       -4.670   2.876   1.093  0.00  0.00    -0.270 OA
ENDROOT
BRANCH   9  12
ATOM     12  C   LIG    1       -2.206   3.009   2.448  0.00  0.00    -0.030 A 
ATOM     13  C   LIG    1       -1.906   2.355   3.638  0.00  0.00    +0.010 A 
ATOM     14  C   LIG    1       -1.008   1.306   3.632  0.00  0.00    -0.010 A 
ATOM     15  C   LIG    1       -0.413   0.916   2.449  0.00  0.00    -0.010 A 
ATOM     16  C   LIG    1       -0.707   1.566   1.256  0.00  0.00    -0.080 A 
ATOM     17  C   LIG    1       -0.013   1.086   0.008  0.00  0.00    +0.070 C 
ATOM     18  C   LIG    1       -0.741   1.586  -1.238  0.00  0.00    +0.020 C 
ATOM     19  C   LIG    1       -0.941   3.101  -1.105  0.00  0.00    +0.010 C 
ATOM     20  C   LIG    1       -1.971   3.354  -0.006  0.00  0.00    +0.070 C 
ATOM     21  C   LIG    1       -1.601   2.609   1.250  0.00  0.00    -0.030 A 
ENDBRANCH   9  12
BRANCH   1  23
ATOM     22  O   LIG    1       -5.110   0.956  -0.624  0.00  0.00    -0.660 OA
ATOM     23  C   LIG    1       -6.128   1.454  -0.176  0.00  0.00    +0.510 C 
ATOM     24  O   LIG    1       -7.217   1.016  -0.505  0.00  0.00    -0.690 OA
ENDBRANCH   1  23
TORSDOF 2
