REMARK  Name = ZINCnE000001TCO1.0
REMARK                            x       y       z     vdW  Elec       q    Type
REMARK                         _______ _______ _______ _____ _____    ______ ____
ROOT
ATOM      1  C   LIG    1        2.478   1.066  -0.015  0.00  0.00    +0.570 C 
ATOM      2  N   LIG    1        3.634   1.752  -0.124  0.00  0.00    -0.610 N 
ATOM      3  C   LIG    1        3.635   3.221  -0.119  0.00  0.00    +0.260 C 
ATOM      4  C   LIG    1        4.604   3.709   0.963  0.00  0.00    +0.010 C 
ATOM      5  C   LIG    1        5.980   3.080   0.731  0.00  0.00    +0.030 C 
ATOM      6  C   LIG    1        5.870   1.557   0.833  0.00  0.00    +0.020 C 
ATOM      7  C   LIG    1        4.916   1.045  -0.244  0.00  0.00    +0.280 C 
ATOM      8  O   LIG    1        2.498  -0.144   0.086  0.00  0.00    -0.540 OA
ENDROOT
BRANCH   1  12
ATOM      9  C   LIG    1       -1.237   3.141  -0.025  0.00  0.00    -0.110 A 
ATOM     10  C   LIG    1       -1.032   2.079   0.858  0.00  0.00    +0.040 A 
ATOM     11  C   LIG    1        0.173   1.410   0.864  0.00  0.00    +0.040 A 
ATOM     12  C   LIG    1        1.185   1.788  -0.019  0.00  0.00    -0.150 A 
ATOM     13  C   LIG    1        0.980   2.847  -0.904  0.00  0.00    +0.010 A 
ATOM     14  C   LIG    1       -0.223   3.519  -0.908  0.00  0.00    +0.040 A 
BRANCH   9  16
ATOM     15  O   LIG    1       -2.707   4.788  -0.805  0.00  0.00    -0.680 OA
ATOM     16  C   LIG    1       -2.527   3.861  -0.029  0.00  0.00    +0.520 C 
ATOM     17  O   LIG    1       -3.414   3.530   0.744  0.00  0.00    -0.680 OA
ENDBRANCH   9  16
ENDBRANCH   1  12
BRANCH   6  18
ATOM     18  C   LIG    1        7.231   0.940   0.637  0.00  0.00    -0.070 A 
ATOM     19  C   LIG    1        7.917   1.142  -0.546  0.00  0.00    +0.010 A 
ATOM     20  C   LIG    1        9.167   0.580  -0.724  0.00  0.00    +0.000 A 
ATOM     21  C   LIG    1        9.727  -0.192   0.277  0.00  0.00    -0.010 A 
ATOM     22  C   LIG    1        9.039  -0.398   1.458  0.00  0.00    +0.000 A 
ATOM     23  C   LIG    1        7.790   0.168   1.638  0.00  0.00    +0.010 A 
ENDBRANCH   6  18
TORSDOF 3
