REMARK  Name = ZINCpk000000nm3V.0
REMARK                            x       y       z     vdW  Elec       q    Type
REMARK                         _______ _______ _______ _____ _____    ______ ____
ROOT
ATOM      1  N   LIG    1        4.388   7.428  -4.720  0.00  0.00    -0.340 N 
ATOM      2  N   LIG    1        3.593   8.507  -4.312  0.00  0.00    -0.270 NA
ATOM      3  C   LIG    1        3.241   8.343  -3.067  0.00  0.00    +0.320 A 
ATOM      4  C   LIG    1        3.799   7.136  -2.605  0.00  0.00    -0.340 A 
ATOM      5  C   LIG    1        3.774   6.413  -1.334  0.00  0.00    +0.580 A 
ATOM      6  O   LIG    1        3.165   6.846  -0.372  0.00  0.00    -0.490 OA
ATOM      7  N   LIG    1        4.452   5.243  -1.267  0.00  0.00    -0.540 N 
ATOM      8  C   LIG    1        5.128   4.781  -2.349  0.00  0.00    +0.620 A 
ATOM      9  N   LIG    1        5.157   5.408  -3.488  0.00  0.00    -0.530 NA
ATOM     10  C   LIG    1        4.521   6.576  -3.671  0.00  0.00    +0.330 A 
ENDROOT
BRANCH   1  12
ATOM     11  C   LIG    1        4.590   8.432  -6.941  0.00  0.00    +0.080 C 
ATOM     12  C   LIG    1        4.976   7.250  -6.050  0.00  0.00    +0.180 C 
ATOM     13  C   LIG    1        4.454   5.952  -6.669  0.00  0.00    +0.060 C 
ATOM     14  C   LIG    1        6.500   7.180  -5.928  0.00  0.00    +0.060 C 
ENDBRANCH   1  12
BRANCH   7  15
ATOM     15  C   LIG    1        4.461   4.476  -0.019  0.00  0.00    +0.410 C 
BRANCH  15  16
ATOM     16  C   LIG    1        3.300   3.514  -0.012  0.00  0.00    +0.190 A 
ATOM     17  C   LIG    1        3.521   2.153  -0.021  0.00  0.00    -0.120 A 
ATOM     18  C   LIG    1        2.429   1.284  -0.014  0.00  0.00    +0.530 A 
ATOM     19  N   LIG    1        1.161   1.788   0.001  0.00  0.00    -0.470 N 
ATOM     20  C   LIG    1       -0.013   1.076   0.008  0.00  0.00    +0.240 A 
ATOM     21  C   LIG    1       -1.160   1.731   0.017  0.00  0.00    +0.020 A 
ATOM     22  S   LIG    1       -0.725   3.449   0.026  0.00  0.00    +0.190 S 
ATOM     23  C   LIG    1        1.021   3.143   0.009  0.00  0.00    +0.320 A 
ATOM     24  O   LIG    1        2.608   0.076  -0.022  0.00  0.00    -0.520 OA
ATOM     25  N   LIG    1        2.052   3.967   0.003  0.00  0.00    -0.480 NA
ENDBRANCH  15  16
ENDBRANCH   7  15
TORSDOF 3
