REMARK  Name = ZINCrD00000hQ6Nh.2
REMARK                            x       y       z     vdW  Elec       q    Type
REMARK                         _______ _______ _______ _____ _____    ______ ____
ROOT
ATOM      1  C   LIG    1        7.764   4.673  -3.792  0.00  0.00    +0.540 C 
ATOM      2  N   LIG    1        6.833   4.391  -2.859  0.00  0.00    -0.620 N 
ATOM      3  C   LIG    1        6.675   5.081  -1.571  0.00  0.00    +0.240 C 
ATOM      4  C   LIG    1        5.506   4.402  -0.827  0.00  0.00    +0.050 C 
ATOM      5  C   LIG    1        5.436   3.003  -1.494  0.00  0.00    +0.130 C 
ATOM      6  C   LIG    1        5.806   3.338  -2.961  0.00  0.00    +0.270 C 
ATOM      7  O   LIG    1        7.802   4.035  -4.823  0.00  0.00    -0.530 OA
ENDROOT
BRANCH   5   8
ATOM      8  N   LIG    1        4.079   2.446  -1.408  0.00  0.00    -0.530 NA
ATOM      9  C   LIG    1        3.671   2.268  -0.008  0.00  0.00    +0.200 C 
BRANCH   8  10
ATOM     10  C   LIG    1        3.981   1.182  -2.150  0.00  0.00    +0.230 C 
BRANCH  10  11
ATOM     11  C   LIG    1        2.535   0.768  -2.248  0.00  0.00    -0.060 A 
ATOM     12  C   LIG    1        1.978  -0.032  -1.267  0.00  0.00    +0.050 A 
ATOM     13  C   LIG    1        0.652  -0.413  -1.355  0.00  0.00    +0.030 A 
ATOM     14  C   LIG    1       -0.119   0.005  -2.425  0.00  0.00    +0.070 A 
ATOM     15  C   LIG    1        0.440   0.807  -3.409  0.00  0.00    +0.070 A 
ATOM     16  F   LIG    1       -0.310   1.217  -4.455  0.00  0.00    -0.130 F 
ATOM     17  F   LIG    1       -1.415  -0.367  -2.511  0.00  0.00    -0.130 F 
ATOM     18  C   LIG    1        1.768   1.188  -3.318  0.00  0.00    +0.050 A 
ENDBRANCH  10  11
ENDBRANCH   8  10
ENDBRANCH   5   8
BRANCH   1  19
ATOM     19  C   LIG    1        8.757   5.781  -3.555  0.00  0.00    +0.050 C 
BRANCH  19  20
ATOM     20  C   LIG    1        9.694   5.892  -4.760  0.00  0.00    +0.130 C 
BRANCH  20  21
ATOM     21  C   LIG    1       10.703   7.018  -4.519  0.00  0.00    +0.040 C 
ATOM     22  N   LIG    1       11.084   7.334  -3.140  0.00  0.00    -0.120 NA
ATOM     23  N   LIG    1       10.307   8.144  -3.671  0.00  0.00    -0.120 NA
BRANCH  21  24
ATOM     24  C   LIG    1       11.720   7.263  -5.635  0.00  0.00    +0.120 C 
BRANCH  24  25
ATOM     25  C   LIG    1       12.647   8.414  -5.236  0.00  0.00    +0.160 C 
BRANCH  25  27
ATOM     26  C   LIG    1       14.406   8.839  -7.166  0.00  0.00    +0.030 C 
ATOM     27  C   LIG    1       13.625   8.650  -6.310  0.00  0.00    -0.190 C 
ENDBRANCH  25  27
ENDBRANCH  24  25
ENDBRANCH  21  24
ENDBRANCH  20  21
ENDBRANCH  19  20
ENDBRANCH   1  19
TORSDOF 9
