REMARK  Name = ZINCrD00000F5LjP.0
REMARK                            x       y       z     vdW  Elec       q    Type
REMARK                         _______ _______ _______ _____ _____    ______ ____
ROOT
ATOM      1  N   LIG    1        1.151   1.926   0.123  0.00  0.00    -0.680 N 
ATOM      2  H   LIG    1        1.033   2.722   0.664  0.00  0.00    +0.400 HD
ATOM      3  C   LIG    1        0.145   1.487  -0.658  0.00  0.00    +0.710 C 
ATOM      4  N   LIG    1       -1.049   2.113  -0.635  0.00  0.00    -0.630 N 
ATOM      5  C   LIG    1       -1.265   3.263   0.244  0.00  0.00    +0.270 C 
ATOM      6  C   LIG    1       -2.727   3.269   0.691  0.00  0.00    +0.170 C 
ATOM      7  C   LIG    1       -3.570   3.930  -0.369  0.00  0.00    +0.180 A 
ATOM      8  N   LIG    1       -4.502   4.821  -0.180  0.00  0.00    -0.280 NA
ATOM      9  N   LIG    1       -5.057   5.122  -1.300  0.00  0.00    -0.270 NA
ATOM     10  C   LIG    1       -4.492   4.439  -2.273  0.00  0.00    +0.250 A 
ATOM     11  N   LIG    1       -3.510   3.675  -1.705  0.00  0.00    -0.460 N 
ATOM     12  C   LIG    1       -2.587   2.787  -2.410  0.00  0.00    +0.310 C 
ATOM     13  C   LIG    1       -2.151   1.644  -1.488  0.00  0.00    +0.310 C 
ATOM     14  O   LIG    1        0.315   0.529  -1.388  0.00  0.00    -0.560 OA
ENDROOT
BRANCH   1  21
ATOM     15  C   LIG    1        3.559   1.912  -0.069  0.00  0.00    -0.090 A 
ATOM     16  C   LIG    1        4.758   1.227  -0.034  0.00  0.00    +0.020 A 
ATOM     17  C   LIG    1        4.771  -0.135   0.210  0.00  0.00    +0.000 A 
ATOM     18  C   LIG    1        3.586  -0.813   0.425  0.00  0.00    +0.020 A 
ATOM     19  C   LIG    1        2.384  -0.133   0.396  0.00  0.00    -0.070 A 
ATOM     20  C   LIG    1        1.093  -0.873   0.630  0.00  0.00    +0.090 C 
ATOM     21  C   LIG    1        2.367   1.234   0.152  0.00  0.00    +0.150 A 
BRANCH  15  23
ATOM     22  C   LIG    1        3.528   4.155   0.987  0.00  0.00    +0.020 C 
ATOM     23  C   LIG    1        3.545   3.394  -0.340  0.00  0.00    +0.060 C 
ENDBRANCH  15  23
ENDBRANCH   1  21
BRANCH  10  24
ATOM     24  C   LIG    1       -4.851   4.488  -3.707  0.00  0.00    +0.120 A 
ATOM     25  C   LIG    1       -5.841   5.268  -4.191  0.00  0.00    -0.010 A 
ATOM     26  S   LIG    1       -5.922   5.019  -5.933  0.00  0.00    +0.170 S 
ATOM     27  C   LIG    1       -4.637   3.896  -5.846  0.00  0.00    +0.240 A 
ATOM     28  N   LIG    1       -4.232   3.765  -4.631  0.00  0.00    -0.470 NA
ENDBRANCH  10  24
TORSDOF 3
