REMARK  Name = ZINCtV00000L6kze.0
REMARK                            x       y       z     vdW  Elec       q    Type
REMARK                         _______ _______ _______ _____ _____    ______ ____
ROOT
ATOM      1  C   LIG    1        4.962   1.647  -0.164  0.00  0.00    +0.150 A 
ATOM      2  C   LIG    1        4.869   0.264  -0.086  0.00  0.00    +0.160 A 
ATOM      3  C   LIG    1        6.017  -0.502  -0.022  0.00  0.00    -0.650 A 
ATOM      4  C   LIG    1        7.258   0.107  -0.024  0.00  0.00    +0.120 A 
ATOM      5  C   LIG    1        7.356   1.485  -0.096  0.00  0.00    +0.040 A 
ATOM      6  C   LIG    1        6.212   2.257  -0.165  0.00  0.00    -0.020 A 
ATOM      7 CL   LIG    1        6.334   3.986  -0.255  0.00  0.00    -0.050 Cl
ENDROOT
BRANCH   1  10
ATOM      8  O   LIG    1        2.643   0.744  -1.108  0.00  0.00    -0.480 OA
ATOM      9  C   LIG    1        2.651   1.880  -0.675  0.00  0.00    +0.560 C 
ATOM     10  N   LIG    1        3.802   2.425  -0.234  0.00  0.00    -0.660 N 
ATOM     11  H   LIG    1        3.826   3.357   0.036  0.00  0.00    +0.410 HD
BRANCH   9  12
ATOM     12  C   LIG    1        1.400   2.664  -0.633  0.00  0.00    -0.130 A 
ATOM     13  C   LIG    1        1.405   3.969  -0.137  0.00  0.00    +0.080 A 
ATOM     14  C   LIG    1        0.234   4.695  -0.100  0.00  0.00    +0.040 A 
ATOM     15  C   LIG    1       -0.948   4.133  -0.554  0.00  0.00    +0.010 A 
ATOM     16  C   LIG    1       -0.961   2.841  -1.053  0.00  0.00    +0.050 A 
ATOM     17 CL   LIG    1       -2.418   5.054  -0.504  0.00  0.00    -0.040 Cl
ATOM     18  C   LIG    1        0.204   2.102  -1.091  0.00  0.00    +0.030 A 
ATOM     19 CL   LIG    1        0.186   0.480  -1.711  0.00  0.00    -0.010 Cl
ENDBRANCH   9  12
ENDBRANCH   1  10
BRANCH   3  20
ATOM     20  S   LIG    1        5.899  -2.258   0.070  0.00  0.00    +2.690 S 
ATOM     21  O   LIG    1        7.170  -2.766  -0.313  0.00  0.00    -0.940 OA
ATOM     22  O   LIG    1        4.690  -2.614  -0.586  0.00  0.00    -0.930 OA
BRANCH  20  23
ATOM     23  N   LIG    1        5.699  -2.652   1.666  0.00  0.00    -1.060 N 
ATOM     24  H   LIG    1        6.389  -3.150   2.133  0.00  0.00    +0.430 HD
BRANCH  23  25
ATOM     25  C   LIG    1        4.537  -2.270   2.340  0.00  0.00    +0.120 A 
ATOM     26  C   LIG    1        4.573  -1.221   3.250  0.00  0.00    +0.040 A 
ATOM     27  C   LIG    1        3.422  -0.842   3.911  0.00  0.00    +0.030 A 
ATOM     28  C   LIG    1        2.234  -1.512   3.675  0.00  0.00    -0.030 A 
ATOM     29  C   LIG    1        2.196  -2.560   2.772  0.00  0.00    +0.040 A 
ATOM     30 CL   LIG    1        0.789  -1.036   4.512  0.00  0.00    -0.060 Cl
ATOM     31  C   LIG    1        3.343  -2.941   2.105  0.00  0.00    +0.060 A 
ENDBRANCH  23  25
ENDBRANCH  20  23
ENDBRANCH   3  20
TORSDOF 5
