REMARK  Name = ZINCrD0000075bJ2.0
REMARK                            x       y       z     vdW  Elec       q    Type
REMARK                         _______ _______ _______ _____ _____    ______ ____
ROOT
ATOM      1  C   LIG    1        0.661   2.960   6.587  0.00  0.00    +0.240 C 
ENDROOT
BRANCH   1   2
ATOM      2  C   LIG    1        2.115   2.842   6.963  0.00  0.00    +0.400 C 
ATOM      3  O   LIG    1        2.926   2.466   6.143  0.00  0.00    -0.420 OA
BRANCH   2   4
ATOM      4  C   LIG    1        2.551   3.183   8.324  0.00  0.00    -0.160 A 
ATOM      5  C   LIG    1        1.618   3.616   9.272  0.00  0.00    +0.080 A 
ATOM      6  C   LIG    1        2.027   3.935  10.548  0.00  0.00    +0.020 A 
ATOM      7  C   LIG    1        3.368   3.826  10.893  0.00  0.00    +0.100 A 
ATOM      8  O   LIG    1        3.777   4.141  12.154  0.00  0.00    -0.320 OA
ATOM      9  C   LIG    1        4.234   3.049  12.955  0.00  0.00    +0.230 C 
ATOM     10  C   LIG    1        5.699   2.751  12.677  0.00  0.00    -0.010 C 
ATOM     11  C   LIG    1        5.931   2.267  11.254  0.00  0.00    +0.230 C 
ATOM     12  O   LIG    1        5.616   3.294  10.312  0.00  0.00    -0.320 OA
ATOM     13  C   LIG    1        4.302   3.395   9.956  0.00  0.00    +0.050 A 
ATOM     14  C   LIG    1        3.903   3.068   8.677  0.00  0.00    +0.100 A 
ENDBRANCH   2   4
ENDBRANCH   1   2
BRANCH   1  15
ATOM     15  O   LIG    1        0.487   2.570   5.199  0.00  0.00    -0.340 OA
BRANCH  15  16
ATOM     16  C   LIG    1       -0.765   2.620   4.701  0.00  0.00    +0.540 C 
ATOM     17  O   LIG    1       -1.687   2.979   5.409  0.00  0.00    -0.510 OA
BRANCH  16  21
ATOM     18  C   LIG    1       -0.013   1.086   0.008  0.00  0.00    +0.330 C 
ATOM     19  N   LIG    1       -0.698   1.558   1.213  0.00  0.00    -0.470 N 
ATOM     20  C   LIG    1       -0.091   1.818   2.396  0.00  0.00    +0.340 A 
ATOM     21  C   LIG    1       -1.016   2.240   3.306  0.00  0.00    -0.230 A 
ATOM     22  C   LIG    1       -2.317   2.237   2.612  0.00  0.00    -0.060 A 
ATOM     23  C   LIG    1       -3.617   2.560   2.992  0.00  0.00    +0.060 A 
ATOM     24  C   LIG    1       -4.643   2.448   2.079  0.00  0.00    +0.000 A 
ATOM     25  C   LIG    1       -4.384   2.018   0.786  0.00  0.00    +0.030 A 
ATOM     26  C   LIG    1       -3.102   1.696   0.396  0.00  0.00    +0.000 A 
ATOM     27  C   LIG    1       -2.053   1.807   1.302  0.00  0.00    +0.080 A 
ENDBRANCH  16  21
ENDBRANCH  15  16
ENDBRANCH   1  15
TORSDOF 5
