REMARK  Name = ZINCqH00000044o7.0
REMARK                            x       y       z     vdW  Elec       q    Type
REMARK                         _______ _______ _______ _____ _____    ______ ____
ROOT
ATOM      1  N   LIG    1        4.761   0.157   0.542  0.00  0.00    -0.730 N 
ATOM      2  H   LIG    1        4.660   1.122   0.526  0.00  0.00    +0.400 HD
ATOM      3  C   LIG    1        5.858  -0.397   1.095  0.00  0.00    +0.520 C 
ATOM      4  O   LIG    1        5.984  -1.603   1.115  0.00  0.00    -0.520 OA
ENDROOT
BRANCH   1   5
ATOM      5  C   LIG    1        3.721  -0.698  -0.037  0.00  0.00    +0.290 C 
BRANCH   5   6
ATOM      6  C   LIG    1        2.403   0.034  -0.021  0.00  0.00    -0.110 A 
ATOM      7  C   LIG    1        2.379   1.415  -0.013  0.00  0.00    +0.040 A 
ATOM      8  C   LIG    1        1.170   2.086   0.002  0.00  0.00    -0.010 A 
ATOM      9  C   LIG    1       -0.017   1.377   0.010  0.00  0.00    +0.050 A 
ATOM     10  C   LIG    1        0.002  -0.004   0.002  0.00  0.00    -0.040 A 
ATOM     11  C   LIG    1        1.213  -0.680  -0.013  0.00  0.00    +0.120 A 
BRANCH  11  12
ATOM     12  O   LIG    1        1.234  -2.039  -0.021  0.00  0.00    -0.320 OA
BRANCH  12  13
ATOM     13  C   LIG    1       -0.029  -2.707  -0.013  0.00  0.00    +0.590 C 
ATOM     14  F   LIG    1       -0.760  -2.336  -1.147  0.00  0.00    -0.200 F 
ATOM     15  F   LIG    1       -0.739  -2.349   1.138  0.00  0.00    -0.200 F 
ENDBRANCH  12  13
ENDBRANCH  11  12
ENDBRANCH   5   6
BRANCH   5  17
ATOM     16  C   LIG    1        5.365  -1.897  -1.486  0.00  0.00    +0.030 C 
ATOM     17  C   LIG    1        4.092  -1.048  -1.479  0.00  0.00    +0.000 C 
ENDBRANCH   5  17
ENDBRANCH   1   5
BRANCH   3  18
ATOM     18  C   LIG    1        6.927   0.482   1.690  0.00  0.00    +0.040 C 
BRANCH  18  19
ATOM     19  C   LIG    1        8.054  -0.391   2.247  0.00  0.00    +0.300 C 
BRANCH  19  20
ATOM     20  N   LIG    1        9.094   0.464   2.825  0.00  0.00    -0.730 N 
ATOM     21  H   LIG    1        8.992   1.429   2.810  0.00  0.00    +0.400 HD
ATOM     22  C   LIG    1       10.190  -0.090   3.379  0.00  0.00    +0.590 C 
ATOM     23  O   LIG    1       10.317  -1.300   3.398  0.00  0.00    -0.520 OA
BRANCH  22  24
ATOM     24  C   LIG    1       11.231   0.765   3.958  0.00  0.00    -0.270 A 
ATOM     25  C   LIG    1       12.383   0.325   4.545  0.00  0.00    +0.110 A 
ATOM     26  C   LIG    1       13.184   1.343   5.004  0.00  0.00    +0.000 A 
ATOM     27  C   LIG    1       12.705   2.577   4.801  0.00  0.00    -0.050 A 
ATOM     28  S   LIG    1       11.199   2.523   4.001  0.00  0.00    +0.200 S 
ENDBRANCH  22  24
ENDBRANCH  19  20
ENDBRANCH  18  19
ENDBRANCH   3  18
TORSDOF 9
