REMARK  Name = ZINCpk00001AZiEg.1
REMARK                            x       y       z     vdW  Elec       q    Type
REMARK                         _______ _______ _______ _____ _____    ______ ____
ROOT
ATOM      1  N   LIG    1       -4.494   5.818   3.108  0.00  0.00    -0.710 N 
ATOM      2  H   LIG    1       -3.674   6.274   2.862  0.00  0.00    +0.420 HD
ATOM      3  C   LIG    1       -4.447   4.559   3.587  0.00  0.00    +0.500 C 
ATOM      4  O   LIG    1       -5.460   4.023   3.983  0.00  0.00    -0.530 OA
ENDROOT
BRANCH   1   5
ATOM      5  C   LIG    1       -5.783   6.497   2.958  0.00  0.00    +0.180 C 
ATOM      6  C   LIG    1       -5.677   8.032   2.976  0.00  0.00    +0.070 C 
ATOM      7  C   LIG    1       -6.964   8.032   3.818  0.00  0.00    +0.260 C 
ATOM      8  F   LIG    1       -6.957   8.973   4.853  0.00  0.00    -0.180 F 
ATOM      9  F   LIG    1       -8.134   8.074   3.053  0.00  0.00    -0.180 F 
ATOM     10  C   LIG    1       -6.574   6.615   4.271  0.00  0.00    +0.090 C 
BRANCH   5  11
ATOM     11  C   LIG    1       -6.610   5.952   1.791  0.00  0.00    -0.330 C 
BRANCH  11  13
ATOM     12  C   LIG    1       -6.688   5.487  -1.090  0.00  0.00    -0.270 C 
ATOM     13  S   LIG    1       -5.596   5.936   0.287  0.00  0.00    +2.310 S 
ATOM     14  O   LIG    1       -4.880   7.145   0.073  0.00  0.00    -0.880 OA
ATOM     15  N   LIG    1       -4.588   4.844   0.436  0.00  0.00    -1.220 NA
ATOM     16  H   LIG    1       -4.880   3.933   0.591  0.00  0.00    +0.380 HD
ENDBRANCH  11  13
ENDBRANCH   5  11
ENDBRANCH   1   5
BRANCH   3  17
ATOM     17  C   LIG    1       -3.136   3.818   3.631  0.00  0.00    +0.190 C 
BRANCH  17  18
ATOM     18  N   LIG    1       -3.231   2.712   4.593  0.00  0.00    -0.810 NA
ATOM     19  H   LIG    1       -3.959   2.065   4.330  0.00  0.00    +0.350 HD
ATOM     20  H   LIG    1       -3.376   3.058   5.530  0.00  0.00    +0.350 HD
ENDBRANCH  17  18
BRANCH  17  21
ATOM     21  C   LIG    1       -2.818   3.260   2.242  0.00  0.00    +0.220 C 
BRANCH  21  22
ATOM     22  O   LIG    1       -1.522   2.659   2.256  0.00  0.00    -0.370 OA
BRANCH  22  23
ATOM     23  C   LIG    1       -1.126   2.104   1.000  0.00  0.00    +0.220 C 
BRANCH  23  24
ATOM     24  C   LIG    1        0.248   1.499   1.129  0.00  0.00    -0.090 A 
ATOM     25  C   LIG    1        1.368   2.268   0.874  0.00  0.00    +0.020 A 
ATOM     26  C   LIG    1        2.629   1.712   0.986  0.00  0.00    +0.000 A 
ATOM     27  C   LIG    1        2.770   0.387   1.354  0.00  0.00    +0.010 A 
ATOM     28  C   LIG    1        1.650  -0.382   1.609  0.00  0.00    +0.000 A 
ATOM     29  C   LIG    1        0.389   0.174   1.497  0.00  0.00    +0.020 A 
ENDBRANCH  23  24
ENDBRANCH  22  23
ENDBRANCH  21  22
ENDBRANCH  17  21
ENDBRANCH   3  17
TORSDOF 9
