REMARK  Name = ZINCvU0000000I5Z.0
REMARK                            x       y       z     vdW  Elec       q    Type
REMARK                         _______ _______ _______ _____ _____    ______ ____
ROOT
ATOM      1  C   LIG    1        1.337  -1.172   2.135  0.00  0.00    +0.220 A 
ATOM      2  N   LIG    1        1.385  -2.062   1.185  0.00  0.00    -0.270 NA
ATOM      3  N   LIG    1        1.029  -3.211   1.636  0.00  0.00    -0.280 NA
ATOM      4  C   LIG    1        0.722  -3.116   2.909  0.00  0.00    +0.160 A 
ATOM      5  N   LIG    1        0.909  -1.810   3.269  0.00  0.00    -0.420 N 
ENDROOT
BRANCH   5   6
ATOM      6  C   LIG    1        0.703  -1.242   4.535  0.00  0.00    +0.110 A 
ATOM      7  C   LIG    1        1.778  -0.734   5.252  0.00  0.00    +0.050 A 
ATOM      8  C   LIG    1        1.573  -0.172   6.497  0.00  0.00    +0.060 A 
ATOM      9  C   LIG    1        0.299  -0.124   7.034  0.00  0.00    -0.020 A 
ATOM     10  C   LIG    1       -0.773  -0.634   6.324  0.00  0.00    +0.060 A 
ATOM     11 CL   LIG    1        0.045   0.578   8.601  0.00  0.00    -0.050 Cl
ATOM     12  C   LIG    1       -0.574  -1.193   5.077  0.00  0.00    +0.060 A 
ENDBRANCH   5   6
BRANCH   1  14
ATOM     13  C   LIG    1        3.203   0.451   1.946  0.00  0.00    +0.020 C 
ATOM     14  C   LIG    1        1.683   0.290   2.010  0.00  0.00    +0.270 C 
BRANCH  14  15
ATOM     15  N   LIG    1        1.081   0.831   0.783  0.00  0.00    -0.530 NA
ATOM     16  C   LIG    1        1.297   2.281   0.687  0.00  0.00    +0.200 C 
ATOM     17  C   LIG    1        1.600   0.141  -0.406  0.00  0.00    +0.210 C 
ENDBRANCH  14  15
ENDBRANCH   1  14
BRANCH   4  18
ATOM     18  S   LIG    1        0.172  -4.424   3.954  0.00  0.00    +0.030 S 
BRANCH  18  19
ATOM     19  C   LIG    1        0.182  -5.796   2.774  0.00  0.00    +0.220 C 
BRANCH  19  20
ATOM     20  C   LIG    1       -0.267  -7.057   3.466  0.00  0.00    +0.210 A 
ATOM     21  N   LIG    1        0.515  -7.921   4.054  0.00  0.00    -0.460 NA
ATOM     22  C   LIG    1       -0.229  -8.916   4.561  0.00  0.00    +0.160 A 
ATOM     23  C   LIG    1       -1.519  -8.662   4.270  0.00  0.00    +0.140 A 
ATOM     24  N   LIG    1       -1.543  -7.483   3.575  0.00  0.00    -0.440 N 
BRANCH  24  25
ATOM     25  C   LIG    1       -2.733  -6.809   3.049  0.00  0.00    +0.350 C 
BRANCH  25  26
ATOM     26  C   LIG    1       -2.961  -7.236   1.621  0.00  0.00    -0.120 A 
ATOM     27  C   LIG    1       -2.495  -6.452   0.582  0.00  0.00    +0.020 A 
ATOM     28  C   LIG    1       -2.701  -6.846  -0.727  0.00  0.00    +0.010 A 
ATOM     29  C   LIG    1       -3.382  -8.018  -0.997  0.00  0.00    +0.020 A 
ATOM     30  C   LIG    1       -3.852  -8.800   0.042  0.00  0.00    +0.010 A 
ATOM     31  C   LIG    1       -3.642  -8.408   1.351  0.00  0.00    +0.020 A 
ENDBRANCH  25  26
ENDBRANCH  24  25
ENDBRANCH  19  20
ENDBRANCH  18  19
ENDBRANCH   4  18
TORSDOF 8
