REMARK  Name = ZINCrD0000070YbJ.0
REMARK                            x       y       z     vdW  Elec       q    Type
REMARK                         _______ _______ _______ _____ _____    ______ ____
ROOT
ATOM      1  C   LIG    1       -3.356  -1.232  -1.248  0.00  0.00    +0.030 C 
ATOM      2  C   LIG    1       -3.430  -2.601  -0.567  0.00  0.00    +0.070 C 
ATOM      3  C   LIG    1       -4.852  -3.152  -0.693  0.00  0.00    +0.210 C 
ATOM      4  N   LIG    1       -5.209  -3.271  -2.112  0.00  0.00    -0.500 N 
ATOM      5  C   LIG    1       -5.191  -1.960  -2.776  0.00  0.00    +0.200 C 
ATOM      6  C   LIG    1       -3.778  -1.375  -2.712  0.00  0.00    +0.070 C 
ENDROOT
BRANCH   4   7
ATOM      7  C   LIG    1       -6.450  -3.892  -2.267  0.00  0.00    +0.190 A 
ATOM      8  C   LIG    1       -7.599  -3.282  -1.782  0.00  0.00    +0.010 A 
ATOM      9  C   LIG    1       -8.825  -3.900  -1.936  0.00  0.00    +0.150 A 
ATOM     10  C   LIG    1       -8.909  -5.125  -2.572  0.00  0.00    -0.190 A 
ATOM     11  C   LIG    1       -7.766  -5.735  -3.056  0.00  0.00    +0.170 A 
ATOM     12  C   LIG    1       -6.538  -5.121  -2.910  0.00  0.00    -0.030 A 
BRANCH  10  13
ATOM     13  C   LIG    1      -10.248  -5.796  -2.738  0.00  0.00    +0.520 C 
ATOM     14  F   LIG    1      -10.229  -7.038  -2.095  0.00  0.00    -0.170 F 
ATOM     15  F   LIG    1      -10.512  -5.979  -4.099  0.00  0.00    -0.170 F 
ATOM     16  F   LIG    1      -11.245  -4.994  -2.172  0.00  0.00    -0.170 F 
ENDBRANCH  10  13
BRANCH  12  17
ATOM     17  N   LIG    1       -5.317  -5.772  -3.433  0.00  0.00    +0.030 N 
ATOM     18  O   LIG    1       -4.233  -5.231  -3.300  0.00  0.00    -0.090 OA
ATOM     19  O   LIG    1       -5.395  -6.849  -3.998  0.00  0.00    -0.190 OA
ENDBRANCH  12  17
ENDBRANCH   4   7
BRANCH   1  20
ATOM     20  C   LIG    1       -1.943  -0.711  -1.179  0.00  0.00    +0.470 C 
ATOM     21  O   LIG    1       -1.336  -0.478  -2.197  0.00  0.00    -0.500 OA
BRANCH  20  22
ATOM     22  O   LIG    1       -1.360  -0.507   0.012  0.00  0.00    -0.340 OA
BRANCH  22  23
ATOM     23  C   LIG    1        0.002  -0.004   0.002  0.00  0.00    +0.140 C 
ATOM     24  C   LIG    1       -0.019   1.526   0.010  0.00  0.00    +0.080 C 
BRANCH  23  26
ATOM     25  C   LIG    1        2.234  -0.416   1.292  0.00  0.00    +0.080 C 
ATOM     26  C   LIG    1        0.731  -0.503   1.223  0.00  0.00    +0.360 C 
ATOM     27  O   LIG    1        0.111  -0.973   2.146  0.00  0.00    -0.430 OA
ENDBRANCH  23  26
ENDBRANCH  22  23
ENDBRANCH  20  22
ENDBRANCH   1  20
TORSDOF 7
