REMARK  Name = ZINCqH0000005C2F.0
REMARK                            x       y       z     vdW  Elec       q    Type
REMARK                         _______ _______ _______ _____ _____    ______ ____
ROOT
ATOM      1  C   LIG    1       -1.109   8.146   1.240  0.00  0.00    +0.110 A 
ATOM      2  C   LIG    1       -0.439   7.747   0.091  0.00  0.00    +0.070 A 
ATOM      3  C   LIG    1       -0.178   6.409  -0.127  0.00  0.00    +0.020 A 
ATOM      4  C   LIG    1       -0.586   5.463   0.802  0.00  0.00    +0.110 A 
ATOM      5  C   LIG    1       -1.260   5.860   1.948  0.00  0.00    -0.040 A 
ATOM      6  C   LIG    1       -1.516   7.198   2.170  0.00  0.00    +0.030 A 
ENDROOT
BRANCH   1   8
ATOM      7  C   LIG    1       -1.668  10.311   0.423  0.00  0.00    +0.510 C 
ATOM      8  N   LIG    1       -1.375   9.504   1.461  0.00  0.00    -0.660 N 
ATOM      9  H   LIG    1       -1.348   9.863   2.362  0.00  0.00    +0.420 HD
ATOM     10  O   LIG    1       -1.620   9.882  -0.711  0.00  0.00    -0.510 OA
BRANCH   7  11
ATOM     11  C   LIG    1       -2.055  11.746   0.670  0.00  0.00    +0.340 C 
BRANCH  11  13
ATOM     12  C   LIG    1       -2.688  13.704  -0.635  0.00  0.00    +0.650 C 
ATOM     13  N   LIG    1       -2.322  12.407  -0.610  0.00  0.00    -0.700 N 
ATOM     14  H   LIG    1       -2.236  11.911  -1.439  0.00  0.00    +0.420 HD
ATOM     15  O   LIG    1       -2.796  14.325   0.403  0.00  0.00    -0.570 OA
BRANCH  12  17
ATOM     16  C   LIG    1       -3.323  15.710  -1.763  0.00  0.00    +0.310 C 
ATOM     17  O   LIG    1       -2.934  14.312  -1.812  0.00  0.00    -0.370 OA
ENDBRANCH  12  17
ENDBRANCH  11  13
ENDBRANCH   7  11
ENDBRANCH   1   8
BRANCH   4  18
ATOM     18  O   LIG    1       -0.330   4.145   0.587  0.00  0.00    -0.260 OA
BRANCH  18  19
ATOM     19  C   LIG    1       -0.843   3.244   1.465  0.00  0.00    +0.130 A 
ATOM     20  C   LIG    1       -0.091   2.827   2.553  0.00  0.00    +0.020 A 
ATOM     21  C   LIG    1       -0.614   1.906   3.441  0.00  0.00    +0.070 A 
ATOM     22  C   LIG    1       -1.887   1.404   3.248  0.00  0.00    +0.020 A 
ATOM     23  C   LIG    1       -2.641   1.821   2.166  0.00  0.00    +0.090 A 
ATOM     24  C   LIG    1       -2.123   2.742   1.276  0.00  0.00    -0.200 A 
BRANCH  24  25
ATOM     25  C   LIG    1       -2.946   3.196   0.098  0.00  0.00    +0.510 C 
ATOM     26  F   LIG    1       -3.138   4.580   0.169  0.00  0.00    -0.170 F 
ATOM     27  F   LIG    1       -2.276   2.879  -1.088  0.00  0.00    -0.170 F 
ATOM     28  F   LIG    1       -4.187   2.551   0.119  0.00  0.00    -0.180 F 
ENDBRANCH  24  25
ENDBRANCH  18  19
ENDBRANCH   4  18
TORSDOF 7
