REMARK  Name = ZINCrD00000758qm.0
REMARK                            x       y       z     vdW  Elec       q    Type
REMARK                         _______ _______ _______ _____ _____    ______ ____
ROOT
ATOM      1  N   LIG    1       -0.735   2.015   3.821  0.00  0.00    -0.530 NA
ATOM      2  C   LIG    1       -1.315   2.754   2.692  0.00  0.00    +0.190 C 
ATOM      3  C   LIG    1       -0.212   3.091   1.683  0.00  0.00    +0.090 C 
ATOM      4  C   LIG    1        0.485   1.791   1.268  0.00  0.00    -0.090 C 
ATOM      5  C   LIG    1        1.335   1.811  -0.001  0.00  0.00    +0.110 C 
ATOM      6  C   LIG    1        0.961   0.919   2.434  0.00  0.00    +0.090 C 
ATOM      7  C   LIG    1       -0.013   1.086   0.008  0.00  0.00    +0.050 C 
ATOM      8  C   LIG    1       -0.211   0.710   3.400  0.00  0.00    +0.160 C 
ENDROOT
BRANCH   7   9
ATOM      9  C   LIG    1       -1.152   1.725  -0.744  0.00  0.00    +0.210 A 
ATOM     10  N   LIG    1       -1.152   2.916  -1.274  0.00  0.00    -0.280 NA
ATOM     11  N   LIG    1       -2.288   3.135  -1.838  0.00  0.00    -0.260 NA
ATOM     12  C   LIG    1       -3.057   2.083  -1.686  0.00  0.00    +0.200 A 
ATOM     13  O   LIG    1       -2.349   1.167  -0.994  0.00  0.00    -0.220 OA
BRANCH  12  14
ATOM     14  C   LIG    1       -4.440   1.927  -2.186  0.00  0.00    +0.000 A 
ATOM     15  C   LIG    1       -5.048   2.963  -2.896  0.00  0.00    +0.070 A 
ATOM     16  C   LIG    1       -6.339   2.813  -3.360  0.00  0.00    +0.060 A 
ATOM     17  C   LIG    1       -7.031   1.639  -3.123  0.00  0.00    +0.020 A 
ATOM     18  C   LIG    1       -6.434   0.606  -2.418  0.00  0.00    +0.100 A 
ATOM     19  F   LIG    1       -7.115  -0.538  -2.190  0.00  0.00    -0.130 F 
ATOM     20  C   LIG    1       -5.139   0.742  -1.953  0.00  0.00    +0.020 A 
ENDBRANCH  12  14
ENDBRANCH   7   9
BRANCH   1  21
ATOM     21  C   LIG    1       -1.712   1.864   4.908  0.00  0.00    +0.350 C 
BRANCH  21  26
ATOM     22  C   LIG    1        0.599  -0.153   8.866  0.00  0.00    +0.210 C 
ATOM     23  C   LIG    1       -0.202   0.036   7.604  0.00  0.00    +0.170 A 
ATOM     24  N   LIG    1       -0.784  -0.900   6.915  0.00  0.00    -0.380 NA
ATOM     25  O   LIG    1       -1.348  -0.423   5.953  0.00  0.00    +0.070 OA
ATOM     26  C   LIG    1       -1.174   0.902   5.936  0.00  0.00    +0.180 A 
ATOM     27  N   LIG    1       -0.441   1.203   6.980  0.00  0.00    -0.460 NA
ENDBRANCH  21  26
ENDBRANCH   1  21
TORSDOF 4
