REMARK  Name = ZINCnE000001LxaX.0
REMARK                            x       y       z     vdW  Elec       q    Type
REMARK                         _______ _______ _______ _____ _____    ______ ____
ROOT
ATOM      1  N   LIG    1       -5.502   4.763  -3.714  0.00  0.00    -0.680 NA
ATOM      2  C   LIG    1       -4.482   4.334  -3.018  0.00  0.00    +0.440 A 
ATOM      3  N   LIG    1       -3.404   3.636  -3.494  0.00  0.00    -0.540 NA
ATOM      4  N   LIG    1       -2.568   3.397  -2.393  0.00  0.00    -0.290 NA
ATOM      5  C   LIG    1       -3.123   3.912  -1.348  0.00  0.00    +0.080 A 
ATOM      6  O   LIG    1       -4.290   4.494  -1.693  0.00  0.00    -0.300 OA
ENDROOT
BRANCH   1   7
ATOM      7  C   LIG    1       -5.564   4.507  -5.155  0.00  0.00    +0.240 C 
BRANCH   7  12
ATOM      8  C   LIG    1       -9.043   3.303  -6.006  0.00  0.00    +0.110 A 
ATOM      9  C   LIG    1       -8.866   1.927  -6.004  0.00  0.00    -0.100 A 
ATOM     10  C   LIG    1       -7.622   1.393  -5.727  0.00  0.00    +0.030 A 
ATOM     11  C   LIG    1       -6.554   2.228  -5.458  0.00  0.00    -0.020 A 
ATOM     12  C   LIG    1       -6.729   3.600  -5.455  0.00  0.00    -0.010 A 
ATOM     13  C   LIG    1       -7.970   4.139  -5.731  0.00  0.00    -0.010 A 
BRANCH   8  15
ATOM     14  C   LIG    1      -11.323   2.911  -6.553  0.00  0.00    +0.220 C 
ATOM     15  O   LIG    1      -10.265   3.832  -6.279  0.00  0.00    -0.320 OA
ENDBRANCH   8  15
ENDBRANCH   7  12
ENDBRANCH   1   7
BRANCH   5  16
ATOM     16  C   LIG    1       -2.552   3.874   0.046  0.00  0.00    +0.210 C 
BRANCH  16  17
ATOM     17  C   LIG    1       -1.238   3.137   0.030  0.00  0.00    -0.090 A 
ATOM     18  C   LIG    1       -0.050   3.842   0.023  0.00  0.00    +0.050 A 
ATOM     19  C   LIG    1        1.156   3.166   0.007  0.00  0.00    +0.000 A 
ATOM     20  C   LIG    1        1.175   1.783   0.000  0.00  0.00    +0.030 A 
ATOM     21  C   LIG    1       -0.013   1.076   0.008  0.00  0.00    -0.030 A 
ATOM     22  C   LIG    1       -1.221   1.752   0.017  0.00  0.00    +0.120 A 
ATOM     23  F   LIG    1       -2.382   1.061   0.019  0.00  0.00    -0.140 F 
ENDBRANCH  16  17
ENDBRANCH   5  16
TORSDOF 5
