REMARK  Name = ZINCpk000000mCTb.0
REMARK                            x       y       z     vdW  Elec       q    Type
REMARK                         _______ _______ _______ _____ _____    ______ ____
ROOT
ATOM      1  C   LIG    1       -6.556  -1.037   3.261  0.00  0.00    -0.110 A 
ATOM      2  C   LIG    1       -5.724  -0.501   2.319  0.00  0.00    +0.320 A 
ATOM      3  N   LIG    1       -6.498  -0.134   1.278  0.00  0.00    -0.350 N 
ATOM      4  N   LIG    1       -7.818  -0.465   1.617  0.00  0.00    -0.060 NA
ATOM      5  N   LIG    1       -7.814  -0.999   2.789  0.00  0.00    -0.200 NA
ENDROOT
BRANCH   1   8
ATOM      6  N   LIG    1       -7.066  -2.078   5.414  0.00  0.00    -0.710 N 
ATOM      7  H   LIG    1       -8.001  -2.088   5.160  0.00  0.00    +0.410 HD
ATOM      8  C   LIG    1       -6.143  -1.574   4.571  0.00  0.00    +0.610 C 
ATOM      9  O   LIG    1       -4.970  -1.562   4.891  0.00  0.00    -0.530 OA
BRANCH   6  10
ATOM     10  C   LIG    1       -6.654  -2.617   6.713  0.00  0.00    +0.370 C 
ATOM     11  C   LIG    1       -6.567  -1.479   7.732  0.00  0.00    +0.040 C 
BRANCH  10  13
ATOM     12  C   LIG    1       -8.430  -4.399   7.531  0.00  0.00    +0.060 C 
ATOM     13  C   LIG    1       -7.642  -3.609   7.168  0.00  0.00    -0.210 C 
ENDBRANCH  10  13
ENDBRANCH   6  10
ENDBRANCH   1   8
BRANCH   3  14
ATOM     14  C   LIG    1       -6.047   0.489   0.031  0.00  0.00    +0.340 C 
BRANCH  14  15
ATOM     15  C   LIG    1       -6.500  -0.361  -1.157  0.00  0.00    +0.240 C 
ATOM     16  C   LIG    1       -8.044  -0.328  -1.286  0.00  0.00    +0.050 C 
ATOM     17  C   LIG    1       -8.238  -0.657  -2.790  0.00  0.00    +0.040 C 
ATOM     18  C   LIG    1       -7.034   0.041  -3.455  0.00  0.00    +0.270 C 
ATOM     19  N   LIG    1       -6.004   0.216  -2.420  0.00  0.00    -0.600 N 
ATOM     20  C   LIG    1       -4.805   0.806  -2.596  0.00  0.00    +0.670 C 
ATOM     21  O   LIG    1       -3.992   0.811  -1.693  0.00  0.00    -0.570 OA
BRANCH  20  22
ATOM     22  O   LIG    1       -4.509   1.390  -3.772  0.00  0.00    -0.360 OA
BRANCH  22  23
ATOM     23  C   LIG    1       -3.199   2.006  -3.891  0.00  0.00    +0.140 C 
ATOM     24  C   LIG    1       -3.056   3.107  -2.838  0.00  0.00    +0.040 C 
ATOM     25  C   LIG    1       -3.046   2.613  -5.287  0.00  0.00    +0.080 C 
ATOM     26  C   LIG    1       -2.116   0.948  -3.672  0.00  0.00    +0.040 C 
ENDBRANCH  22  23
ENDBRANCH  20  22
ENDBRANCH  14  15
ENDBRANCH   3  14
TORSDOF 7
