REMARK  Name = ZINCrH000004mZMq.0
REMARK                            x       y       z     vdW  Elec       q    Type
REMARK                         _______ _______ _______ _____ _____    ______ ____
ROOT
ATOM      1  N   LIG    1        0.140  -4.257  -0.124  0.00  0.00    -0.710 N 
ATOM      2  H   LIG    1        1.006  -4.685  -0.209  0.00  0.00    +0.390 HD
ATOM      3  C   LIG    1        0.059  -2.916  -0.014  0.00  0.00    +0.570 C 
ATOM      4  O   LIG    1       -1.027  -2.379   0.091  0.00  0.00    -0.520 OA
ENDROOT
BRANCH   3   5
ATOM      5  C   LIG    1        1.290  -2.097  -0.022  0.00  0.00    -0.070 A 
ATOM      6  C   LIG    1        2.546  -2.690  -0.020  0.00  0.00    +0.010 A 
ATOM      7  C   LIG    1        3.685  -1.888  -0.027  0.00  0.00    +0.150 A 
ATOM      8  N   LIG    1        3.611  -0.581  -0.036  0.00  0.00    -0.450 NA
ATOM      9  C   LIG    1        2.438   0.058  -0.038  0.00  0.00    +0.130 A 
ATOM     10  C   LIG    1        2.379   1.464  -0.047  0.00  0.00    +0.050 A 
ATOM     11  C   LIG    1        1.170   2.089  -0.050  0.00  0.00    +0.040 A 
ATOM     12  C   LIG    1       -0.017   1.359  -0.043  0.00  0.00    -0.080 A 
ATOM     13  C   LIG    1        0.002  -0.004  -0.034  0.00  0.00    +0.060 A 
ATOM     14  C   LIG    1       -1.337   2.085  -0.052  0.00  0.00    +0.090 C 
ATOM     15  C   LIG    1        5.042  -2.544  -0.025  0.00  0.00    +0.130 C 
ATOM     16  C   LIG    1        1.228  -0.680  -0.031  0.00  0.00    -0.060 A 
ENDBRANCH   3   5
BRANCH   1  17
ATOM     17  C   LIG    1       -1.080  -5.067  -0.117  0.00  0.00    +0.210 C 
ATOM     18  C   LIG    1       -1.490  -5.358   1.328  0.00  0.00    +0.040 C 
BRANCH  17  19
ATOM     19  C   LIG    1       -0.821  -6.386  -0.848  0.00  0.00    +0.280 C 
BRANCH  19  23
ATOM     20  C   LIG    1        0.658  -5.570  -4.774  0.00  0.00    +0.130 A 
ATOM     21  C   LIG    1       -0.696  -5.793  -4.574  0.00  0.00    -0.020 A 
ATOM     22  C   LIG    1       -1.172  -6.057  -3.304  0.00  0.00    +0.060 A 
ATOM     23  C   LIG    1       -0.299  -6.098  -2.232  0.00  0.00    -0.160 A 
ATOM     24  C   LIG    1        1.050  -5.871  -2.428  0.00  0.00    +0.050 A 
ATOM     25  C   LIG    1        1.532  -5.613  -3.697  0.00  0.00    -0.070 A 
BRANCH  20  27
ATOM     26  C   LIG    1        2.535  -5.092  -6.153  0.00  0.00    +0.250 C 
ATOM     27  O   LIG    1        1.129  -5.311  -6.022  0.00  0.00    -0.320 OA
ENDBRANCH  20  27
ENDBRANCH  19  23
BRANCH  19  28
ATOM     28  O   LIG    1        0.146  -7.150  -0.124  0.00  0.00    -0.540 OA
ATOM     29  H   LIG    1        1.000  -6.708  -0.021  0.00  0.00    +0.370 HD
ENDBRANCH  19  28
ENDBRANCH  17  19
ENDBRANCH   1  17
TORSDOF 6
