REMARK  Name = ZINCvU00000008KH.0
REMARK                            x       y       z     vdW  Elec       q    Type
REMARK                         _______ _______ _______ _____ _____    ______ ____
ROOT
ATOM      1  C   LIG    1        8.373   1.431  -1.207  0.00  0.00    +0.100 A 
ATOM      2  C   LIG    1        7.120   0.938  -0.901  0.00  0.00    +0.040 A 
ATOM      3  C   LIG    1        6.064   1.821  -0.660  0.00  0.00    -0.130 A 
ATOM      4  C   LIG    1        6.284   3.200  -0.717  0.00  0.00    +0.050 A 
ATOM      5  C   LIG    1        7.539   3.685  -1.016  0.00  0.00    -0.040 A 
ATOM      6  C   LIG    1        8.586   2.808  -1.262  0.00  0.00    +0.130 A 
ENDROOT
BRANCH   3   7
ATOM      7  C   LIG    1        4.721   1.300  -0.339  0.00  0.00    +0.560 C 
ATOM      8  N   LIG    1        3.629   2.043  -0.603  0.00  0.00    -0.540 N 
ATOM      9  O   LIG    1        4.601   0.199   0.164  0.00  0.00    -0.510 OA
BRANCH   8  10
ATOM     10  C   LIG    1        2.365   1.601  -0.193  0.00  0.00    +0.120 A 
ATOM     11  C   LIG    1        1.220   2.265  -0.631  0.00  0.00    +0.000 A 
ATOM     12  C   LIG    1       -0.029   1.843  -0.236  0.00  0.00    +0.010 A 
ATOM     13  C   LIG    1       -0.159   0.745   0.606  0.00  0.00    +0.070 A 
ATOM     14  N   LIG    1       -1.244   0.100   1.161  0.00  0.00    -0.600 N 
ATOM     15  H   LIG    1       -2.171   0.351   1.024  0.00  0.00    +0.410 HD
ATOM     16  C   LIG    1       -0.819  -0.948   1.931  0.00  0.00    +0.220 A 
ATOM     17  C   LIG    1        0.521  -1.020   1.906  0.00  0.00    -0.050 A 
ATOM     18  C   LIG    1        0.994   0.070   1.050  0.00  0.00    -0.090 A 
ATOM     19  C   LIG    1        2.256   0.506   0.644  0.00  0.00    +0.060 A 
ENDBRANCH   8  10
BRANCH   8  20
ATOM     20  C   LIG    1        3.763   3.314  -1.320  0.00  0.00    +0.270 C 
ATOM     21  C   LIG    1        3.516   4.473  -0.353  0.00  0.00    +0.040 C 
ENDBRANCH   8  20
ENDBRANCH   3   7
BRANCH   1  22
ATOM     22  O   LIG    1        9.401   0.574  -1.448  0.00  0.00    -0.300 OA
BRANCH  22  24
ATOM     23  C   LIG    1       10.381  -1.624  -1.673  0.00  0.00    +0.070 C 
ATOM     24  C   LIG    1        9.111  -0.824  -1.375  0.00  0.00    +0.180 C 
ENDBRANCH  22  24
ENDBRANCH   1  22
BRANCH   6  25
ATOM     25  O   LIG    1        9.820   3.292  -1.556  0.00  0.00    -0.290 OA
BRANCH  25  26
ATOM     26  C   LIG    1        9.968   4.712  -1.596  0.00  0.00    +0.260 C 
BRANCH  26  27
ATOM     27  C   LIG    1       11.394   5.060  -1.936  0.00  0.00    -0.050 A 
ATOM     28  C   LIG    1       12.340   5.233  -0.936  0.00  0.00    -0.010 A 
ATOM     29  C   LIG    1       13.639   5.547  -1.286  0.00  0.00    +0.260 A 
ATOM     30  N   LIG    1       13.982   5.691  -2.551  0.00  0.00    -0.480 NA
ATOM     31  C   LIG    1       13.108   5.538  -3.528  0.00  0.00    +0.260 A 
ATOM     32  C   LIG    1       11.791   5.219  -3.255  0.00  0.00    -0.010 A 
ENDBRANCH  26  27
ENDBRANCH  25  26
ENDBRANCH   6  25
TORSDOF 8
