REMARK  Name = ZINCvU0000000GHj.0
REMARK                            x       y       z     vdW  Elec       q    Type
REMARK                         _______ _______ _______ _____ _____    ______ ____
ROOT
ATOM      1  C   LIG    1       -0.744   1.554   1.263  0.00  0.00    +0.100 C 
ENDROOT
BRANCH   1   2
ATOM      2  C   LIG    1        0.005   1.099   0.009  0.00  0.00    +0.210 C 
BRANCH   2   3
ATOM      3  O   LIG    1       -0.698   1.567  -1.172  0.00  0.00    -0.330 OA
BRANCH   3   4
ATOM      4  C   LIG    1       -0.165   1.249  -2.367  0.00  0.00    +0.530 C 
ATOM      5  O   LIG    1        0.859   0.598  -2.421  0.00  0.00    -0.490 OA
BRANCH   4  12
ATOM      6  C   LIG    1       -4.592   4.372  -8.119  0.00  0.00    +0.030 C 
ATOM      7  C   LIG    1       -3.748   4.098  -6.873  0.00  0.00    -0.020 C 
ATOM      8  C   LIG    1       -4.659   3.670  -5.716  0.00  0.00    +0.030 C 
ATOM      9  C   LIG    1       -3.829   3.639  -4.434  0.00  0.00    +0.110 C 
ATOM     10  C   LIG    1       -2.576   2.825  -4.633  0.00  0.00    +0.130 A 
ATOM     11  N   LIG    1       -1.943   2.402  -3.551  0.00  0.00    -0.440 NA
ATOM     12  C   LIG    1       -0.827   1.693  -3.615  0.00  0.00    +0.090 A 
ATOM     13  C   LIG    1       -0.269   1.366  -4.849  0.00  0.00    +0.040 A 
ATOM     14  C   LIG    1       -0.911   1.786  -6.001  0.00  0.00    +0.060 A 
ATOM     15  C   LIG    1       -2.083   2.526  -5.888  0.00  0.00    -0.090 A 
ATOM     16  C   LIG    1       -2.765   2.964  -7.157  0.00  0.00    +0.090 C 
ENDBRANCH   4  12
ENDBRANCH   3   4
ENDBRANCH   2   3
ENDBRANCH   1   2
BRANCH   1  17
ATOM     17  C   LIG    1       -0.064   0.971   2.503  0.00  0.00    +0.140 C 
BRANCH  17  18
ATOM     18  C   LIG    1       -0.836   1.372   3.734  0.00  0.00    -0.080 A 
ATOM     19  C   LIG    1       -1.895   2.253   3.629  0.00  0.00    +0.020 A 
ATOM     20  C   LIG    1       -2.606   2.617   4.758  0.00  0.00    +0.010 A 
ATOM     21  C   LIG    1       -2.251   2.107   5.992  0.00  0.00    +0.020 A 
ATOM     22  C   LIG    1       -1.188   1.230   6.098  0.00  0.00    +0.010 A 
ATOM     23  C   LIG    1       -0.480   0.862   4.969  0.00  0.00    +0.020 A 
ENDBRANCH  17  18
BRANCH  17  24
ATOM     24  C   LIG    1        1.344   1.500   2.599  0.00  0.00    -0.080 A 
ATOM     25  C   LIG    1        2.417   0.637   2.475  0.00  0.00    +0.010 A 
ATOM     26  C   LIG    1        3.708   1.123   2.558  0.00  0.00    +0.020 A 
ATOM     27  C   LIG    1        3.927   2.471   2.775  0.00  0.00    +0.020 A 
ATOM     28  C   LIG    1        2.854   3.333   2.904  0.00  0.00    +0.020 A 
ATOM     29  C   LIG    1        1.563   2.848   2.816  0.00  0.00    +0.040 A 
ENDBRANCH  17  24
BRANCH  17  30
ATOM     30  C   LIG    1       -0.030  -0.497   2.401  0.00  0.00    +0.210 C 
ATOM     31  N   LIG    1       -0.005  -1.630   2.322  0.00  0.00    -0.410 NA
ENDBRANCH  17  30
ENDBRANCH   1  17
TORSDOF 8
