REMARK  Name = ZINC650000002wCa.0
REMARK                            x       y       z     vdW  Elec       q    Type
REMARK                         _______ _______ _______ _____ _____    ______ ____
ROOT
ATOM      1  C   LIG    1       -0.753   1.593  -1.232  0.00  0.00    +0.180 C 
ATOM      2  C   LIG    1        0.031   1.205  -2.487  0.00  0.00    +0.140 C 
ENDROOT
BRANCH   1   3
ATOM      3  N   LIG    1       -0.877   3.055  -1.164  0.00  0.00    -0.650 N 
ATOM      4  H   LIG    1        0.042   3.469  -1.128  0.00  0.00    +0.450 HD
ATOM      5  H   LIG    1       -1.394   3.310  -0.336  0.00  0.00    +0.420 HD
ATOM      6  H   LIG    1       -1.365   3.389  -1.981  0.00  0.00    +0.460 HD
ENDBRANCH   1   3
BRANCH   1   7
ATOM      7  C   LIG    1       -0.013   1.086   0.008  0.00  0.00    +0.300 C 
BRANCH   7   9
ATOM      8  C   LIG    1        0.010   1.073   2.407  0.00  0.00    +0.360 C 
ATOM      9  N   LIG    1       -0.700   1.560   1.217  0.00  0.00    -0.520 N 
ATOM     10  H   LIG    1       -1.647   1.210   1.224  0.00  0.00    +0.440 HD
ATOM     11  H   LIG    1       -0.714   2.568   1.222  0.00  0.00    +0.420 HD
ENDBRANCH   7   9
ENDBRANCH   1   7
TORSDOF 3
