REMARK  Name = ZINCvU00000005x8.0
REMARK                            x       y       z     vdW  Elec       q    Type
REMARK                         _______ _______ _______ _____ _____    ______ ____
ROOT
ATOM      1  C   LIG    1        1.842  -4.972   4.130  0.00  0.00    +0.360 A 
ATOM      2  N   LIG    1        0.777  -5.380   3.482  0.00  0.00    -0.510 NA
ATOM      3  C   LIG    1        0.473  -6.688   3.378  0.00  0.00    +0.090 A 
ATOM      4  C   LIG    1        1.296  -7.638   3.978  0.00  0.00    -0.230 A 
ATOM      5  C   LIG    1        0.812  -8.990   3.769  0.00  0.00    -0.030 A 
ATOM      6  C   LIG    1       -0.297  -9.078   3.062  0.00  0.00    -0.200 A 
ATOM      7  C   LIG    1        1.524 -10.201   4.316  0.00  0.00    +0.120 C 
ATOM      8  C   LIG    1        2.447  -7.176   4.684  0.00  0.00    +0.570 A 
ATOM      9  O   LIG    1        3.200  -7.967   5.226  0.00  0.00    -0.510 OA
ATOM     10  S   LIG    1       -0.870  -7.494   2.575  0.00  0.00    +0.190 S 
ATOM     11  N   LIG    1        2.688  -5.852   4.740  0.00  0.00    -0.510 N 
ENDROOT
BRANCH   6  12
ATOM     12  C   LIG    1       -0.986 -10.373   2.717  0.00  0.00    +0.120 C 
ATOM     13  C   LIG    1       -1.997 -10.720   3.812  0.00  0.00    +0.030 C 
ENDBRANCH   6  12
BRANCH   1  14
ATOM     14  S   LIG    1        2.184  -3.246   4.223  0.00  0.00    +0.100 S 
BRANCH  14  15
ATOM     15  C   LIG    1        0.785  -2.597   3.275  0.00  0.00    +0.100 C 
BRANCH  15  18
ATOM     16  N   LIG    1       -0.072  -0.389   2.561  0.00  0.00    -0.720 N 
ATOM     17  H   LIG    1       -0.805  -0.850   2.124  0.00  0.00    +0.400 HD
ATOM     18  C   LIG    1        0.870  -1.093   3.219  0.00  0.00    +0.530 C 
ATOM     19  O   LIG    1        1.787  -0.517   3.766  0.00  0.00    -0.520 OA
BRANCH  16  20
ATOM     20  C   LIG    1        0.011   1.072   2.506  0.00  0.00    +0.230 C 
ATOM     21  C   LIG    1       -0.630   1.667   3.762  0.00  0.00    +0.020 C 
BRANCH  20  22
ATOM     22  C   LIG    1       -0.729   1.579   1.267  0.00  0.00    +0.020 C 
BRANCH  22  24
ATOM     23  C   LIG    1       -0.753   1.593  -1.232  0.00  0.00    +0.020 C 
ATOM     24  C   LIG    1       -0.013   1.086   0.008  0.00  0.00    -0.010 C 
ENDBRANCH  22  24
ENDBRANCH  20  22
ENDBRANCH  16  20
ENDBRANCH  15  18
ENDBRANCH  14  15
ENDBRANCH   1  14
BRANCH  11  25
ATOM     25  C   LIG    1        3.864  -5.355   5.458  0.00  0.00    +0.360 C 
BRANCH  25  26
ATOM     26  C   LIG    1        3.501  -5.096   6.898  0.00  0.00    -0.130 A 
ATOM     27  C   LIG    1        3.035  -3.852   7.280  0.00  0.00    +0.040 A 
ATOM     28  C   LIG    1        2.697  -3.615   8.599  0.00  0.00    +0.010 A 
ATOM     29  C   LIG    1        2.834  -4.620   9.539  0.00  0.00    -0.070 A 
ATOM     30  C   LIG    1        3.305  -5.863   9.158  0.00  0.00    -0.010 A 
ATOM     31  C   LIG    1        2.471  -4.361  10.978  0.00  0.00    +0.090 C 
ATOM     32  C   LIG    1        3.639  -6.100   7.837  0.00  0.00    +0.050 A 
ENDBRANCH  25  26
ENDBRANCH  11  25
TORSDOF 9
