REMARK  Name = ZINCkj000005hlLP.0
REMARK                            x       y       z     vdW  Elec       q    Type
REMARK                         _______ _______ _______ _____ _____    ______ ____
ROOT
ATOM      1  N   LIG    1       -0.011   0.966   0.007  0.00  0.00    -0.750 N 
ATOM      2  H   LIG    1        0.002  -0.004   0.002  0.00  0.00    +0.400 HD
ATOM      3  C   LIG    1        1.147   1.655   0.000  0.00  0.00    +0.700 C 
ATOM      4  N   LIG    1        2.323   0.998  -0.015  0.00  0.00    -0.740 N 
ATOM      5  H   LIG    1        2.336   0.028  -0.020  0.00  0.00    +0.400 HD
ATOM      6  O   LIG    1        1.130   2.871   0.007  0.00  0.00    -0.580 OA
ENDROOT
BRANCH   1   7
ATOM      7  C   LIG    1       -1.290   1.681   0.017  0.00  0.00    +0.310 C 
BRANCH   7  14
ATOM      8  C   LIG    1       -6.038   1.378  -0.677  0.00  0.00    +0.330 C 
ATOM      9  N   LIG    1       -4.818   0.577  -0.506  0.00  0.00    -0.370 N 
ATOM     10  C   LIG    1       -5.098  -0.514   0.446  0.00  0.00    +0.260 C 
ATOM     11  C   LIG    1       -4.130  -1.638   0.177  0.00  0.00    +0.040 C 
ATOM     12  C   LIG    1       -2.908  -1.565   1.113  0.00  0.00    +0.030 C 
ATOM     13  C   LIG    1       -2.418  -0.117   1.302  0.00  0.00    +0.020 C 
ATOM     14  C   LIG    1       -2.439   0.671   0.017  0.00  0.00    -0.010 C 
ATOM     15  C   LIG    1       -3.784   1.419  -0.095  0.00  0.00    +0.240 C 
ATOM     16  H   LIG    1       -4.571   0.172  -1.397  0.00  0.00    +0.420 HD
ENDBRANCH   7  14
ENDBRANCH   1   7
BRANCH   4  17
ATOM     17  C   LIG    1        3.582   1.747  -0.023  0.00  0.00    +0.330 C 
BRANCH  17  18
ATOM     18  C   LIG    1        4.740   0.784  -0.039  0.00  0.00    -0.140 C 
ATOM     19  C   LIG    1        5.273   0.467  -1.181  0.00  0.00    -0.040 C 
ATOM     20  C   LIG    1        6.425  -0.490  -1.306  0.00  0.00    +0.260 C 
ATOM     21  O   LIG    1        7.043  -0.685  -0.032  0.00  0.00    -0.370 OA
ATOM     22  C   LIG    1        6.104  -1.007   1.002  0.00  0.00    +0.210 C 
ATOM     23  C   LIG    1        5.239   0.231   1.267  0.00  0.00    +0.050 C 
ENDBRANCH  17  18
ENDBRANCH   4  17
TORSDOF 4
