REMARK  Name = ZINCkj000005hlLP.1
REMARK                            x       y       z     vdW  Elec       q    Type
REMARK                         _______ _______ _______ _____ _____    ______ ____
ROOT
ATOM      1  N   LIG    1        1.033   5.963   2.934  0.00  0.00    -0.750 N 
ATOM      2  H   LIG    1        1.161   5.332   3.660  0.00  0.00    +0.400 HD
ATOM      3  C   LIG    1        0.944   5.520   1.665  0.00  0.00    +0.700 C 
ATOM      4  N   LIG    1        1.032   4.201   1.403  0.00  0.00    -0.740 N 
ATOM      5  H   LIG    1        1.160   3.570   2.129  0.00  0.00    +0.400 HD
ATOM      6  O   LIG    1        0.784   6.311   0.755  0.00  0.00    -0.580 OA
ENDROOT
BRANCH   1   7
ATOM      7  C   LIG    1        0.937   7.397   3.219  0.00  0.00    +0.300 C 
BRANCH   7  14
ATOM      8  C   LIG    1        0.683  10.826   6.699  0.00  0.00    +0.320 C 
ATOM      9  N   LIG    1        1.307   9.541   6.355  0.00  0.00    -0.380 N 
ATOM     10  C   LIG    1        0.976   8.571   7.370  0.00  0.00    +0.240 C 
ATOM     11  C   LIG    1        2.205   7.672   7.583  0.00  0.00    +0.050 C 
ATOM     12  C   LIG    1        2.291   6.583   6.619  0.00  0.00    +0.030 C 
ATOM     13  C   LIG    1        2.415   7.128   5.174  0.00  0.00    +0.030 C 
ATOM     14  C   LIG    1        1.068   7.628   4.726  0.00  0.00    -0.020 C 
ATOM     15  C   LIG    1        0.839   9.122   5.017  0.00  0.00    +0.260 C 
ATOM     16  H   LIG    1        2.309   9.660   6.330  0.00  0.00    +0.420 HD
ENDBRANCH   7  14
ENDBRANCH   1   7
BRANCH   4  17
ATOM     17  C   LIG    1        0.935   3.720   0.023  0.00  0.00    +0.330 C 
BRANCH  17  18
ATOM     18  C   LIG    1        1.064   2.218   0.004  0.00  0.00    -0.140 C 
ATOM     19  C   LIG    1       -0.018   1.498   0.010  0.00  0.00    -0.040 C 
ATOM     20  C   LIG    1        0.002  -0.004   0.002  0.00  0.00    +0.260 C 
ATOM     21  O   LIG    1        1.297  -0.476  -0.374  0.00  0.00    -0.370 OA
ATOM     22  C   LIG    1        2.356   0.134   0.375  0.00  0.00    +0.210 C 
ATOM     23  C   LIG    1        2.439   1.611  -0.022  0.00  0.00    +0.050 C 
ENDBRANCH  17  18
ENDBRANCH   4  17
TORSDOF 4
