REMARK  Name = ZINCzw0000000eIw.1
REMARK                            x       y       z     vdW  Elec       q    Type
REMARK                         _______ _______ _______ _____ _____    ______ ____
ROOT
ATOM      1  C   LIG    1      -10.035   1.815  -2.592  0.00  0.00    +0.000 C 
ATOM      2  C   LIG    1       -9.940   2.796  -1.421  0.00  0.00    +0.060 C 
ATOM      3  C   LIG    1       -8.588   2.620  -0.722  0.00  0.00    +0.290 C 
ATOM      4  N   LIG    1       -7.518   2.765  -1.718  0.00  0.00    -1.000 NA
ATOM      5  C   LIG    1       -7.566   1.936  -2.931  0.00  0.00    +0.300 C 
ATOM      6  C   LIG    1       -8.926   2.116  -3.603  0.00  0.00    +0.040 C 
ENDROOT
BRANCH   1   8
ATOM      7  O   LIG    1      -12.179   2.770  -2.842  0.00  0.00    -0.510 OA
ATOM      8  C   LIG    1      -11.377   1.962  -3.261  0.00  0.00    +0.530 C 
ATOM      9  N   LIG    1      -11.688   1.194  -4.324  0.00  0.00    -0.740 N 
ATOM     10  H   LIG    1      -11.047   0.547  -4.659  0.00  0.00    +0.410 HD
BRANCH   9  11
ATOM     11  C   LIG    1      -12.993   1.336  -4.974  0.00  0.00    +0.260 C 
ATOM     12  C   LIG    1      -14.027   0.396  -4.314  0.00  0.00    +0.060 C 
ATOM     13  C   LIG    1      -14.849  -0.119  -5.522  0.00  0.00    +0.280 C 
ATOM     14  N   LIG    1      -13.825  -0.277  -6.587  0.00  0.00    -0.390 N 
ATOM     15  H   LIG    1      -13.319  -1.141  -6.459  0.00  0.00    +0.430 HD
ATOM     16  C   LIG    1      -12.911   0.876  -6.442  0.00  0.00    +0.270 C 
BRANCH  14  17
ATOM     17  C   LIG    1      -14.463  -0.255  -7.910  0.00  0.00    +0.330 C 
BRANCH  17  18
ATOM     18  C   LIG    1      -15.295  -1.499  -8.088  0.00  0.00    -0.160 A 
ATOM     19  C   LIG    1      -14.732  -2.634  -8.640  0.00  0.00    +0.040 A 
ATOM     20  C   LIG    1      -15.493  -3.776  -8.800  0.00  0.00    +0.030 A 
ATOM     21  C   LIG    1      -16.821  -3.781  -8.415  0.00  0.00    +0.060 A 
ATOM     22  C   LIG    1      -17.386  -2.645  -7.866  0.00  0.00    +0.030 A 
ATOM     23  C   LIG    1      -16.623  -1.504  -7.703  0.00  0.00    +0.040 A 
ENDBRANCH  17  18
ENDBRANCH  14  17
ENDBRANCH   9  11
ENDBRANCH   1   8
BRANCH   4  24
ATOM     24  S   LIG    1       -6.285   3.845  -1.483  0.00  0.00    +2.690 S 
ATOM     25  O   LIG    1       -5.769   4.152  -2.771  0.00  0.00    -0.950 OA
ATOM     26  O   LIG    1       -6.782   4.832  -0.590  0.00  0.00    -0.940 OA
BRANCH  24  27
ATOM     27  C   LIG    1       -5.004   2.995  -0.622  0.00  0.00    -0.680 A 
ATOM     28  C   LIG    1       -4.989   2.989   0.760  0.00  0.00    +0.140 A 
ATOM     29  C   LIG    1       -3.986   2.324   1.443  0.00  0.00    +0.010 A 
ATOM     30  C   LIG    1       -2.997   1.662   0.735  0.00  0.00    +0.130 A 
ATOM     31  O   LIG    1       -2.003   1.000   1.396  0.00  0.00    -0.320 OA
ATOM     32  C   LIG    1       -0.696   1.562   1.280  0.00  0.00    +0.230 C 
ATOM     33  C   LIG    1       -0.013   1.086   0.008  0.00  0.00    +0.000 C 
ATOM     34  C   LIG    1       -0.720   1.576  -1.246  0.00  0.00    +0.230 C 
ATOM     35  O   LIG    1       -2.031   1.014  -1.340  0.00  0.00    -0.320 OA
ATOM     36  C   LIG    1       -3.011   1.669  -0.652  0.00  0.00    +0.050 A 
ATOM     37  C   LIG    1       -4.016   2.335  -1.332  0.00  0.00    +0.130 A 
ENDBRANCH  24  27
ENDBRANCH   4  24
TORSDOF 6
