REMARK  Name = ZINCpe000000V4t4.0
REMARK                            x       y       z     vdW  Elec       q    Type
REMARK                         _______ _______ _______ _____ _____    ______ ____
ROOT
ATOM      1  S   LIG    1       -3.569  -1.432  -1.376  0.00  0.00    +2.680 S 
ATOM      2  O   LIG    1       -4.144  -0.539  -0.433  0.00  0.00    -0.940 OA
ATOM      3  O   LIG    1       -4.006  -1.525  -2.725  0.00  0.00    -0.930 OA
ENDROOT
BRANCH   1   4
ATOM      4  C   LIG    1       -3.723  -3.048  -0.691  0.00  0.00    -0.620 A 
ATOM      5  C   LIG    1       -3.705  -3.221   0.680  0.00  0.00    +0.130 A 
ATOM      6  C   LIG    1       -3.826  -4.489   1.218  0.00  0.00    +0.130 A 
ATOM      7  C   LIG    1       -3.965  -5.583   0.385  0.00  0.00    -0.630 A 
ATOM      8  C   LIG    1       -3.984  -5.409  -0.986  0.00  0.00    +0.110 A 
ATOM      9  C   LIG    1       -3.863  -4.142  -1.524  0.00  0.00    +0.110 A 
BRANCH   7  10
ATOM     10  S   LIG    1       -4.118  -7.199   1.071  0.00  0.00    +2.700 S 
ATOM     11  O   LIG    1       -4.777  -7.990   0.091  0.00  0.00    -0.950 OA
ATOM     12  O   LIG    1       -4.611  -7.029   2.393  0.00  0.00    -0.950 OA
BRANCH  10  13
ATOM     13  N   LIG    1       -2.588  -7.816   1.218  0.00  0.00    -1.250 NA
ATOM     14  H   LIG    1       -1.894  -7.544   0.598  0.00  0.00    +0.410 HD
ATOM     15  H   LIG    1       -2.387  -8.450   1.924  0.00  0.00    +0.430 HD
ENDBRANCH  10  13
ENDBRANCH   7  10
ENDBRANCH   1   4
BRANCH   1  16
ATOM     16  N   LIG    1       -1.952  -1.076  -1.433  0.00  0.00    -1.090 NA
ATOM     17  H   LIG    1       -1.589  -0.379  -0.864  0.00  0.00    +0.430 HD
BRANCH  16  18
ATOM     18  C   LIG    1       -1.071  -1.813  -2.341  0.00  0.00    +0.200 C 
ATOM     19  C   LIG    1        0.320  -1.245  -2.268  0.00  0.00    +0.050 C 
ATOM     20  C   LIG    1        0.332   0.230  -1.823  0.00  0.00    +0.030 C 
ATOM     21  C   LIG    1       -0.785   1.062  -2.482  0.00  0.00    +0.010 C 
ATOM     22  C   LIG    1       -0.960   0.738  -3.941  0.00  0.00    +0.020 C 
ATOM     23  C   LIG    1       -2.067  -0.328  -4.077  0.00  0.00    +0.020 C 
ATOM     24  C   LIG    1       -1.583  -1.670  -3.789  0.00  0.00    +0.060 C 
BRANCH  18  25
ATOM     25  C   LIG    1       -1.049  -3.269  -1.954  0.00  0.00    +0.440 C 
ATOM     26  O   LIG    1       -1.052  -4.122  -2.810  0.00  0.00    -0.480 OA
BRANCH  25  28
ATOM     27  C   LIG    1       -0.890  -5.033  -0.359  0.00  0.00    +0.260 C 
ATOM     28  O   LIG    1       -1.025  -3.619  -0.658  0.00  0.00    -0.340 OA
ENDBRANCH  25  28
ENDBRANCH  18  25
ENDBRANCH  16  18
ENDBRANCH   1  16
TORSDOF 7
