REMARK  Name = ZINCpe000000XCfg.0
REMARK                            x       y       z     vdW  Elec       q    Type
REMARK                         _______ _______ _______ _____ _____    ______ ____
ROOT
ATOM      1  C   LIG    1        3.626   3.355   0.213  0.00  0.00    +0.160 C 
ATOM      2  C   LIG    1        2.345   4.141   0.111  0.00  0.00    +0.130 A 
ATOM      3  C   LIG    1        2.362   5.478   0.324  0.00  0.00    -0.090 A 
ATOM      4  C   LIG    1        1.133   6.181   0.225  0.00  0.00    +0.380 A 
ATOM      5  C   LIG    1       -0.065   5.396  -0.110  0.00  0.00    -0.040 A 
ATOM      6  N   LIG    1        0.059   4.099  -0.298  0.00  0.00    -0.170 NA
ATOM      7  O   LIG    1        1.073   7.387   0.410  0.00  0.00    -0.450 OA
ATOM      8  N   LIG    1        1.189   3.502  -0.198  0.00  0.00    -0.260 N 
ENDROOT
BRANCH   8   9
ATOM      9  C   LIG    1        1.232   2.120  -0.414  0.00  0.00    +0.110 A 
ATOM     10  C   LIG    1        2.129   1.587  -1.331  0.00  0.00    +0.020 A 
ATOM     11  C   LIG    1        2.168   0.222  -1.541  0.00  0.00    +0.040 A 
ATOM     12  C   LIG    1        1.317  -0.612  -0.840  0.00  0.00    +0.030 A 
ATOM     13  C   LIG    1        0.423  -0.084   0.073  0.00  0.00    +0.040 A 
ATOM     14  C   LIG    1        0.378   1.280   0.288  0.00  0.00    +0.040 A 
ENDBRANCH   8   9
BRANCH   5  15
ATOM     15  C   LIG    1       -1.383   6.051  -0.232  0.00  0.00    +0.590 C 
ATOM     16  N   LIG    1       -2.473   5.319  -0.539  0.00  0.00    -0.710 N 
ATOM     17  H   LIG    1       -2.391   4.363  -0.679  0.00  0.00    +0.420 HD
ATOM     18  O   LIG    1       -1.485   7.249  -0.056  0.00  0.00    -0.500 OA
BRANCH  16  19
ATOM     19  C   LIG    1       -3.780   5.968  -0.660  0.00  0.00    +0.310 C 
BRANCH  19  20
ATOM     20  C   LIG    1       -4.823   4.937  -1.008  0.00  0.00    +0.530 C 
ATOM     21  N   LIG    1       -6.109   5.307  -1.170  0.00  0.00    -0.620 N 
ATOM     22  C   LIG    1       -6.631   6.675  -1.033  0.00  0.00    +0.250 C 
ATOM     23  C   LIG    1       -8.152   6.612  -1.284  0.00  0.00    +0.040 C 
ATOM     24  C   LIG    1       -8.491   5.128  -0.982  0.00  0.00    +0.030 C 
ATOM     25  C   LIG    1       -7.226   4.407  -1.509  0.00  0.00    +0.250 C 
ATOM     26  O   LIG    1       -4.505   3.774  -1.140  0.00  0.00    -0.530 OA
ENDBRANCH  19  20
ENDBRANCH  16  19
ENDBRANCH   5  15
TORSDOF 4
