REMARK  Name = ZINCpk000000nQti.0
REMARK                            x       y       z     vdW  Elec       q    Type
REMARK                         _______ _______ _______ _____ _____    ______ ____
ROOT
ATOM      1  N   LIG    1        0.754   0.621   2.743  0.00  0.00    -0.730 N 
ATOM      2  H   LIG    1        1.284   0.261   2.015  0.00  0.00    +0.400 HD
ATOM      3  C   LIG    1       -0.351   1.345   2.479  0.00  0.00    +0.730 C 
ATOM      4  N   LIG    1       -0.721   1.570   1.202  0.00  0.00    -0.630 N 
ATOM      5  C   LIG    1       -0.013   1.086   0.008  0.00  0.00    +0.260 C 
ATOM      6  C   LIG    1       -0.779   1.607  -1.226  0.00  0.00    +0.100 C 
ATOM      7  C   LIG    1       -1.556   2.826  -0.662  0.00  0.00    +0.080 C 
ATOM      8  C   LIG    1       -1.903   2.341   0.767  0.00  0.00    +0.300 C 
ATOM      9  O   LIG    1       -1.016   1.796   3.392  0.00  0.00    -0.580 OA
ENDROOT
BRANCH   1  14
ATOM     10  C   LIG    1        3.520   1.287   7.883  0.00  0.00    +0.230 A 
ATOM     11  N   LIG    1        3.122   2.052   6.897  0.00  0.00    -0.310 NA
ATOM     12  N   LIG    1        2.575   1.204   5.930  0.00  0.00    -0.370 N 
ATOM     13  C   LIG    1        1.987   1.560   4.638  0.00  0.00    +0.310 C 
ATOM     14  C   LIG    1        1.155   0.377   4.131  0.00  0.00    +0.260 C 
ATOM     15  C   LIG    1        1.992  -0.904   4.203  0.00  0.00    +0.040 C 
ATOM     16  C   LIG    1        2.215  -1.281   5.673  0.00  0.00    +0.180 C 
ATOM     17  C   LIG    1        2.685  -0.050   6.409  0.00  0.00    +0.270 A 
ATOM     18  N   LIG    1        3.252   0.014   7.581  0.00  0.00    -0.530 NA
BRANCH  10  20
ATOM     19  C   LIG    1        3.320   1.356  10.353  0.00  0.00    +0.050 C 
ATOM     20  C   LIG    1        4.175   1.766   9.152  0.00  0.00    +0.090 C 
ATOM     21  C   LIG    1        5.564   1.139   9.278  0.00  0.00    +0.050 C 
ENDBRANCH  10  20
ENDBRANCH   1  14
BRANCH   7  22
ATOM     22  C   LIG    1       -2.825   3.091  -1.475  0.00  0.00    +0.440 C 
ATOM     23  F   LIG    1       -2.481   3.354  -2.805  0.00  0.00    -0.170 F 
ATOM     24  F   LIG    1       -3.499   4.194  -0.941  0.00  0.00    -0.180 F 
ATOM     25  F   LIG    1       -3.656   1.966  -1.422  0.00  0.00    -0.170 F 
ENDBRANCH   7  22
BRANCH   7  26
ATOM     26  O   LIG    1       -0.726   3.989  -0.622  0.00  0.00    -0.510 OA
ATOM     27  H   LIG    1       -1.168   4.776  -0.277  0.00  0.00    +0.390 HD
ENDBRANCH   7  26
TORSDOF 4
