REMARK  Name = ZINCpk00000kTbKj.0
REMARK                            x       y       z     vdW  Elec       q    Type
REMARK                         _______ _______ _______ _____ _____    ______ ____
ROOT
ATOM      1  C   LIG    1       -3.254   4.635   0.045  0.00  0.00    +0.100 C 
ATOM      2  C   LIG    1       -2.247   5.613  -0.564  0.00  0.00    +0.050 C 
ATOM      3  C   LIG    1       -2.847   7.021  -0.582  0.00  0.00    +0.010 C 
ATOM      4  C   LIG    1       -3.143   7.464   0.854  0.00  0.00    +0.280 C 
ATOM      5  N   LIG    1       -3.996   6.453   1.494  0.00  0.00    -0.600 N 
ATOM      6  C   LIG    1       -5.160   6.805   2.076  0.00  0.00    +0.570 C 
ATOM      7  O   LIG    1       -5.856   5.959   2.603  0.00  0.00    -0.520 OA
ATOM      8  C   LIG    1       -3.556   5.051   1.488  0.00  0.00    +0.310 C 
ENDROOT
BRANCH   6   9
ATOM      9  C   LIG    1       -5.587   8.212   2.074  0.00  0.00    -0.090 A 
ATOM     10  C   LIG    1       -6.357   8.719   1.037  0.00  0.00    +0.110 A 
ATOM     11  C   LIG    1       -6.771  10.050   1.028  0.00  0.00    +0.040 A 
ATOM     12  C   LIG    1       -6.444  10.924   2.012  0.00  0.00    +0.110 A 
ATOM     13  C   LIG    1       -5.659  10.512   3.109  0.00  0.00    +0.090 A 
ATOM     14  N   LIG    1       -5.188  11.108   4.190  0.00  0.00    -0.280 NA
ATOM     15  N   LIG    1       -4.456  10.179   4.938  0.00  0.00    -0.420 N 
ATOM     16  H   LIG    1       -4.008  10.368   5.778  0.00  0.00    +0.450 HD
ATOM     17  C   LIG    1       -4.468   8.986   4.321  0.00  0.00    +0.280 A 
ATOM     18  F   LIG    1       -6.718   7.905   0.020  0.00  0.00    -0.130 F 
ATOM     19  C   LIG    1       -5.202   9.115   3.166  0.00  0.00    -0.170 A 
ENDBRANCH   6   9
BRANCH   1  23
ATOM     20  C   LIG    1       -2.752  -0.355   0.012  0.00  0.00    +0.350 C 
ATOM     21  N   LIG    1       -2.444   1.077   0.019  0.00  0.00    -0.420 NA
ATOM     22  N   LIG    1       -3.366   2.136   0.030  0.00  0.00    -0.320 NA
ATOM     23  C   LIG    1       -2.675   3.244   0.034  0.00  0.00    +0.260 C 
ATOM     24  N   LIG    1       -1.375   2.947   0.030  0.00  0.00    -0.580 NA
ATOM     25  C   LIG    1       -1.218   1.641   0.017  0.00  0.00    +0.530 C 
BRANCH  25  26
ATOM     26  N   LIG    1       -0.011   0.966   0.007  0.00  0.00    -0.830 NA
ATOM     27  H   LIG    1        0.822   1.462   0.002  0.00  0.00    +0.420 HD
ATOM     28  H   LIG    1        0.002  -0.004   0.002  0.00  0.00    +0.410 HD
ENDBRANCH  25  26
ENDBRANCH   1  23
TORSDOF 3
