REMARK  Name = ZINCrD000000B9fW.0
REMARK                            x       y       z     vdW  Elec       q    Type
REMARK                         _______ _______ _______ _____ _____    ______ ____
ROOT
ATOM      1  C   LIG    1       -6.866   1.030   0.112  0.00  0.00    +0.260 C 
ENDROOT
BRANCH   1   4
ATOM      2  O   LIG    1       -5.391   3.273   0.374  0.00  0.00    -0.510 OA
ATOM      3  C   LIG    1       -4.801   2.231   0.592  0.00  0.00    +0.600 C 
ATOM      4  N   LIG    1       -5.450   1.055   0.487  0.00  0.00    -0.720 N 
ATOM      5  H   LIG    1       -4.979   0.224   0.660  0.00  0.00    +0.410 HD
BRANCH   3   6
ATOM      6  C   LIG    1       -3.380   2.256   0.968  0.00  0.00    -0.040 A 
ATOM      7  C   LIG    1       -2.630   3.379   1.115  0.00  0.00    +0.070 A 
ATOM      8  C   LIG    1       -1.291   2.925   1.490  0.00  0.00    -0.150 A 
ATOM      9  C   LIG    1       -0.086   3.574   1.768  0.00  0.00    +0.070 A 
ATOM     10  C   LIG    1        1.018   2.839   2.098  0.00  0.00    -0.010 A 
ATOM     11  C   LIG    1        0.949   1.454   2.160  0.00  0.00    +0.060 A 
ATOM     12  C   LIG    1       -0.232   0.795   1.890  0.00  0.00    +0.030 A 
ATOM     13  C   LIG    1       -1.366   1.521   1.546  0.00  0.00    +0.070 A 
ATOM     14  O   LIG    1       -2.627   1.167   1.231  0.00  0.00    -0.190 OA
ENDBRANCH   3   6
ENDBRANCH   1   4
BRANCH   1  15
ATOM     15  C   LIG    1       -7.314  -0.418  -0.091  0.00  0.00    +0.210 C 
BRANCH  15  16
ATOM     16  C   LIG    1       -8.786  -0.448  -0.416  0.00  0.00    -0.080 A 
ATOM     17  C   LIG    1       -9.222  -0.073  -1.673  0.00  0.00    +0.070 A 
ATOM     18  C   LIG    1      -10.571  -0.105  -1.975  0.00  0.00    -0.010 A 
ATOM     19  C   LIG    1      -11.485  -0.501  -1.013  0.00  0.00    +0.100 A 
ATOM     20  C   LIG    1      -11.047  -0.870   0.247  0.00  0.00    -0.010 A 
ATOM     21  F   LIG    1      -12.804  -0.526  -1.305  0.00  0.00    -0.140 F 
ATOM     22  C   LIG    1       -9.698  -0.844   0.544  0.00  0.00    +0.050 A 
ENDBRANCH  15  16
BRANCH  15  23
ATOM     23  N   LIG    1       -6.556  -1.016  -1.198  0.00  0.00    -0.520 NA
ATOM     24  C   LIG    1       -5.394  -1.765  -0.698  0.00  0.00    +0.140 C 
ATOM     25  C   LIG    1       -4.669  -2.418  -1.877  0.00  0.00    +0.220 C 
ATOM     26  O   LIG    1       -4.297  -1.409  -2.819  0.00  0.00    -0.380 OA
ATOM     27  C   LIG    1       -5.404  -0.660  -3.328  0.00  0.00    +0.220 C 
ATOM     28  C   LIG    1       -6.137   0.011  -2.164  0.00  0.00    +0.150 C 
ENDBRANCH  15  23
ENDBRANCH   1  15
TORSDOF 5
