REMARK  Name = ZINCrD00000efRIg.0
REMARK                            x       y       z     vdW  Elec       q    Type
REMARK                         _______ _______ _______ _____ _____    ______ ____
ROOT
ATOM      1  N   LIG    1       -4.364  -1.272  -4.694  0.00  0.00    -0.720 N 
ATOM      2  H   LIG    1       -4.809  -2.094  -4.951  0.00  0.00    +0.410 HD
ENDROOT
BRANCH   1   3
ATOM      3  C   LIG    1       -3.089  -1.315  -4.142  0.00  0.00    +0.390 A 
ATOM      4  C   LIG    1       -2.457  -0.131  -3.775  0.00  0.00    +0.010 A 
ATOM      5  C   LIG    1       -1.188  -0.189  -3.227  0.00  0.00    -0.590 A 
ATOM      6  C   LIG    1       -0.591  -1.431  -3.067  0.00  0.00    +0.010 A 
ATOM      7  C   LIG    1       -1.279  -2.566  -3.448  0.00  0.00    +0.310 A 
ATOM      8  N   LIG    1       -2.488  -2.482  -3.969  0.00  0.00    -0.510 NA
BRANCH   5   9
ATOM      9  S   LIG    1       -0.347   1.284  -2.747  0.00  0.00    +2.710 S 
ATOM     10  O   LIG    1        1.040   0.976  -2.761  0.00  0.00    -0.940 OA
ATOM     11  O   LIG    1       -0.917   2.338  -3.510  0.00  0.00    -0.940 OA
BRANCH   9  12
ATOM     12  N   LIG    1       -0.743   1.582  -1.167  0.00  0.00    -1.010 NA
ATOM     13  C   LIG    1       -0.013   1.086   0.008  0.00  0.00    +0.270 C 
ATOM     14  C   LIG    1       -0.756   1.594   1.262  0.00  0.00    +0.030 C 
ATOM     15  C   LIG    1       -2.187   1.874   0.722  0.00  0.00    +0.040 C 
ATOM     16  C   LIG    1       -1.886   2.391  -0.707  0.00  0.00    +0.280 C 
ENDBRANCH   9  12
ENDBRANCH   5   9
ENDBRANCH   1   3
BRANCH   1  17
ATOM     17  C   LIG    1       -5.036   0.016  -4.888  0.00  0.00    +0.330 C 
BRANCH  17  22
ATOM     18  C   LIG    1       -7.834  -0.241  -7.415  0.00  0.00    +0.120 A 
ATOM     19  C   LIG    1       -8.894  -0.635  -6.611  0.00  0.00    -0.060 A 
ATOM     20  C   LIG    1       -8.701  -0.817  -5.255  0.00  0.00    +0.050 A 
ATOM     21  C   LIG    1       -7.452  -0.611  -4.700  0.00  0.00    -0.070 A 
ATOM     22  C   LIG    1       -6.395  -0.213  -5.497  0.00  0.00    -0.070 A 
ATOM     23  C   LIG    1       -6.582  -0.030  -6.854  0.00  0.00    +0.010 A 
BRANCH  21  24
ATOM     24  C   LIG    1       -7.243  -0.817  -3.222  0.00  0.00    -0.010 C 
ATOM     25  C   LIG    1       -8.388  -1.449  -2.427  0.00  0.00    +0.020 C 
ATOM     26  C   LIG    1       -8.075   0.040  -2.265  0.00  0.00    +0.030 C 
ENDBRANCH  21  24
BRANCH  18  28
ATOM     27  C   LIG    1       -9.335  -0.297  -9.257  0.00  0.00    +0.250 C 
ATOM     28  O   LIG    1       -8.020  -0.062  -8.749  0.00  0.00    -0.320 OA
ENDBRANCH  18  28
ENDBRANCH  17  22
ENDBRANCH   1  17
TORSDOF 7
