REMARK  Name = ZINCrD00000jBlP4.0
REMARK                            x       y       z     vdW  Elec       q    Type
REMARK                         _______ _______ _______ _____ _____    ______ ____
ROOT
ATOM      1  C   LIG    1       -3.911  -0.147  -1.015  0.00  0.00    +0.250 C 
ATOM      2  C   LIG    1       -2.529   0.492  -0.845  0.00  0.00    +0.180 C 
ATOM      3  N   LIG    1       -2.420   1.064   0.504  0.00  0.00    -0.500 N 
ATOM      4  C   LIG    1       -2.516   0.021   1.534  0.00  0.00    +0.170 C 
ATOM      5  C   LIG    1       -3.898  -0.637   1.462  0.00  0.00    +0.280 C 
ATOM      6  N   LIG    1       -4.123  -1.101   0.084  0.00  0.00    -0.630 N 
ATOM      7  C   LIG    1       -4.512  -2.368  -0.164  0.00  0.00    +0.710 C 
ATOM      8  N   LIG    1       -4.597  -3.257   0.845  0.00  0.00    -0.740 N 
ATOM      9  H   LIG    1       -4.449  -2.968   1.759  0.00  0.00    +0.390 HD
ATOM     10  O   LIG    1       -4.787  -2.708  -1.299  0.00  0.00    -0.580 OA
ENDROOT
BRANCH   3  11
ATOM     11  C   LIG    1       -1.239   1.797   0.642  0.00  0.00    +0.090 A 
ATOM     12  C   LIG    1       -0.011   1.147   0.638  0.00  0.00    -0.030 A 
ATOM     13  C   LIG    1        1.155   1.875   0.769  0.00  0.00    +0.010 A 
ATOM     14  C   LIG    1        1.101   3.250   0.911  0.00  0.00    +0.000 A 
ATOM     15  C   LIG    1       -0.120   3.900   0.923  0.00  0.00    +0.020 A 
ATOM     16  C   LIG    1       -1.290   3.177   0.792  0.00  0.00    +0.040 A 
ENDBRANCH   3  11
BRANCH   1  18
ATOM     17  C   LIG    1       -3.705   0.102  -3.492  0.00  0.00    +0.000 C 
ATOM     18  C   LIG    1       -3.980  -0.883  -2.355  0.00  0.00    +0.050 C 
ENDBRANCH   1  18
BRANCH   8  19
ATOM     19  C   LIG    1       -4.912  -4.659   0.561  0.00  0.00    +0.360 C 
BRANCH  19  20
ATOM     20  C   LIG    1       -4.947  -5.437   1.852  0.00  0.00    +0.140 A 
ATOM     21  C   LIG    1       -6.162  -5.633   2.491  0.00  0.00    -0.040 A 
ATOM     22  C   LIG    1       -6.198  -6.346   3.674  0.00  0.00    +0.110 A 
ATOM     23  C   LIG    1       -4.995  -6.844   4.179  0.00  0.00    -0.150 A 
ATOM     24  C   LIG    1       -4.626  -7.622   5.362  0.00  0.00    -0.050 A 
ATOM     25  C   LIG    1       -3.297  -7.802   5.311  0.00  0.00    +0.250 A 
ATOM     26  N   LIG    1       -2.787  -7.202   4.191  0.00  0.00    -0.580 N 
ATOM     27  H   LIG    1       -1.851  -7.198   3.939  0.00  0.00    +0.420 HD
ATOM     28  C   LIG    1       -3.798  -6.607   3.475  0.00  0.00    +0.280 A 
ATOM     29  N   LIG    1       -3.825  -5.919   2.341  0.00  0.00    -0.480 NA
ENDBRANCH  19  20
ENDBRANCH   8  19
TORSDOF 4
