REMARK  Name = ZINCpk00000yN7l1.0
REMARK                            x       y       z     vdW  Elec       q    Type
REMARK                         _______ _______ _______ _____ _____    ______ ____
ROOT
ATOM      1  C   LIG    1        0.740  -6.378   2.462  0.00  0.00    +0.010 A 
ATOM      2  C   LIG    1        0.417  -5.628   3.594  0.00  0.00    +0.030 A 
ATOM      3  C   LIG    1        0.406  -4.254   3.534  0.00  0.00    +0.100 A 
ATOM      4  C   LIG    1        0.717  -3.604   2.336  0.00  0.00    -0.150 A 
ATOM      5  C   LIG    1        0.786  -2.177   1.973  0.00  0.00    +0.570 C 
ATOM      6  N   LIG    1        1.134  -2.040   0.682  0.00  0.00    -0.600 N 
ATOM      7  C   LIG    1        1.314  -3.373   0.097  0.00  0.00    +0.340 C 
ATOM      8  O   LIG    1        0.562  -1.256   2.733  0.00  0.00    -0.510 OA
ATOM      9  C   LIG    1        1.040  -4.360   1.204  0.00  0.00    -0.080 A 
ATOM     10  C   LIG    1        1.052  -5.731   1.264  0.00  0.00    +0.070 A 
ENDROOT
BRANCH   6  11
ATOM     11  C   LIG    1        1.299  -0.768  -0.026  0.00  0.00    +0.290 C 
ATOM     12  C   LIG    1        2.388   0.063   0.661  0.00  0.00    +0.060 C 
ATOM     13  C   LIG    1        2.465   1.430  -0.026  0.00  0.00    +0.100 C 
ATOM     14  C   LIG    1        1.104   2.075   0.003  0.00  0.00    +0.520 C 
ATOM     15  N   LIG    1       -0.016   1.337   0.009  0.00  0.00    -0.670 N 
ATOM     16  H   LIG    1       -0.873   1.792   0.016  0.00  0.00    +0.420 HD
ATOM     17  O   LIG    1        1.020   3.284   0.020  0.00  0.00    -0.500 OA
ATOM     18  C   LIG    1        0.002  -0.004   0.002  0.00  0.00    +0.510 C 
ATOM     19  O   LIG    1       -1.046  -0.613   0.019  0.00  0.00    -0.480 OA
ENDBRANCH   6  11
BRANCH   1  22
ATOM     20  C   LIG    1        1.022  -9.898   1.695  0.00  0.00    +0.090 A 
ATOM     21  N   LIG    1        1.050  -8.612   1.492  0.00  0.00    -0.400 NA
ATOM     22  C   LIG    1        0.751  -7.858   2.531  0.00  0.00    +0.100 A 
ATOM     23  C   LIG    1        0.460  -8.540   3.675  0.00  0.00    -0.050 A 
ATOM     24  S   LIG    1        0.574 -10.218   3.367  0.00  0.00    +0.280 S 
BRANCH  20  26
ATOM     25  N   LIG    1        1.539 -11.690  -0.071  0.00  0.00    -0.350 NA
ATOM     26  C   LIG    1        1.310 -10.897   0.710  0.00  0.00    +0.280 C 
ENDBRANCH  20  26
ENDBRANCH   1  22
TORSDOF 3
