REMARK  Name = ZINCvU0000000Ef0.0
REMARK                            x       y       z     vdW  Elec       q    Type
REMARK                         _______ _______ _______ _____ _____    ______ ____
ROOT
ATOM      1  C   LIG    1       10.317   1.810   2.408  0.00  0.00    +0.230 C 
ATOM      2  C   LIG    1       11.348   2.944   2.231  0.00  0.00    +0.030 C 
ATOM      3  C   LIG    1       10.525   4.055   1.527  0.00  0.00    +0.040 C 
ATOM      4  C   LIG    1        9.593   3.217   0.613  0.00  0.00    +0.250 C 
ATOM      5  N   LIG    1        9.255   2.027   1.415  0.00  0.00    -0.620 N 
ATOM      6  C   LIG    1        8.158   1.260   1.258  0.00  0.00    +0.520 C 
ATOM      7  O   LIG    1        8.006   0.271   1.944  0.00  0.00    -0.490 OA
ENDROOT
BRANCH   1   8
ATOM      8  C   LIG    1       10.984   0.454   2.170  0.00  0.00    +0.020 C 
BRANCH   8   9
ATOM      9  C   LIG    1       10.008  -0.649   2.488  0.00  0.00    -0.020 A 
ATOM     10  C   LIG    1        9.482  -0.760   3.762  0.00  0.00    +0.000 A 
ATOM     11  C   LIG    1        8.583  -1.769   4.053  0.00  0.00    +0.000 A 
ATOM     12  C   LIG    1        8.218  -2.673   3.073  0.00  0.00    -0.020 A 
ATOM     13  C   LIG    1        8.748  -2.565   1.801  0.00  0.00    +0.000 A 
ATOM     14  C   LIG    1        9.643  -1.553   1.508  0.00  0.00    -0.010 A 
ENDBRANCH   8   9
BRANCH   8  16
ATOM     15  C   LIG    1       12.950  -0.976   2.746  0.00  0.00    +0.010 C 
ATOM     16  C   LIG    1       12.213   0.324   3.072  0.00  0.00    +0.020 C 
ENDBRANCH   8  16
ENDBRANCH   1   8
BRANCH   6  17
ATOM     17  C   LIG    1        7.119   1.632   0.232  0.00  0.00    +0.060 C 
BRANCH  17  18
ATOM     18  C   LIG    1        5.985   0.605   0.259  0.00  0.00    +0.210 C 
BRANCH  18  19
ATOM     19  C   LIG    1        4.946   0.977  -0.767  0.00  0.00    +0.210 A 
ATOM     20  N   LIG    1        4.934   0.583  -2.009  0.00  0.00    -0.480 NA
ATOM     21  C   LIG    1        3.864   1.110  -2.623  0.00  0.00    +0.190 A 
ATOM     22  C   LIG    1        3.196   1.859  -1.708  0.00  0.00    -0.020 A 
ATOM     23  O   LIG    1        3.888   1.772  -0.551  0.00  0.00    -0.190 OA
BRANCH  22  24
ATOM     24  C   LIG    1        1.954   2.627  -1.936  0.00  0.00    -0.090 A 
ATOM     25  C   LIG    1        0.765   1.963  -2.247  0.00  0.00    +0.160 A 
ATOM     26  C   LIG    1       -0.392   2.689  -2.463  0.00  0.00    -0.010 A 
ATOM     27  C   LIG    1       -0.376   4.069  -2.362  0.00  0.00    +0.110 A 
ATOM     28  C   LIG    1        0.798   4.733  -2.055  0.00  0.00    -0.010 A 
ATOM     29  F   LIG    1        0.746   0.616  -2.341  0.00  0.00    -0.120 F 
ATOM     30  C   LIG    1        1.963   4.021  -1.841  0.00  0.00    +0.160 A 
ATOM     31  F   LIG    1        3.109   4.672  -1.541  0.00  0.00    -0.120 F 
ENDBRANCH  22  24
ENDBRANCH  18  19
ENDBRANCH  17  18
ENDBRANCH   6  17
TORSDOF 7
