REMARK  Name = ZINCpe00000MIUUn.2
REMARK                            x       y       z     vdW  Elec       q    Type
REMARK                         _______ _______ _______ _____ _____    ______ ____
ROOT
ATOM      1  C   LIG    1        2.635   5.851   2.204  0.00  0.00    +0.530 C 
ATOM      2  N   LIG    1        1.789   5.267   1.332  0.00  0.00    -0.610 N 
ATOM      3  C   LIG    1        1.124   6.052   0.280  0.00  0.00    +0.260 C 
ATOM      4  C   LIG    1        1.339   5.342  -1.062  0.00  0.00    +0.230 C 
ATOM      5  O   LIG    1        0.938   3.975  -0.941  0.00  0.00    -0.360 OA
ATOM      6  C   LIG    1        1.700   3.223   0.007  0.00  0.00    +0.270 C 
ATOM      7  C   LIG    1        1.504   3.825   1.403  0.00  0.00    +0.280 C 
ATOM      8  O   LIG    1        3.105   5.206   3.116  0.00  0.00    -0.520 OA
ENDROOT
BRANCH   1  13
ATOM      9  C   LIG    1        5.096  11.014   2.061  0.00  0.00    +0.280 C 
ATOM     10  N   LIG    1        4.464   9.694   2.114  0.00  0.00    -0.610 N 
ATOM     11  C   LIG    1        3.603   9.394   3.252  0.00  0.00    +0.260 C 
ATOM     12  C   LIG    1        3.418   7.884   3.400  0.00  0.00    +0.060 C 
ATOM     13  C   LIG    1        2.995   7.305   2.044  0.00  0.00    -0.010 C 
ATOM     14  C   LIG    1        4.169   7.442   1.071  0.00  0.00    +0.100 C 
ATOM     15  C   LIG    1        4.712   8.841   1.119  0.00  0.00    +0.520 C 
ATOM     16  O   LIG    1        5.413   9.216   0.204  0.00  0.00    -0.550 OA
ENDBRANCH   1  13
BRANCH   6  17
ATOM     17  C   LIG    1        1.232   1.791   0.006  0.00  0.00    +0.230 A 
ATOM     18  N   LIG    1       -0.015   1.399   0.011  0.00  0.00    -0.280 NA
ATOM     19  N   LIG    1        0.001  -0.006   0.007  0.00  0.00    -0.480 N 
ATOM     20  H   LIG    1       -0.768  -0.596   0.010  0.00  0.00    +0.440 HD
ATOM     21  C   LIG    1        1.296  -0.369   0.001  0.00  0.00    +0.300 A 
ATOM     22  N   LIG    1        2.023   0.718   0.000  0.00  0.00    -0.520 NA
BRANCH  21  23
ATOM     23  C   LIG    1        1.818  -1.783  -0.004  0.00  0.00    +0.010 C 
ATOM     24  C   LIG    1        2.571  -2.053   1.300  0.00  0.00    +0.060 C 
ATOM     25  C   LIG    1        2.765  -1.973  -1.189  0.00  0.00    +0.060 C 
ATOM     26  C   LIG    1        0.646  -2.759  -0.126  0.00  0.00    +0.040 C 
ENDBRANCH  21  23
ENDBRANCH   6  17
TORSDOF 3
