REMARK  Name = ZINCpe00000MIUUn.0
REMARK                            x       y       z     vdW  Elec       q    Type
REMARK                         _______ _______ _______ _____ _____    ______ ____
ROOT
ATOM      1  C   LIG    1        0.449  -1.389   1.978  0.00  0.00    +0.530 C 
ATOM      2  N   LIG    1        0.632  -0.153   1.474  0.00  0.00    -0.620 N 
ATOM      3  C   LIG    1       -0.215   0.353   0.382  0.00  0.00    +0.260 C 
ATOM      4  C   LIG    1       -0.750   1.732   0.784  0.00  0.00    +0.240 C 
ATOM      5  O   LIG    1        0.343   2.565   1.178  0.00  0.00    -0.380 OA
ATOM      6  C   LIG    1        1.057   2.092   2.322  0.00  0.00    +0.270 C 
ATOM      7  C   LIG    1        1.685   0.731   1.999  0.00  0.00    +0.270 C 
ATOM      8  O   LIG    1       -0.477  -2.070   1.593  0.00  0.00    -0.520 OA
ENDROOT
BRANCH   1  13
ATOM      9  C   LIG    1        3.865  -4.502   5.352  0.00  0.00    +0.280 C 
ATOM     10  N   LIG    1        2.977  -3.712   4.496  0.00  0.00    -0.610 N 
ATOM     11  C   LIG    1        1.621  -3.460   4.967  0.00  0.00    +0.270 C 
ATOM     12  C   LIG    1        0.716  -3.055   3.803  0.00  0.00    +0.060 C 
ATOM     13  C   LIG    1        1.395  -1.925   3.021  0.00  0.00    -0.010 C 
ATOM     14  C   LIG    1        2.645  -2.490   2.341  0.00  0.00    +0.090 C 
ATOM     15  C   LIG    1        3.459  -3.269   3.334  0.00  0.00    +0.520 C 
ATOM     16  O   LIG    1        4.618  -3.507   3.065  0.00  0.00    -0.550 OA
ENDBRANCH   1  13
BRANCH   6  17
ATOM     17  C   LIG    1        2.142   3.074   2.682  0.00  0.00    +0.290 A 
ATOM     18  N   LIG    1        2.545   3.365   3.892  0.00  0.00    -0.520 NA
ATOM     19  C   LIG    1        3.521   4.271   3.838  0.00  0.00    +0.240 A 
ATOM     20  N   LIG    1        3.747   4.576   2.587  0.00  0.00    -0.300 NA
ATOM     21  N   LIG    1        2.860   3.809   1.815  0.00  0.00    -0.460 N 
ATOM     22  H   LIG    1        2.781   3.809   0.848  0.00  0.00    +0.450 HD
BRANCH  19  23
ATOM     23  C   LIG    1        4.243   4.852   5.026  0.00  0.00    +0.030 C 
ATOM     24  C   LIG    1        4.937   3.729   5.800  0.00  0.00    +0.060 C 
ATOM     25  C   LIG    1        3.237   5.556   5.940  0.00  0.00    +0.060 C 
ATOM     26  C   LIG    1        5.287   5.861   4.545  0.00  0.00    +0.050 C 
ENDBRANCH  19  23
ENDBRANCH   6  17
TORSDOF 3
