REMARK  Name = ZINCqH0000051kT7.0
REMARK                            x       y       z     vdW  Elec       q    Type
REMARK                         _______ _______ _______ _____ _____    ______ ____
ROOT
ATOM      1  C   LIG    1       -0.536   6.569   0.058  0.00  0.00    +0.290 C 
ENDROOT
BRANCH   1   2
ATOM      2  C   LIG    1        0.021   7.994   0.045  0.00  0.00    +0.000 C 
ATOM      3  C   LIG    1        0.731   8.298  -1.295  0.00  0.00    +0.080 C 
ATOM      4  C   LIG    1        0.389   9.745  -1.575  0.00  0.00    +0.520 C 
ATOM      5  N   LIG    1       -0.646  10.132  -0.811  0.00  0.00    -0.560 N 
ATOM      6  O   LIG    1        0.966  10.452  -2.374  0.00  0.00    -0.500 OA
ATOM      7  C   LIG    1       -1.120   9.034   0.040  0.00  0.00    +0.290 C 
BRANCH   5   8
ATOM      8  C   LIG    1       -1.201  11.417  -0.824  0.00  0.00    +0.170 A 
ATOM      9  C   LIG    1       -0.604  12.424  -1.571  0.00  0.00    +0.020 A 
ATOM     10  C   LIG    1       -1.156  13.690  -1.586  0.00  0.00    +0.060 A 
ATOM     11  C   LIG    1       -2.297  13.958  -0.850  0.00  0.00    -0.060 A 
ATOM     12  C   LIG    1       -2.890  12.957  -0.101  0.00  0.00    +0.060 A 
ATOM     13 CL   LIG    1       -2.984  15.552  -0.867  0.00  0.00    -0.070 Cl
ATOM     14  C   LIG    1       -2.345  11.688  -0.086  0.00  0.00    -0.010 A 
ENDBRANCH   5   8
ENDBRANCH   1   2
BRANCH   1  17
ATOM     15  O   LIG    1       -0.831   3.888   0.067  0.00  0.00    -0.500 OA
ATOM     16  C   LIG    1        0.318   4.287   0.041  0.00  0.00    +0.560 C 
ATOM     17  N   LIG    1        0.572   5.611   0.034  0.00  0.00    -0.730 N 
ATOM     18  H   LIG    1        1.488   5.929   0.014  0.00  0.00    +0.400 HD
BRANCH  16  19
ATOM     19  C   LIG    1        1.433   3.323   0.017  0.00  0.00    -0.090 A 
ATOM     20  C   LIG    1        1.165   1.925   0.023  0.00  0.00    +0.130 A 
ATOM     21  N   LIG    1       -0.006   1.282   0.049  0.00  0.00    -0.440 NA
ATOM     22  C   LIG    1        0.011   0.000   0.049  0.00  0.00    +0.290 A 
ATOM     23  S   LIG    1        1.609  -0.600   0.014  0.00  0.00    +0.110 S 
ATOM     24  C   LIG    1        2.249   1.040  -0.001  0.00  0.00    -0.200 A 
ATOM     25  C   LIG    1        3.554   1.524  -0.030  0.00  0.00    +0.100 A 
ATOM     26  C   LIG    1        3.796   2.882  -0.036  0.00  0.00    +0.040 A 
ATOM     27  C   LIG    1        2.744   3.778  -0.013  0.00  0.00    +0.070 A 
ENDBRANCH  16  19
ENDBRANCH   1  17
TORSDOF 4
