REMARK  Name = ZINCpk000000ooVq.0
REMARK                            x       y       z     vdW  Elec       q    Type
REMARK                         _______ _______ _______ _____ _____    ______ ____
ROOT
ATOM      1  C   LIG    1        4.826  -4.379  -3.414  0.00  0.00    +0.520 C 
ATOM      2  N   LIG    1        5.355  -5.510  -3.921  0.00  0.00    -0.730 N 
ATOM      3  H   LIG    1        4.775  -6.237  -4.194  0.00  0.00    +0.400 HD
ATOM      4  O   LIG    1        5.552  -3.470  -3.072  0.00  0.00    -0.530 OA
ENDROOT
BRANCH   1   9
ATOM      5  N   LIG    1        1.537  -2.706  -2.665  0.00  0.00    -1.000 NA
ATOM      6  C   LIG    1        0.794  -2.902  -3.918  0.00  0.00    +0.280 C 
ATOM      7  C   LIG    1        1.155  -4.267  -4.502  0.00  0.00    +0.020 C 
ATOM      8  C   LIG    1        2.675  -4.371  -4.649  0.00  0.00    +0.030 C 
ATOM      9  C   LIG    1        3.332  -4.244  -3.272  0.00  0.00    -0.010 C 
ATOM     10  C   LIG    1        2.997  -2.873  -2.676  0.00  0.00    +0.320 C 
BRANCH   5  11
ATOM     11  S   LIG    1        0.743  -2.311  -1.267  0.00  0.00    +2.600 S 
ATOM     12  O   LIG    1       -0.569  -2.827  -1.451  0.00  0.00    -0.950 OA
ATOM     13  O   LIG    1        1.585  -2.804  -0.234  0.00  0.00    -0.950 OA
BRANCH  11  14
ATOM     14  C   LIG    1        0.718  -0.497  -1.257  0.00  0.00    -0.370 C 
BRANCH  14  16
ATOM     15  C   LIG    1       -0.019   1.526   0.010  0.00  0.00    +0.030 C 
ATOM     16  C   LIG    1        0.002  -0.004   0.002  0.00  0.00    +0.040 C 
ENDBRANCH  14  16
ENDBRANCH  11  14
ENDBRANCH   5  11
ENDBRANCH   1   9
BRANCH   2  17
ATOM     17  C   LIG    1        6.808  -5.641  -4.058  0.00  0.00    +0.330 C 
BRANCH  17  18
ATOM     18  C   LIG    1        7.137  -6.990  -4.645  0.00  0.00    -0.100 A 
ATOM     19  C   LIG    1        7.225  -7.142  -6.016  0.00  0.00    +0.050 A 
ATOM     20  C   LIG    1        7.527  -8.378  -6.559  0.00  0.00    +0.040 A 
ATOM     21  C   LIG    1        7.742  -9.466  -5.730  0.00  0.00    +0.040 A 
ATOM     22  O   LIG    1        8.048 -10.767  -6.005  0.00  0.00    -0.310 OA
ATOM     23  C   LIG    1        8.548 -11.314  -4.770  0.00  0.00    +0.430 C 
ATOM     24  O   LIG    1        7.904 -10.517  -3.758  0.00  0.00    -0.310 OA
ATOM     25  C   LIG    1        7.653  -9.312  -4.348  0.00  0.00    +0.030 A 
ATOM     26  C   LIG    1        7.356  -8.070  -3.811  0.00  0.00    +0.060 A 
ENDBRANCH  17  18
ENDBRANCH   2  17
TORSDOF 6
