REMARK  Name = ZINCqH0000036lfi.0
REMARK                            x       y       z     vdW  Elec       q    Type
REMARK                         _______ _______ _______ _____ _____    ______ ____
ROOT
ATOM      1  C   LIG    1       -2.172   2.149   4.022  0.00  0.00    -0.020 A 
ATOM      2  C   LIG    1       -0.780   2.090   3.997  0.00  0.00    +0.020 A 
ATOM      3  C   LIG    1       -0.035   3.172   4.420  0.00  0.00    +0.030 A 
ATOM      4  C   LIG    1       -0.665   4.317   4.868  0.00  0.00    +0.020 A 
ATOM      5  C   LIG    1       -2.052   4.386   4.896  0.00  0.00    +0.160 A 
ATOM      6  C   LIG    1       -2.808   3.305   4.469  0.00  0.00    -0.010 A 
ENDROOT
BRANCH   1  12
ATOM      7  C   LIG    1       -2.703   0.383   2.337  0.00  0.00    +0.140 A 
ATOM      8  C   LIG    1       -3.454  -0.705   1.923  0.00  0.00    -0.080 A 
ATOM      9  C   LIG    1       -4.472  -1.188   2.724  0.00  0.00    +0.050 A 
ATOM     10  C   LIG    1       -4.748  -0.589   3.940  0.00  0.00    -0.030 A 
ATOM     11  C   LIG    1       -4.007   0.497   4.364  0.00  0.00    +0.060 A 
ATOM     12  C   LIG    1       -2.975   0.987   3.568  0.00  0.00    -0.080 A 
BRANCH   7  14
ATOM     13  C   LIG    1       -1.477   0.188   0.310  0.00  0.00    +0.240 C 
ATOM     14  O   LIG    1       -1.701   0.859   1.552  0.00  0.00    -0.310 OA
ENDBRANCH   7  14
ENDBRANCH   1  12
BRANCH   5  15
ATOM     15  N   LIG    1       -2.687   5.548   5.351  0.00  0.00    -0.680 N 
ATOM     16  H   LIG    1       -3.519   5.836   4.946  0.00  0.00    +0.410 HD
ATOM     17  C   LIG    1       -2.140   6.266   6.353  0.00  0.00    +0.710 C 
ATOM     18  N   LIG    1       -2.796   7.331   6.853  0.00  0.00    -0.620 N 
ATOM     19  C   LIG    1       -4.103   7.710   6.309  0.00  0.00    +0.280 C 
ATOM     20  O   LIG    1       -1.056   5.952   6.804  0.00  0.00    -0.570 OA
BRANCH  18  21
ATOM     21  C   LIG    1       -2.203   8.112   7.942  0.00  0.00    +0.240 C 
ATOM     22  C   LIG    1       -3.119   8.052   9.160  0.00  0.00    +0.060 C 
ATOM     23  C   LIG    1       -2.399   8.624  10.384  0.00  0.00    -0.230 C 
ATOM     24  S   LIG    1       -2.028  10.377  10.081  0.00  0.00    +1.240 S 
ATOM     25  C   LIG    1       -1.150  10.315   8.491  0.00  0.00    -0.230 C 
ATOM     26  O   LIG    1       -1.149  10.857  11.089  0.00  0.00    -0.850 OA
ATOM     27  C   LIG    1       -2.011   9.553   7.480  0.00  0.00    +0.060 C 
ENDBRANCH  18  21
ENDBRANCH   5  15
TORSDOF 4
