REMARK  Name = ZINCpe000000XRZ3.0
REMARK                            x       y       z     vdW  Elec       q    Type
REMARK                         _______ _______ _______ _____ _____    ______ ____
ROOT
ATOM      1  N   LIG    1       -7.404   3.618   0.769  0.00  0.00    -0.710 N 
ATOM      2  H   LIG    1       -7.413   4.588   0.769  0.00  0.00    +0.420 HD
ATOM      3  C   LIG    1       -8.546   2.933   0.564  0.00  0.00    +0.580 C 
ATOM      4  O   LIG    1       -8.520   1.721   0.474  0.00  0.00    -0.530 OA
ENDROOT
BRANCH   3   5
ATOM      5  C   LIG    1       -9.827   3.653   0.449  0.00  0.00    -0.240 A 
ATOM      6  C   LIG    1      -11.035   2.968   0.341  0.00  0.00    +0.060 A 
ATOM      7  C   LIG    1      -12.211   3.721   0.240  0.00  0.00    +0.050 A 
ATOM      8  N   LIG    1      -12.167   5.026   0.238  0.00  0.00    -0.200 NA
ATOM      9  N   LIG    1      -11.072   5.687   0.332  0.00  0.00    -0.340 N 
ATOM     10  C   LIG    1      -11.123   7.151   0.321  0.00  0.00    +0.370 C 
ATOM     11  C   LIG    1      -13.540   3.019   0.125  0.00  0.00    +0.170 C 
ATOM     12  C   LIG    1      -11.075   1.462   0.338  0.00  0.00    +0.160 C 
ATOM     13  C   LIG    1       -9.877   5.075   0.439  0.00  0.00    +0.500 A 
ATOM     14  O   LIG    1       -8.853   5.731   0.525  0.00  0.00    -0.530 OA
ENDBRANCH   3   5
BRANCH   1  15
ATOM     15  C   LIG    1       -6.147   2.898   0.993  0.00  0.00    +0.270 C 
BRANCH  15  16
ATOM     16  C   LIG    1       -5.013   3.904   1.197  0.00  0.00    +0.270 C 
BRANCH  16  18
ATOM     17  C   LIG    1       -2.614   3.869   1.626  0.00  0.00    +0.560 C 
ATOM     18  N   LIG    1       -3.756   3.184   1.421  0.00  0.00    -0.720 N 
ATOM     19  H   LIG    1       -3.747   2.214   1.421  0.00  0.00    +0.400 HD
ATOM     20  O   LIG    1       -2.626   5.084   1.626  0.00  0.00    -0.530 OA
BRANCH  17  26
ATOM     21  C   LIG    1        2.298   3.926   2.504  0.00  0.00    +0.090 C 
ATOM     22  C   LIG    1        1.018   3.164   2.275  0.00  0.00    -0.090 A 
ATOM     23  C   LIG    1        1.028   1.781   2.275  0.00  0.00    +0.040 A 
ATOM     24  C   LIG    1       -0.143   1.075   2.065  0.00  0.00    +0.010 A 
ATOM     25  C   LIG    1       -1.328   1.746   1.848  0.00  0.00    +0.040 A 
ATOM     26  C   LIG    1       -1.347   3.142   1.852  0.00  0.00    -0.130 A 
ATOM     27  C   LIG    1       -0.162   3.849   2.064  0.00  0.00    +0.080 A 
ENDBRANCH  17  26
ENDBRANCH  16  18
ENDBRANCH  15  16
ENDBRANCH   1  15
TORSDOF 5
