REMARK  Name = ZINCc70000000hpP.0
REMARK                            x       y       z     vdW  Elec       q    Type
REMARK                         _______ _______ _______ _____ _____    ______ ____
ROOT
ATOM      1  C   LIG    1        1.418   1.990  -0.001  0.00  0.00    +0.260 C 
ENDROOT
BRANCH   1   3
ATOM      2  C   LIG    1        2.556   4.145  -0.000  0.00  0.00    +0.550 C 
ATOM      3  N   LIG    1        1.398   3.455   0.007  0.00  0.00    -0.730 N 
ATOM      4  H   LIG    1        0.551   3.929   0.018  0.00  0.00    +0.400 HD
ATOM      5  O   LIG    1        3.617   3.551  -0.013  0.00  0.00    -0.540 OA
BRANCH   2   7
ATOM      6  C   LIG    1        3.678   6.296   0.001  0.00  0.00    +0.150 C 
ATOM      7  C   LIG    1        2.536   5.616   0.008  0.00  0.00    -0.090 C 
ENDBRANCH   2   7
ENDBRANCH   1   3
BRANCH   1   8
ATOM      8  C   LIG    1       -0.018   1.461   0.010  0.00  0.00    +0.320 C 
BRANCH   8   9
ATOM      9  N   LIG    1        0.002  -0.004   0.002  0.00  0.00    -0.380 N 
ATOM     10  C   LIG    1       -0.604  -0.811   0.897  0.00  0.00    +0.230 A 
ATOM     11  C   LIG    1       -0.347  -2.091   0.540  0.00  0.00    -0.120 A 
ATOM     12  C   LIG    1        0.444  -2.065  -0.614  0.00  0.00    +0.240 A 
ATOM     13  N   LIG    1        0.649  -0.814  -0.940  0.00  0.00    -0.290 NA
ENDBRANCH   8   9
ENDBRANCH   1   8
TORSDOF 4
