REMARK  Name = ZINCnE000001TwqC.1
REMARK                            x       y       z     vdW  Elec       q    Type
REMARK                         _______ _______ _______ _____ _____    ______ ____
ROOT
ATOM      1  O   LIG    1       -1.877   0.099   2.680  0.00  0.00    -0.570 OA
ATOM      2  C   LIG    1       -0.827   0.602   2.340  0.00  0.00    +0.460 C 
ATOM      3  N   LIG    1        0.319   0.251   2.957  0.00  0.00    -0.650 NA
ENDROOT
BRANCH   3   4
ATOM      4  C   LIG    1        0.297  -0.683   3.980  0.00  0.00    +0.410 A 
ATOM      5  N   LIG    1        1.333  -1.084   4.631  0.00  0.00    -0.560 NA
ATOM      6  C   LIG    1        1.151  -2.000   5.603  0.00  0.00    +0.140 A 
ATOM      7  C   LIG    1        2.113  -2.592   6.449  0.00  0.00    +0.010 A 
ATOM      8  C   LIG    1        1.735  -3.517   7.390  0.00  0.00    +0.010 A 
ATOM      9  C   LIG    1        0.404  -3.884   7.524  0.00  0.00    -0.040 A 
ATOM     10  C   LIG    1       -0.552  -3.320   6.710  0.00  0.00    +0.050 A 
ATOM     11  C   LIG    1       -0.187  -2.380   5.749  0.00  0.00    -0.240 A 
ATOM     12  S   LIG    1       -1.150  -1.483   4.578  0.00  0.00    -0.030 S 
ENDBRANCH   3   4
BRANCH   2  13
ATOM     13  C   LIG    1       -0.803   1.618   1.227  0.00  0.00    +0.160 C 
ATOM     14  C   LIG    1       -0.013   1.086   0.008  0.00  0.00    +0.090 C 
ATOM     15  C   LIG    1       -0.810   1.620  -1.166  0.00  0.00    +0.110 C 
ATOM     16  N   LIG    1       -1.965   2.001  -0.732  0.00  0.00    -0.290 NA
ATOM     17  O   LIG    1       -2.122   1.800   0.659  0.00  0.00    -0.170 OA
BRANCH  15  18
ATOM     18  C   LIG    1       -0.346   1.692  -2.566  0.00  0.00    -0.030 A 
ATOM     19  C   LIG    1        0.934   1.249  -2.904  0.00  0.00    +0.040 A 
ATOM     20  C   LIG    1        1.359   1.313  -4.215  0.00  0.00    +0.010 A 
ATOM     21  C   LIG    1        0.524   1.827  -5.192  0.00  0.00    +0.010 A 
ATOM     22  C   LIG    1       -0.744   2.272  -4.863  0.00  0.00    +0.010 A 
ATOM     23  C   LIG    1       -1.184   2.208  -3.557  0.00  0.00    +0.050 A 
ENDBRANCH  15  18
ENDBRANCH   2  13
TORSDOF 3
