REMARK  Name = ZINCqH0000004VnK.0
REMARK                            x       y       z     vdW  Elec       q    Type
REMARK                         _______ _______ _______ _____ _____    ______ ____
ROOT
ATOM      1  N   LIG    1       -0.017   1.367   0.010  0.00  0.00    -0.380 N 
ATOM      2  N   LIG    1        1.307   1.821  -0.001  0.00  0.00    -0.230 NA
ATOM      3  C   LIG    1        2.122   0.805  -0.014  0.00  0.00    +0.310 A 
ATOM      4  C   LIG    1        1.360  -0.383  -0.013  0.00  0.00    -0.180 A 
ATOM      5  C   LIG    1        1.693  -1.758  -0.023  0.00  0.00    +0.000 A 
ATOM      6  C   LIG    1        0.654  -2.680  -0.018  0.00  0.00    -0.030 A 
ATOM      7  C   LIG    1       -0.670  -2.220  -0.003  0.00  0.00    +0.270 A 
ATOM      8  N   LIG    1       -0.950  -0.925   0.006  0.00  0.00    -0.480 NA
ATOM      9  C   LIG    1        0.002  -0.004   0.002  0.00  0.00    +0.320 A 
ENDROOT
BRANCH   7  10
ATOM     10  C   LIG    1       -1.774  -3.199   0.003  0.00  0.00    -0.170 A 
ATOM     11  C   LIG    1       -3.088  -2.891   0.023  0.00  0.00    +0.070 A 
ATOM     12  C   LIG    1       -3.935  -3.978   0.019  0.00  0.00    +0.010 A 
ATOM     13  C   LIG    1       -3.327  -5.169   0.008  0.00  0.00    -0.030 A 
ATOM     14  S   LIG    1       -1.583  -4.947  -0.007  0.00  0.00    +0.140 S 
ENDBRANCH   7  10
BRANCH   5  15
ATOM     15  C   LIG    1        3.104  -2.200  -0.039  0.00  0.00    +0.560 C 
ATOM     16  N   LIG    1        3.397  -3.515  -0.049  0.00  0.00    -0.720 N 
ATOM     17  H   LIG    1        2.683  -4.172  -0.045  0.00  0.00    +0.400 HD
ATOM     18  O   LIG    1        3.998  -1.377  -0.044  0.00  0.00    -0.520 OA
BRANCH  16  19
ATOM     19  C   LIG    1        4.795  -3.954  -0.065  0.00  0.00    +0.280 C 
BRANCH  19  20
ATOM     20  C   LIG    1        4.850  -5.482  -0.073  0.00  0.00    +0.030 C 
BRANCH  20  21
ATOM     21  C   LIG    1        6.310  -5.940  -0.090  0.00  0.00    +0.170 C 
BRANCH  21  22
ATOM     22  O   LIG    1        6.362  -7.368  -0.098  0.00  0.00    -0.380 OA
BRANCH  22  23
ATOM     23  C   LIG    1        7.687  -7.902  -0.114  0.00  0.00    +0.140 C 
ATOM     24  C   LIG    1        8.146  -8.085  -1.562  0.00  0.00    +0.010 C 
ATOM     25  C   LIG    1        7.701  -9.255   0.601  0.00  0.00    +0.040 C 
ENDBRANCH  22  23
ENDBRANCH  21  22
ENDBRANCH  20  21
ENDBRANCH  19  20
ENDBRANCH  16  19
ENDBRANCH   5  15
BRANCH   1  27
ATOM     26  C   LIG    1       -1.624   2.496   1.466  0.00  0.00    +0.030 C 
ATOM     27  C   LIG    1       -1.214   2.210   0.020  0.00  0.00    +0.340 C 
ENDBRANCH   1  27
TORSDOF 8
