REMARK  Name = ZINCqH0000006iFp.0
REMARK                            x       y       z     vdW  Elec       q    Type
REMARK                         _______ _______ _______ _____ _____    ______ ____
ROOT
ATOM      1  S   LIG    1       -0.860   1.669   1.497  0.00  0.00    +0.080 S 
ENDROOT
BRANCH   1  10
ATOM      2  N   LIG    1       -0.012   1.090   4.083  0.00  0.00    -0.470 N 
ATOM      3  C   LIG    1        1.008   0.391   4.707  0.00  0.00    +0.060 A 
ATOM      4  C   LIG    1        1.344   0.161   6.032  0.00  0.00    +0.010 A 
ATOM      5  C   LIG    1        2.453  -0.602   6.337  0.00  0.00    +0.030 A 
ATOM      6  C   LIG    1        3.235  -1.139   5.326  0.00  0.00    +0.010 A 
ATOM      7  C   LIG    1        2.916  -0.921   4.004  0.00  0.00    +0.060 A 
ATOM      8  C   LIG    1        1.796  -0.152   3.679  0.00  0.00    +0.060 A 
ATOM      9  N   LIG    1        1.234   0.226   2.501  0.00  0.00    -0.490 NA
ATOM     10  C   LIG    1        0.174   0.961   2.735  0.00  0.00    +0.250 A 
BRANCH   2  11
ATOM     11  C   LIG    1       -1.090   1.831   4.744  0.00  0.00    +0.330 C 
BRANCH  11  12
ATOM     12  C   LIG    1       -2.281   0.899   4.975  0.00  0.00    +0.170 C 
BRANCH  12  14
ATOM     13  C   LIG    1       -4.499   0.838   5.883  0.00  0.00    +0.210 C 
ATOM     14  O   LIG    1       -3.333   1.621   5.619  0.00  0.00    -0.390 OA
ENDBRANCH  12  14
ENDBRANCH  11  12
ENDBRANCH   2  11
ENDBRANCH   1  10
BRANCH   1  15
ATOM     15  C   LIG    1       -0.013   1.086   0.008  0.00  0.00    +0.110 C 
BRANCH  15  16
ATOM     16  C   LIG    1       -0.742   1.585  -1.213  0.00  0.00    +0.530 C 
ATOM     17  N   LIG    1       -0.288   1.272  -2.443  0.00  0.00    -0.720 N 
ATOM     18  H   LIG    1        0.507   0.726  -2.543  0.00  0.00    +0.400 HD
ATOM     19  O   LIG    1       -1.736   2.268  -1.088  0.00  0.00    -0.520 OA
BRANCH  17  20
ATOM     20  C   LIG    1       -0.997   1.758  -3.630  0.00  0.00    +0.250 C 
ATOM     21  C   LIG    1       -2.141   0.800  -3.968  0.00  0.00    +0.000 C 
ATOM     22  C   LIG    1       -2.881   1.307  -5.207  0.00  0.00    +0.020 C 
ATOM     23  C   LIG    1       -1.910   1.378  -6.388  0.00  0.00    +0.010 C 
ATOM     24  C   LIG    1       -0.766   2.336  -6.050  0.00  0.00    +0.000 C 
ATOM     25  C   LIG    1       -1.333   3.729  -5.771  0.00  0.00    +0.020 C 
ATOM     26  C   LIG    1       -0.026   1.829  -4.810  0.00  0.00    -0.010 C 
ATOM     27  C   LIG    1        1.118   2.787  -4.472  0.00  0.00    +0.020 C 
ENDBRANCH  17  20
ENDBRANCH  15  16
ENDBRANCH   1  15
TORSDOF 7
