REMARK  Name = ZINCvU0000000GYJ.0
REMARK                            x       y       z     vdW  Elec       q    Type
REMARK                         _______ _______ _______ _____ _____    ______ ____
ROOT
ATOM      1  C   LIG    1        3.582   0.861  -0.027  0.00  0.00    +0.280 A 
ATOM      2  N   LIG    1        4.309   1.954  -0.033  0.00  0.00    -0.270 NA
ATOM      3  N   LIG    1        5.558   1.652  -0.042  0.00  0.00    -0.290 NA
ATOM      4  C   LIG    1        5.708   0.347  -0.050  0.00  0.00    +0.150 A 
ATOM      5  N   LIG    1        4.455  -0.204  -0.041  0.00  0.00    -0.410 N 
ENDROOT
BRANCH   1   8
ATOM      6  C   LIG    1        1.601   3.291   0.004  0.00  0.00    +0.200 C 
ATOM      7  C   LIG    1        1.231   1.830   0.000  0.00  0.00    +0.070 A 
ATOM      8  C   LIG    1        2.105   0.788  -0.014  0.00  0.00    -0.140 A 
ATOM      9  C   LIG    1        1.277  -0.425  -0.012  0.00  0.00    -0.040 A 
ATOM     10  C   LIG    1        0.002  -0.004   0.002  0.00  0.00    +0.180 A 
ATOM     11  O   LIG    1       -0.016   1.337   0.009  0.00  0.00    -0.170 OA
ENDBRANCH   1   8
BRANCH   5  12
ATOM     12  C   LIG    1        4.128  -1.568  -0.044  0.00  0.00    +0.100 A 
ATOM     13  C   LIG    1        3.488  -2.133   1.050  0.00  0.00    +0.030 A 
ATOM     14  C   LIG    1        3.164  -3.475   1.042  0.00  0.00    +0.030 A 
ATOM     15  C   LIG    1        3.486  -4.259  -0.051  0.00  0.00    +0.030 A 
ATOM     16  C   LIG    1        4.127  -3.700  -1.141  0.00  0.00    +0.040 A 
ATOM     17  C   LIG    1        4.450  -2.357  -1.140  0.00  0.00    +0.030 A 
ENDBRANCH   5  12
BRANCH   4  18
ATOM     18  S   LIG    1        7.237  -0.529  -0.068  0.00  0.00    +0.090 S 
BRANCH  18  19
ATOM     19  C   LIG    1        8.396   0.861  -0.073  0.00  0.00    +0.110 C 
BRANCH  19  20
ATOM     20  C   LIG    1        9.809   0.336  -0.088  0.00  0.00    +0.540 C 
ATOM     21  N   LIG    1       10.847   1.196  -0.094  0.00  0.00    -0.600 N 
ATOM     22  C   LIG    1       10.624   2.650  -0.091  0.00  0.00    +0.270 C 
ATOM     23  C   LIG    1       11.390   3.282  -1.251  0.00  0.00    +0.010 C 
ATOM     24  C   LIG    1       12.862   2.865  -1.188  0.00  0.00    +0.020 C 
ATOM     25  C   LIG    1       12.958   1.344  -1.298  0.00  0.00    -0.030 C 
ATOM     26  C   LIG    1       14.418   0.893  -1.288  0.00  0.00    +0.020 C 
ATOM     27  C   LIG    1       14.470  -0.632  -1.426  0.00  0.00    +0.000 C 
ATOM     28  C   LIG    1       13.718  -1.284  -0.266  0.00  0.00    +0.000 C 
ATOM     29  C   LIG    1       12.261  -0.813  -0.260  0.00  0.00    +0.050 C 
ATOM     30  C   LIG    1       12.230   0.708  -0.109  0.00  0.00    +0.220 C 
ATOM     31  O   LIG    1       10.012  -0.860  -0.096  0.00  0.00    -0.520 OA
ENDBRANCH  19  20
ENDBRANCH  18  19
ENDBRANCH   4  18
TORSDOF 5
