REMARK  Name = ZINCrH000004qy22.2
REMARK                            x       y       z     vdW  Elec       q    Type
REMARK                         _______ _______ _______ _____ _____    ______ ____
ROOT
ATOM      1  C   LIG    1        5.046   4.086  -0.853  0.00  0.00    +0.160 A 
ATOM      2  N   LIG    1        5.076   4.082   0.446  0.00  0.00    -0.360 NA
ATOM      3  O   LIG    1        3.989   3.776   0.890  0.00  0.00    +0.090 OA
ATOM      4  C   LIG    1        3.139   3.540  -0.114  0.00  0.00    +0.190 A 
ATOM      5  N   LIG    1        3.802   3.739  -1.228  0.00  0.00    -0.450 NA
ENDROOT
BRANCH   1   6
ATOM      6  C   LIG    1        6.193   4.420  -1.771  0.00  0.00    +0.350 C 
BRANCH   6   7
ATOM      7  O   LIG    1        6.190   5.822  -2.047  0.00  0.00    -0.310 OA
BRANCH   7  13
ATOM      8  C   LIG    1       10.129   4.958  -4.796  0.00  0.00    +0.090 C 
ATOM      9  C   LIG    1        9.104   5.902  -4.224  0.00  0.00    -0.040 A 
ATOM     10  C   LIG    1        9.158   7.249  -4.533  0.00  0.00    -0.030 A 
ATOM     11  C   LIG    1        8.218   8.119  -4.009  0.00  0.00    -0.040 A 
ATOM     12  C   LIG    1        7.223   7.643  -3.177  0.00  0.00    -0.030 A 
ATOM     13  C   LIG    1        7.167   6.292  -2.866  0.00  0.00    +0.140 A 
ATOM     14  C   LIG    1        8.280   9.586  -4.348  0.00  0.00    +0.090 C 
ATOM     15  C   LIG    1        8.114   5.423  -3.388  0.00  0.00    -0.090 A 
ENDBRANCH   7  13
ENDBRANCH   6   7
ENDBRANCH   1   6
BRANCH   4  16
ATOM     16  C   LIG    1        1.695   3.131   0.010  0.00  0.00    +0.350 C 
BRANCH  16  17
ATOM     17  N   LIG    1        1.589   1.669  -0.094  0.00  0.00    -0.520 NA
BRANCH  17  18
ATOM     18  C   LIG    1        0.203   1.258  -0.356  0.00  0.00    +0.210 C 
ATOM     19  C   LIG    1       -0.725   1.913   0.668  0.00  0.00    -0.030 C 
ATOM     20  C   LIG    1       -2.169   1.486   0.395  0.00  0.00    +0.010 C 
ATOM     21  C   LIG    1       -2.572   1.925  -1.014  0.00  0.00    +0.000 C 
ATOM     22  C   LIG    1       -1.644   1.270  -2.039  0.00  0.00    +0.000 C 
ATOM     23  C   LIG    1       -0.200   1.698  -1.765  0.00  0.00    +0.020 C 
ENDBRANCH  17  18
BRANCH  17  24
ATOM     24  C   LIG    1        2.112   1.016   1.114  0.00  0.00    +0.190 C 
BRANCH  24  25
ATOM     25  C   LIG    1        2.466  -0.437   0.796  0.00  0.00    +0.170 C 
ATOM     26  C   LIG    1        3.142  -1.076   2.011  0.00  0.00    +0.000 C 
BRANCH  25  27
ATOM     27  O   LIG    1        1.275  -1.160   0.479  0.00  0.00    -0.560 OA
ATOM     28  H   LIG    1        1.424  -2.091   0.266  0.00  0.00    +0.380 HD
ENDBRANCH  25  27
ENDBRANCH  24  25
ENDBRANCH  17  24
ENDBRANCH  16  17
ENDBRANCH   4  16
TORSDOF 9
