REMARK  Name = ZINCpe000027pGVJ.0
REMARK                            x       y       z     vdW  Elec       q    Type
REMARK                         _______ _______ _______ _____ _____    ______ ____
ROOT
ATOM      1  C   LIG    1        0.595  -2.677  -0.958  0.00  0.00    +0.520 C 
ATOM      2  N   LIG    1        1.248  -3.752  -1.442  0.00  0.00    -0.610 N 
ATOM      3  O   LIG    1        0.313  -1.757  -1.695  0.00  0.00    -0.510 OA
ENDROOT
BRANCH   1   4
ATOM      4  C   LIG    1        0.216  -2.620   0.499  0.00  0.00    +0.130 C 
BRANCH   4   8
ATOM      5  O   LIG    1       -3.389   0.438   1.080  0.00  0.00    -0.510 OA
ATOM      6  C   LIG    1       -2.190   0.230   1.098  0.00  0.00    +0.550 A 
ATOM      7  C   LIG    1       -1.683  -1.057   0.796  0.00  0.00    -0.100 A 
ATOM      8  C   LIG    1       -0.348  -1.259   0.818  0.00  0.00    +0.220 A 
ATOM      9  N   LIG    1        0.489  -0.223   1.131  0.00  0.00    -0.630 N 
ATOM     10  H   LIG    1        1.448  -0.369   1.147  0.00  0.00    +0.430 HD
ATOM     11  C   LIG    1       -0.005   0.995   1.416  0.00  0.00    +0.700 A 
ATOM     12  O   LIG    1        0.757   1.902   1.691  0.00  0.00    -0.540 OA
ATOM     13  N   LIG    1       -1.331   1.225   1.401  0.00  0.00    -0.660 N 
ATOM     14  H   LIG    1       -1.671   2.109   1.609  0.00  0.00    +0.430 HD
ENDBRANCH   4   8
ENDBRANCH   1   4
BRANCH   2  15
ATOM     15  C   LIG    1        1.472  -4.921  -0.587  0.00  0.00    +0.290 C 
BRANCH  15  16
ATOM     16  C   LIG    1        0.420  -5.988  -0.897  0.00  0.00    -0.050 C 
ATOM     17  C   LIG    1        0.409  -7.088   0.200  0.00  0.00    +0.020 C 
ATOM     18  C   LIG    1       -1.061  -7.571   0.117  0.00  0.00    +0.200 C 
ATOM     19  O   LIG    1       -1.829  -6.388  -0.155  0.00  0.00    -0.380 OA
ATOM     20  C   LIG    1       -1.005  -5.404  -0.789  0.00  0.00    +0.190 C 
ENDBRANCH  15  16
ENDBRANCH   2  15
BRANCH   2  21
ATOM     21  C   LIG    1        1.734  -3.753  -2.825  0.00  0.00    +0.290 C 
BRANCH  21  22
ATOM     22  C   LIG    1        3.157  -3.191  -2.865  0.00  0.00    -0.020 C 
ATOM     23  C   LIG    1        4.103  -4.131  -2.115  0.00  0.00    +0.060 C 
ATOM     24  C   LIG    1        5.530  -3.740  -2.373  0.00  0.00    -0.060 C 
ATOM     25  C   LIG    1        5.909  -2.971  -3.342  0.00  0.00    -0.050 C 
ATOM     26  C   LIG    1        4.973  -2.356  -4.342  0.00  0.00    +0.050 C 
ATOM     27  C   LIG    1        3.627  -3.083  -4.321  0.00  0.00    +0.030 C 
ENDBRANCH  21  22
ENDBRANCH   2  21
TORSDOF 6
