REMARK  Name = ZINCrD00000F5Lr7.0
REMARK                            x       y       z     vdW  Elec       q    Type
REMARK                         _______ _______ _______ _____ _____    ______ ____
ROOT
ATOM      1  N   LIG    1       -1.877   3.932  -0.082  0.00  0.00    -0.480 N 
ENDROOT
BRANCH   1   2
ATOM      2  C   LIG    1       -0.615   3.357  -0.096  0.00  0.00    +0.330 A 
ATOM      3  N   LIG    1        0.256   3.616   0.874  0.00  0.00    -0.520 NA
ATOM      4  C   LIG    1        1.456   3.071   0.864  0.00  0.00    +0.490 A 
ATOM      5  N   LIG    1        1.841   2.255  -0.096  0.00  0.00    -0.490 NA
ATOM      6  C   LIG    1        1.030   1.947  -1.098  0.00  0.00    +0.300 A 
ATOM      7  C   LIG    1       -0.237   2.499  -1.133  0.00  0.00    +0.040 A 
ATOM      8  F   LIG    1       -1.090   2.213  -2.142  0.00  0.00    -0.110 F 
ENDBRANCH   1   2
BRANCH   1   9
ATOM      9  C   LIG    1       -1.787   5.398  -0.093  0.00  0.00    +0.310 C 
BRANCH   9  14
ATOM     10  C   LIG    1       -0.334   7.151  -5.935  0.00  0.00    +0.080 C 
ATOM     11  C   LIG    1       -1.341   6.664  -4.925  0.00  0.00    -0.090 A 
ATOM     12  C   LIG    1       -0.955   6.443  -3.607  0.00  0.00    +0.100 A 
ATOM     13  C   LIG    1       -1.908   5.988  -2.677  0.00  0.00    -0.080 A 
ATOM     14  C   LIG    1       -1.199   5.856  -1.403  0.00  0.00    -0.180 A 
ATOM     15  C   LIG    1        0.073   6.225  -1.621  0.00  0.00    +0.230 A 
ATOM     16  C   LIG    1       -3.225   5.763  -3.083  0.00  0.00    +0.050 A 
ATOM     17  C   LIG    1       -3.582   5.988  -4.383  0.00  0.00    -0.020 A 
ATOM     18  N   LIG    1        0.239   6.574  -2.934  0.00  0.00    -0.480 N 
ATOM     19  C   LIG    1        1.497   7.025  -3.532  0.00  0.00    +0.310 C 
ATOM     20  C   LIG    1       -2.646   6.436  -5.304  0.00  0.00    +0.020 A 
ENDBRANCH   9  14
ENDBRANCH   1   9
BRANCH   1  21
ATOM     21  C   LIG    1       -2.658   3.461   1.070  0.00  0.00    +0.300 C 
BRANCH  21  22
ATOM     22  C   LIG    1       -2.966   1.996   0.903  0.00  0.00    +0.080 A 
ATOM     23  C   LIG    1       -2.257   0.967   1.423  0.00  0.00    -0.130 A 
ATOM     24  C   LIG    1       -2.878  -0.224   1.034  0.00  0.00    +0.230 A 
ATOM     25  N   LIG    1       -3.918   0.078   0.300  0.00  0.00    -0.290 NA
ATOM     26  N   LIG    1       -3.994   1.474   0.203  0.00  0.00    -0.350 N 
ATOM     27  C   LIG    1       -5.011   2.232  -0.530  0.00  0.00    +0.360 C 
ENDBRANCH  21  22
ENDBRANCH   1  21
TORSDOF 5
