REMARK  Name = ZINCrH00000No4DE.0
REMARK                            x       y       z     vdW  Elec       q    Type
REMARK                         _______ _______ _______ _____ _____    ______ ____
ROOT
ATOM      1  C   LIG    1        3.544   1.969   1.253  0.00  0.00    +0.330 C 
ENDROOT
BRANCH   1   2
ATOM      2  C   LIG    1        4.551   1.841   0.140  0.00  0.00    +0.070 A 
ATOM      3  N   LIG    1        4.536   0.940  -0.809  0.00  0.00    -0.240 NA
ATOM      4  N   LIG    1        5.640   1.162  -1.642  0.00  0.00    -0.370 N 
ATOM      5  C   LIG    1        6.316   2.226  -1.160  0.00  0.00    +0.090 A 
ATOM      6  C   LIG    1        7.573   2.819  -1.744  0.00  0.00    +0.150 C 
ATOM      7  C   LIG    1        5.998   0.378  -2.827  0.00  0.00    +0.360 C 
ATOM      8  C   LIG    1        5.661   2.668  -0.061  0.00  0.00    -0.120 A 
ENDBRANCH   1   2
BRANCH   1   9
ATOM      9  C   LIG    1        4.051   1.247   2.475  0.00  0.00    +0.180 A 
ATOM     10  N   LIG    1        3.957  -0.037   2.721  0.00  0.00    -0.260 NA
ATOM     11  N   LIG    1        4.510  -0.265   3.862  0.00  0.00    -0.080 NA
ATOM     12  N   LIG    1        4.947   0.842   4.354  0.00  0.00    -0.080 NA
ATOM     13  N   LIG    1        4.684   1.797   3.528  0.00  0.00    -0.290 N 
BRANCH  13  14
ATOM     14  C   LIG    1        5.010   3.215   3.704  0.00  0.00    +0.240 C 
ATOM     15  C   LIG    1        6.528   3.399   3.647  0.00  0.00    +0.070 C 
ATOM     16  C   LIG    1        4.489   3.694   5.060  0.00  0.00    +0.070 C 
ENDBRANCH  13  14
ENDBRANCH   1   9
BRANCH   1  17
ATOM     17  N   LIG    1        2.268   1.377   0.829  0.00  0.00    -0.490 NA
BRANCH  17  18
ATOM     18  C   LIG    1        1.765   2.026  -0.389  0.00  0.00    +0.210 C 
BRANCH  18  20
ATOM     19  C   LIG    1       -0.501   1.672  -1.226  0.00  0.00    -0.010 C 
ATOM     20  C   LIG    1        0.689   1.170  -1.007  0.00  0.00    -0.010 C 
ENDBRANCH  18  20
ENDBRANCH  17  18
BRANCH  17  21
ATOM     21  C   LIG    1        1.274   1.441   1.909  0.00  0.00    +0.320 C 
BRANCH  21  22
ATOM     22  C   LIG    1        0.899   2.878   2.162  0.00  0.00    -0.210 A 
ATOM     23  C   LIG    1       -0.159   3.500   1.640  0.00  0.00    +0.040 A 
ATOM     24  C   LIG    1       -0.304   4.824   2.020  0.00  0.00    +0.030 A 
ATOM     25  C   LIG    1        0.643   5.279   2.842  0.00  0.00    -0.140 A 
ATOM     26 CL   LIG    1        0.726   6.892   3.478  0.00  0.00    -0.010 Cl
ATOM     27  S   LIG    1        1.795   3.994   3.184  0.00  0.00    +0.120 S 
ENDBRANCH  21  22
ENDBRANCH  17  21
ENDBRANCH   1  17
TORSDOF 8
