REMARK  Name = ZINCqH0000003p4f.0
REMARK                            x       y       z     vdW  Elec       q    Type
REMARK                         _______ _______ _______ _____ _____    ______ ____
ROOT
ATOM      1  C   LIG    1       -3.634   2.611   3.155  0.00  0.00    +0.590 C 
ATOM      2  N   LIG    1       -4.714   2.541   2.352  0.00  0.00    -0.730 N 
ATOM      3  H   LIG    1       -4.616   2.249   1.432  0.00  0.00    +0.400 HD
ATOM      4  O   LIG    1       -3.757   2.977   4.309  0.00  0.00    -0.520 OA
ENDROOT
BRANCH   1   9
ATOM      5  C   LIG    1       -0.120   1.843   2.465  0.00  0.00    -0.210 A 
ATOM      6  C   LIG    1       -0.718   1.572   1.248  0.00  0.00    +0.120 A 
ATOM      7  N   LIG    1       -2.033   1.821   1.357  0.00  0.00    -0.520 N 
ATOM      8  H   LIG    1       -2.685   1.716   0.647  0.00  0.00    +0.420 HD
ATOM      9  C   LIG    1       -2.309   2.245   2.639  0.00  0.00    -0.060 A 
ATOM     10  C   LIG    1       -0.013   1.086   0.008  0.00  0.00    +0.160 C 
ATOM     11  C   LIG    1       -1.143   2.271   3.343  0.00  0.00    -0.020 A 
ATOM     12  C   LIG    1       -0.974   2.678   4.784  0.00  0.00    +0.130 C 
BRANCH   5  13
ATOM     13  C   LIG    1        1.311   1.710   2.786  0.00  0.00    +0.550 C 
ATOM     14  O   LIG    1        2.061   2.652   2.619  0.00  0.00    -0.500 OA
BRANCH  13  15
ATOM     15  O   LIG    1        1.788   0.545   3.266  0.00  0.00    -0.350 OA
BRANCH  15  17
ATOM     16  C   LIG    1        3.563  -0.904   4.091  0.00  0.00    +0.070 C 
ATOM     17  C   LIG    1        3.209   0.487   3.560  0.00  0.00    +0.200 C 
ENDBRANCH  15  17
ENDBRANCH  13  15
ENDBRANCH   5  13
ENDBRANCH   1   9
BRANCH   2  18
ATOM     18  C   LIG    1       -6.035   2.907   2.868  0.00  0.00    +0.340 C 
BRANCH  18  19
ATOM     19  C   LIG    1       -7.063   2.743   1.778  0.00  0.00    -0.080 A 
ATOM     20  C   LIG    1       -7.358   3.803   0.941  0.00  0.00    +0.040 A 
ATOM     21  C   LIG    1       -8.297   3.651  -0.062  0.00  0.00    +0.070 A 
ATOM     22  C   LIG    1       -8.949   2.442  -0.221  0.00  0.00    -0.170 A 
ATOM     23  C   LIG    1       -8.658   1.384   0.619  0.00  0.00    +0.070 A 
ATOM     24  C   LIG    1       -7.715   1.534   1.619  0.00  0.00    +0.040 A 
BRANCH  22  25
ATOM     25  C   LIG    1       -9.977   2.279  -1.311  0.00  0.00    +0.510 C 
ATOM     26  F   LIG    1       -9.995   0.947  -1.738  0.00  0.00    -0.180 F 
ATOM     27  F   LIG    1       -9.651   3.110  -2.388  0.00  0.00    -0.180 F 
ATOM     28  F   LIG    1      -11.239   2.628  -0.818  0.00  0.00    -0.170 F 
ENDBRANCH  22  25
ENDBRANCH  18  19
ENDBRANCH   2  18
TORSDOF 7
