REMARK  Name = ZINCbw0000000Hlz.0
REMARK                            x       y       z     vdW  Elec       q    Type
REMARK                         _______ _______ _______ _____ _____    ______ ____
ROOT
ATOM      1  C   LIG    1       -0.013   1.086   0.008  0.00  0.00    +0.140 C 
ATOM      2  C   LIG    1       -0.718   1.572   1.248  0.00  0.00    -0.090 A 
ATOM      3  C   LIG    1       -2.022   1.794   1.274  0.00  0.00    +0.030 A 
ATOM      4  S   LIG    1       -2.531   2.348   2.860  0.00  0.00    +0.170 S 
ATOM      5  C   LIG    1       -0.884   2.267   3.467  0.00  0.00    -0.280 A 
ATOM      6  C   LIG    1       -0.342   2.558   4.719  0.00  0.00    +0.420 A 
ATOM      7  N   LIG    1        0.957   2.406   4.906  0.00  0.00    -0.500 NA
ATOM      8  C   LIG    1        1.740   1.986   3.927  0.00  0.00    +0.370 A 
ATOM      9  N   LIG    1        1.281   1.699   2.733  0.00  0.00    -0.480 NA
ATOM     10 CL   LIG    1        3.439   1.806   4.234  0.00  0.00    +0.030 Cl
ATOM     11  C   LIG    1       -0.032   1.823   2.446  0.00  0.00    +0.190 A 
ENDROOT
TORSDOF 0
