REMARK  Name = ZINCpk00000xI9RE.0
REMARK                            x       y       z     vdW  Elec       q    Type
REMARK                         _______ _______ _______ _____ _____    ______ ____
ROOT
ATOM      1  C   LIG    1       -1.735   5.352   0.045  0.00  0.00    +0.250 A 
ATOM      2  N   LIG    1       -2.229   4.130   0.044  0.00  0.00    -0.500 NA
ATOM      3  C   LIG    1       -1.238   3.238   0.030  0.00  0.00    +0.330 A 
ATOM      4  C   LIG    1       -0.039   3.942   0.023  0.00  0.00    -0.140 A 
ATOM      5  C   LIG    1        1.174   3.232   0.008  0.00  0.00    +0.600 A 
ATOM      6  N   LIG    1        1.150   1.883   0.001  0.00  0.00    -0.650 N 
ATOM      7  H   LIG    1        1.986   1.391  -0.009  0.00  0.00    +0.440 HD
ATOM      8  C   LIG    1       -0.014   1.212   0.009  0.00  0.00    +0.710 A 
ATOM      9  O   LIG    1        0.002  -0.004   0.002  0.00  0.00    -0.530 OA
ATOM     10  O   LIG    1        2.237   3.829   0.001  0.00  0.00    -0.510 OA
ATOM     11  N   LIG    1       -1.199   1.853   0.018  0.00  0.00    -0.510 N 
ATOM     12  C   LIG    1       -2.446   1.085   0.020  0.00  0.00    +0.350 C 
ATOM     13  N   LIG    1       -0.376   5.289   0.033  0.00  0.00    -0.390 N 
ENDROOT
BRANCH   1  14
ATOM     14  S   LIG    1       -2.686   6.835   0.062  0.00  0.00    +0.070 S 
BRANCH  14  15
ATOM     15  C   LIG    1       -4.356   6.137   0.074  0.00  0.00    +0.100 C 
BRANCH  15  17
ATOM     16  C   LIG    1       -6.841   6.938   0.101  0.00  0.00    +0.090 C 
ATOM     17  C   LIG    1       -5.368   7.255   0.090  0.00  0.00    +0.370 C 
ATOM     18  O   LIG    1       -4.997   8.404   0.092  0.00  0.00    -0.440 OA
ENDBRANCH  15  17
ENDBRANCH  14  15
ENDBRANCH   1  14
BRANCH  13  19
ATOM     19  C   LIG    1        0.551   6.423   0.030  0.00  0.00    +0.370 C 
BRANCH  19  20
ATOM     20  C   LIG    1        0.857   6.819  -1.391  0.00  0.00    -0.120 A 
ATOM     21  C   LIG    1        0.070   7.759  -2.031  0.00  0.00    +0.030 A 
ATOM     22  C   LIG    1        0.350   8.122  -3.335  0.00  0.00    +0.010 A 
ATOM     23  C   LIG    1        1.417   7.546  -3.999  0.00  0.00    +0.020 A 
ATOM     24  C   LIG    1        2.204   6.607  -3.359  0.00  0.00    -0.090 A 
ATOM     25  C   LIG    1        3.367   5.979  -4.083  0.00  0.00    +0.090 C 
ATOM     26  C   LIG    1        1.927   6.247  -2.054  0.00  0.00    +0.040 A 
ENDBRANCH  19  20
ENDBRANCH  13  19
TORSDOF 5
