REMARK  Name = ZINCnE000001KZIv.0
REMARK                            x       y       z     vdW  Elec       q    Type
REMARK                         _______ _______ _______ _____ _____    ______ ____
ROOT
ATOM      1  N   LIG    1        0.102  -2.775  -0.100  0.00  0.00    -0.750 N 
ATOM      2  H   LIG    1       -0.329  -2.343   0.655  0.00  0.00    +0.400 HD
ENDROOT
BRANCH   1   8
ATOM      3  C   LIG    1        0.605  -0.607  -1.055  0.00  0.00    +0.040 A 
ATOM      4  C   LIG    1        1.167   0.164  -2.063  0.00  0.00    -0.060 A 
ATOM      5  C   LIG    1        1.781  -0.442  -3.138  0.00  0.00    +0.020 A 
ATOM      6  C   LIG    1        1.840  -1.836  -3.215  0.00  0.00    -0.120 A 
ATOM      7  C   LIG    1        1.274  -2.615  -2.199  0.00  0.00    +0.010 A 
ATOM      8  C   LIG    1        0.664  -2.000  -1.121  0.00  0.00    +0.170 A 
BRANCH   6   9
ATOM      9  C   LIG    1        2.497  -2.485  -4.362  0.00  0.00    +0.520 C 
ATOM     10  O   LIG    1        2.548  -3.705  -4.428  0.00  0.00    -0.690 OA
ATOM     11  O   LIG    1        2.992  -1.803  -5.249  0.00  0.00    -0.690 OA
ENDBRANCH   6   9
BRANCH   3  13
ATOM     12  C   LIG    1       -0.017   1.425   0.010  0.00  0.00    +0.230 C 
ATOM     13  O   LIG    1        0.002  -0.004   0.002  0.00  0.00    -0.330 OA
ENDBRANCH   3  13
ENDBRANCH   1   8
BRANCH   1  14
ATOM     14  C   LIG    1        0.164  -4.237  -0.170  0.00  0.00    +0.340 C 
BRANCH  14  15
ATOM     15  C   LIG    1       -0.508  -4.827   1.042  0.00  0.00    -0.240 A 
ATOM     16  C   LIG    1        0.113  -5.304   2.143  0.00  0.00    +0.260 A 
ATOM     17  N   LIG    1       -0.835  -5.741   3.000  0.00  0.00    -0.480 N 
ATOM     18  H   LIG    1       -0.676  -6.133   3.873  0.00  0.00    +0.440 HD
ATOM     19  N   LIG    1       -2.087  -5.535   2.407  0.00  0.00    -0.290 NA
ATOM     20  C   LIG    1       -1.896  -4.985   1.227  0.00  0.00    +0.150 A 
BRANCH  20  21
ATOM     21  C   LIG    1       -2.955  -4.599   0.261  0.00  0.00    -0.040 A 
ATOM     22  C   LIG    1       -2.857  -3.517  -0.532  0.00  0.00    +0.000 A 
ATOM     23  S   LIG    1       -4.297  -3.390  -1.533  0.00  0.00    +0.120 S 
ATOM     24  C   LIG    1       -4.972  -4.843  -0.809  0.00  0.00    -0.060 A 
ATOM     25  C   LIG    1       -4.129  -5.331   0.097  0.00  0.00    +0.030 A 
ENDBRANCH  20  21
ENDBRANCH  14  15
ENDBRANCH   1  14
TORSDOF 6
