REMARK  Name = ZINCrH000004tNH1.0
REMARK                            x       y       z     vdW  Elec       q    Type
REMARK                         _______ _______ _______ _____ _____    ______ ____
ROOT
ATOM      1  O   LIG    1       -0.401   4.096   0.639  0.00  0.00    -0.530 OA
ATOM      2  C   LIG    1       -0.843   3.297   1.437  0.00  0.00    +0.510 C 
ATOM      3  N   LIG    1       -0.704   1.975   1.216  0.00  0.00    -0.720 N 
ATOM      4  H   LIG    1       -1.058   1.337   1.854  0.00  0.00    +0.410 HD
ENDROOT
BRANCH   3   5
ATOM      5  C   LIG    1       -0.018   1.503   0.010  0.00  0.00    +0.400 C 
BRANCH   5   6
ATOM      6  C   LIG    1        0.002  -0.004   0.002  0.00  0.00    -0.040 A 
ATOM      7  C   LIG    1       -0.940  -0.799  -0.541  0.00  0.00    -0.010 A 
ATOM      8  C   LIG    1       -0.530  -2.131  -0.327  0.00  0.00    -0.030 A 
ATOM      9  C   LIG    1        0.653  -2.074   0.341  0.00  0.00    +0.040 A 
ATOM     10  O   LIG    1        0.966  -0.777   0.529  0.00  0.00    -0.160 OA
BRANCH   9  11
ATOM     11  C   LIG    1        1.458  -3.232   0.780  0.00  0.00    -0.020 A 
ATOM     12  C   LIG    1        1.017  -4.531   0.519  0.00  0.00    +0.060 A 
ATOM     13  C   LIG    1        1.775  -5.609   0.927  0.00  0.00    +0.030 A 
ATOM     14  C   LIG    1        2.967  -5.405   1.602  0.00  0.00    -0.030 A 
ATOM     15  C   LIG    1        3.407  -4.119   1.868  0.00  0.00    +0.030 A 
ATOM     16 CL   LIG    1        3.913  -6.766   2.117  0.00  0.00    -0.060 Cl
ATOM     17  C   LIG    1        2.660  -3.033   1.461  0.00  0.00    +0.050 A 
ENDBRANCH   9  11
ENDBRANCH   5   6
ENDBRANCH   3   5
BRANCH   2  18
ATOM     18  C   LIG    1       -1.548   3.783   2.677  0.00  0.00    +0.320 C 
BRANCH  18  19
ATOM     19  N   LIG    1       -1.568   5.248   2.685  0.00  0.00    -0.710 N 
ATOM     20  H   LIG    1       -1.162   5.743   1.956  0.00  0.00    +0.410 HD
ATOM     21  C   LIG    1       -2.151   5.909   3.705  0.00  0.00    +0.560 C 
ATOM     22  O   LIG    1       -2.661   5.289   4.619  0.00  0.00    -0.530 OA
BRANCH  21  23
ATOM     23  C   LIG    1       -2.171   7.387   3.713  0.00  0.00    -0.110 A 
ATOM     24  C   LIG    1       -1.582   8.101   2.669  0.00  0.00    +0.040 A 
ATOM     25  C   LIG    1       -1.609   9.481   2.679  0.00  0.00    +0.040 A 
ATOM     26  C   LIG    1       -2.207  10.158   3.726  0.00  0.00    +0.010 A 
ATOM     27  C   LIG    1       -2.789   9.455   4.770  0.00  0.00    +0.090 A 
ATOM     28  F   LIG    1       -3.372  10.123   5.790  0.00  0.00    -0.130 F 
ATOM     29  C   LIG    1       -2.774   8.074   4.768  0.00  0.00    +0.060 A 
ENDBRANCH  21  23
ENDBRANCH  18  19
ENDBRANCH   2  18
TORSDOF 6
