REMARK  Name = ZINCqH00000019ER.0
REMARK                            x       y       z     vdW  Elec       q    Type
REMARK                         _______ _______ _______ _____ _____    ______ ____
ROOT
ATOM      1  C   LIG    1       -0.379   7.735  -0.456  0.00  0.00    +0.490 C 
ATOM      2  N   LIG    1       -0.926   6.503  -0.468  0.00  0.00    -0.670 N 
ATOM      3  H   LIG    1       -1.888   6.399  -0.398  0.00  0.00    +0.410 HD
ATOM      4  O   LIG    1        0.814   7.871  -0.627  0.00  0.00    -0.490 OA
ENDROOT
BRANCH   2   5
ATOM      5  C   LIG    1       -0.106   5.375  -0.582  0.00  0.00    +0.170 A 
ATOM      6  C   LIG    1        1.019   5.413  -1.395  0.00  0.00    +0.000 A 
ATOM      7  C   LIG    1        1.829   4.299  -1.508  0.00  0.00    +0.060 A 
ATOM      8  C   LIG    1        1.526   3.147  -0.810  0.00  0.00    -0.040 A 
ATOM      9  C   LIG    1        0.398   3.101   0.001  0.00  0.00    +0.180 A 
ATOM     10  C   LIG    1       -0.417   4.217   0.117  0.00  0.00    -0.020 A 
BRANCH   9  11
ATOM     11  N   LIG    1        0.089   1.932   0.705  0.00  0.00    -0.560 N 
ATOM     12  C   LIG    1        0.824   0.668   0.575  0.00  0.00    +0.260 C 
ATOM     13  C   LIG    1        0.429  -0.167   1.813  0.00  0.00    +0.060 C 
ATOM     14  C   LIG    1       -0.957   0.424   2.164  0.00  0.00    +0.070 C 
ATOM     15  C   LIG    1       -0.920   1.822   1.587  0.00  0.00    +0.520 C 
ATOM     16  O   LIG    1       -1.692   2.712   1.874  0.00  0.00    -0.510 OA
ENDBRANCH   9  11
ENDBRANCH   2   5
BRANCH   1  18
ATOM     17  C   LIG    1       -2.311   9.021  -1.329  0.00  0.00    +0.060 C 
ATOM     18  C   LIG    1       -1.250   8.944  -0.229  0.00  0.00    +0.100 C 
ATOM     19  C   LIG    1       -1.936   8.830   1.134  0.00  0.00    +0.110 C 
BRANCH  18  20
ATOM     20  O   LIG    1       -0.445  10.124  -0.260  0.00  0.00    -0.280 OA
BRANCH  20  21
ATOM     21  C   LIG    1        0.208  10.395  -1.421  0.00  0.00    +0.130 A 
ATOM     22  C   LIG    1        0.170   9.486  -2.467  0.00  0.00    -0.030 A 
ATOM     23  C   LIG    1        0.831   9.765  -3.649  0.00  0.00    +0.020 A 
ATOM     24  C   LIG    1        1.537  10.948  -3.785  0.00  0.00    +0.060 A 
ATOM     25  C   LIG    1        1.580  11.854  -2.739  0.00  0.00    +0.020 A 
ATOM     26  F   LIG    1        2.186  11.217  -4.939  0.00  0.00    -0.140 F 
ATOM     27  C   LIG    1        0.916  11.580  -1.559  0.00  0.00    +0.020 A 
ENDBRANCH  20  21
ENDBRANCH  18  20
ENDBRANCH   1  18
TORSDOF 5
