REMARK  Name = ZINCfA000001mHSF.0
REMARK                            x       y       z     vdW  Elec       q    Type
REMARK                         _______ _______ _______ _____ _____    ______ ____
ROOT
ATOM      1  N   LIG    1       -1.388   0.997   2.429  0.00  0.00    -0.380 N 
ATOM      2  H   LIG    1       -0.435   0.691   2.560  0.00  0.00    +0.420 HD
ENDROOT
BRANCH   1   4
ATOM      3  C   LIG    1       -3.026   2.680   3.120  0.00  0.00    +0.090 C 
ATOM      4  C   LIG    1       -1.540   2.363   2.945  0.00  0.00    +0.170 C 
ATOM      5  C   LIG    1       -0.831   2.480   4.296  0.00  0.00    +0.070 C 
ENDBRANCH   1   4
BRANCH   1   6
ATOM      6  C   LIG    1       -1.716   0.975   0.997  0.00  0.00    +0.290 C 
BRANCH   6   7
ATOM      7  C   LIG    1       -0.738   1.873   0.236  0.00  0.00    -0.080 C 
ATOM      8  C   LIG    1        0.755   1.565   0.370  0.00  0.00    +0.040 C 
ATOM      9  C   LIG    1        0.025   1.253  -0.938  0.00  0.00    +0.010 C 
ATOM     10  C   LIG    1       -0.249  -0.217  -1.261  0.00  0.00    +0.070 C 
ENDBRANCH   6   7
ENDBRANCH   1   6
BRANCH   1  11
ATOM     11  C   LIG    1       -2.295   0.096   3.152  0.00  0.00    +0.370 C 
BRANCH  11  12
ATOM     12  C   LIG    1       -1.880   0.021   4.599  0.00  0.00    -0.320 A 
ATOM     13  C   LIG    1       -2.582   0.473   5.643  0.00  0.00    +0.290 A 
ATOM     14  N   LIG    1       -2.004   0.285   6.812  0.00  0.00    -0.470 NA
ATOM     15  C   LIG    1       -0.850  -0.292   6.812  0.00  0.00    +0.290 A 
ATOM     16  S   LIG    1       -0.381  -0.672   5.212  0.00  0.00    +0.160 S 
ENDBRANCH  11  12
ENDBRANCH   1  11
TORSDOF 5
