REMARK  Name = ZINCfA000001mHSF.1
REMARK                            x       y       z     vdW  Elec       q    Type
REMARK                         _______ _______ _______ _____ _____    ______ ____
ROOT
ATOM      1  N   LIG    1       -0.114   1.869   1.275  0.00  0.00    -0.380 N 
ATOM      2  H   LIG    1        0.144   2.808   1.541  0.00  0.00    +0.420 HD
ENDROOT
BRANCH   1   4
ATOM      3  C   LIG    1       -0.128   2.707  -1.027  0.00  0.00    +0.100 C 
ATOM      4  C   LIG    1        0.360   1.600  -0.089  0.00  0.00    +0.150 C 
ATOM      5  C   LIG    1       -0.190   0.252  -0.563  0.00  0.00    +0.100 C 
ENDBRANCH   1   4
BRANCH   1   6
ATOM      6  C   LIG    1       -1.575   1.731   1.322  0.00  0.00    +0.290 C 
BRANCH   6   7
ATOM      7  C   LIG    1       -2.221   2.868   0.528  0.00  0.00    -0.070 C 
ATOM      8  C   LIG    1       -3.087   2.486  -0.675  0.00  0.00    +0.050 C 
ATOM      9  C   LIG    1       -3.743   3.007   0.605  0.00  0.00    +0.000 C 
ATOM     10  C   LIG    1       -4.502   2.000   1.471  0.00  0.00    +0.070 C 
ENDBRANCH   6   7
ENDBRANCH   1   6
BRANCH   1  11
ATOM     11  C   LIG    1        0.499   0.911   2.204  0.00  0.00    +0.370 C 
BRANCH  11  12
ATOM     12  C   LIG    1        1.984   1.163   2.278  0.00  0.00    -0.330 A 
ATOM     13  C   LIG    1        2.596   2.019   3.101  0.00  0.00    +0.300 A 
ATOM     14  N   LIG    1        3.907   2.057   2.972  0.00  0.00    -0.470 NA
ATOM     15  C   LIG    1        4.435   1.280   2.087  0.00  0.00    +0.280 A 
ATOM     16  S   LIG    1        3.218   0.373   1.300  0.00  0.00    +0.170 S 
ENDBRANCH  11  12
ENDBRANCH   1  11
TORSDOF 5
