REMARK  Name = ZINCkj000005lCo1.0
REMARK                            x       y       z     vdW  Elec       q    Type
REMARK                         _______ _______ _______ _____ _____    ______ ____
ROOT
ATOM      1  O   LIG    1        1.009  -4.330   1.533  0.00  0.00    -0.510 OA
ATOM      2  C   LIG    1        1.135  -4.060   0.357  0.00  0.00    +0.530 C 
ATOM      3  N   LIG    1        1.463  -2.807  -0.015  0.00  0.00    -0.630 N 
ATOM      4  C   LIG    1        1.647  -2.345  -1.400  0.00  0.00    +0.250 C 
ATOM      5  C   LIG    1        1.993  -0.839  -1.341  0.00  0.00    +0.070 C 
ATOM      6  C   LIG    1        1.469  -0.424   0.041  0.00  0.00    -0.100 C 
ATOM      7  C   LIG    1        2.217   0.798   0.590  0.00  0.00    +0.100 C 
ATOM      8  C   LIG    1        1.379   1.963  -0.001  0.00  0.00    +0.270 C 
ATOM      9  N   LIG    1       -0.018   1.474   0.010  0.00  0.00    -0.520 N 
ATOM     10  H   LIG    1       -0.487   1.803   0.841  0.00  0.00    +0.430 HD
ATOM     11  H   LIG    1       -0.502   1.812  -0.808  0.00  0.00    +0.430 HD
ATOM     12  C   LIG    1        0.002  -0.004   0.002  0.00  0.00    +0.290 C 
ATOM     13  C   LIG    1        1.698  -1.671   0.901  0.00  0.00    +0.300 C 
ENDROOT
BRANCH   2  14
ATOM     14  C   LIG    1        0.923  -5.125  -0.688  0.00  0.00    +0.030 C 
BRANCH  14  15
ATOM     15  C   LIG    1        0.562  -6.445  -0.004  0.00  0.00    +0.280 C 
BRANCH  15  16
ATOM     16  C   LIG    1        0.231  -7.479  -1.050  0.00  0.00    -0.130 A 
ATOM     17  C   LIG    1        1.243  -8.209  -1.644  0.00  0.00    +0.010 A 
ATOM     18  C   LIG    1        0.939  -9.161  -2.600  0.00  0.00    +0.020 A 
ATOM     19  C   LIG    1       -0.376  -9.373  -2.969  0.00  0.00    +0.020 A 
ATOM     20  C   LIG    1       -1.388  -8.639  -2.378  0.00  0.00    +0.010 A 
ATOM     21  C   LIG    1       -1.084  -7.691  -1.419  0.00  0.00    +0.010 A 
ENDBRANCH  15  16
BRANCH  15  22
ATOM     22  O   LIG    1        1.671  -6.896   0.777  0.00  0.00    -0.540 OA
ATOM     23  H   LIG    1        2.476  -7.051   0.264  0.00  0.00    +0.370 HD
ENDBRANCH  15  22
ENDBRANCH  14  15
ENDBRANCH   2  14
TORSDOF 4
