REMARK  Name = ZINCkj000005hohj.2
REMARK                            x       y       z     vdW  Elec       q    Type
REMARK                         _______ _______ _______ _____ _____    ______ ____
ROOT
ATOM      1  C   LIG    1        3.373   7.825   0.013  0.00  0.00    +0.470 C 
ATOM      2  N   LIG    1        3.388   6.477   0.005  0.00  0.00    -0.720 N 
ATOM      3  H   LIG    1        4.233   6.001  -0.005  0.00  0.00    +0.410 HD
ATOM      4  O   LIG    1        2.317   8.419   0.027  0.00  0.00    -0.500 OA
ENDROOT
BRANCH   1  10
ATOM      5  C   LIG    1        5.368   8.544   3.693  0.00  0.00    +0.340 C 
ATOM      6  N   LIG    1        4.638   8.803   2.444  0.00  0.00    -0.390 N 
ATOM      7  C   LIG    1        4.404  10.246   2.303  0.00  0.00    +0.250 C 
ATOM      8  C   LIG    1        3.644  10.513   1.002  0.00  0.00    +0.270 C 
ATOM      9  O   LIG    1        4.396   9.992  -0.100  0.00  0.00    -0.320 OA
ATOM     10  C   LIG    1        4.670   8.592   0.005  0.00  0.00    +0.230 C 
ATOM     11  C   LIG    1        5.432   8.322   1.305  0.00  0.00    +0.280 C 
ATOM     12  H   LIG    1        3.753   8.319   2.465  0.00  0.00    +0.420 HD
ENDBRANCH   1  10
BRANCH   2  13
ATOM     13  C   LIG    1        2.127   5.731   0.013  0.00  0.00    +0.270 C 
BRANCH  13  14
ATOM     14  C   LIG    1        2.423   4.229   0.002  0.00  0.00    +0.260 C 
BRANCH  14  15
ATOM     15  N   LIG    1        1.163   3.483   0.010  0.00  0.00    -0.750 N 
ATOM     16  H   LIG    1        0.317   3.959   0.021  0.00  0.00    +0.410 HD
BRANCH  15  17
ATOM     17  C   LIG    1        1.178   2.087   0.002  0.00  0.00    +0.210 A 
ATOM     18  C   LIG    1        2.387   1.404  -0.013  0.00  0.00    -0.060 A 
ATOM     19  C   LIG    1        2.399   0.023  -0.020  0.00  0.00    +0.060 A 
ATOM     20  C   LIG    1        1.209  -0.681  -0.013  0.00  0.00    -0.010 A 
ATOM     21  C   LIG    1        0.002  -0.004   0.002  0.00  0.00    -0.040 A 
ATOM     22 BR   LIG    1       -1.623  -0.971   0.012  0.00  0.00    -0.040 Br
ATOM     23  C   LIG    1       -0.017   1.377   0.010  0.00  0.00    -0.030 A 
ENDBRANCH  15  17
ENDBRANCH  14  15
ENDBRANCH  13  14
ENDBRANCH   2  13
TORSDOF 5
