REMARK  Name = ZINCkj000005hohj.1
REMARK                            x       y       z     vdW  Elec       q    Type
REMARK                         _______ _______ _______ _____ _____    ______ ____
ROOT
ATOM      1  C   LIG    1       -0.268   1.258  -2.409  0.00  0.00    +0.520 C 
ATOM      2  N   LIG    1       -0.721   1.571  -1.179  0.00  0.00    -0.720 N 
ATOM      3  H   LIG    1       -1.516   2.118  -1.079  0.00  0.00    +0.400 HD
ATOM      4  O   LIG    1        0.726   0.575  -2.534  0.00  0.00    -0.480 OA
ENDROOT
BRANCH   1  10
ATOM      5  C   LIG    1       -4.414   0.966  -4.966  0.00  0.00    +0.340 C 
ATOM      6  N   LIG    1       -3.077   1.570  -4.909  0.00  0.00    -0.380 N 
ATOM      7  C   LIG    1       -2.300   1.153  -6.084  0.00  0.00    +0.240 C 
ATOM      8  C   LIG    1       -0.907   1.784  -6.022  0.00  0.00    +0.280 C 
ATOM      9  O   LIG    1       -0.266   1.394  -4.804  0.00  0.00    -0.330 OA
ATOM     10  C   LIG    1       -0.997   1.758  -3.630  0.00  0.00    +0.160 C 
ATOM     11  C   LIG    1       -2.391   1.127  -3.687  0.00  0.00    +0.260 C 
ATOM     12  H   LIG    1       -3.162   2.575  -4.901  0.00  0.00    +0.430 HD
ENDBRANCH   1  10
BRANCH   2  13
ATOM     13  C   LIG    1       -0.013   1.086   0.008  0.00  0.00    +0.280 C 
BRANCH  13  14
ATOM     14  C   LIG    1       -0.729   1.579   1.267  0.00  0.00    +0.260 C 
BRANCH  14  15
ATOM     15  N   LIG    1       -0.020   1.094   2.454  0.00  0.00    -0.750 N 
ATOM     16  H   LIG    1        0.775   0.547   2.354  0.00  0.00    +0.410 HD
BRANCH  15  17
ATOM     17  C   LIG    1       -0.490   1.418   3.729  0.00  0.00    +0.220 A 
ATOM     18  C   LIG    1       -1.625   2.205   3.873  0.00  0.00    -0.060 A 
ATOM     19  C   LIG    1       -2.091   2.519   5.135  0.00  0.00    +0.060 A 
ATOM     20  C   LIG    1       -1.422   2.060   6.254  0.00  0.00    -0.010 A 
ATOM     21  C   LIG    1       -0.286   1.281   6.115  0.00  0.00    -0.040 A 
ATOM     22 BR   LIG    1        0.625   0.657   7.649  0.00  0.00    -0.040 Br
ATOM     23  C   LIG    1        0.181   0.959   4.855  0.00  0.00    -0.030 A 
ENDBRANCH  15  17
ENDBRANCH  14  15
ENDBRANCH  13  14
ENDBRANCH   2  13
TORSDOF 5
