REMARK  Name = ZINCkj000005lzjB.1
REMARK                            x       y       z     vdW  Elec       q    Type
REMARK                         _______ _______ _______ _____ _____    ______ ____
ROOT
ATOM      1  C   LIG    1       -1.135  -2.201   0.001  0.00  0.00    +0.290 C 
ENDROOT
BRANCH   1   2
ATOM      2  N   LIG    1       -2.514  -2.709   0.011  0.00  0.00    -0.370 N 
ATOM      3  C   LIG    1       -2.496  -4.176   0.113  0.00  0.00    +0.280 C 
ATOM      4  C   LIG    1       -3.911  -4.660   0.431  0.00  0.00    +0.130 C 
ATOM      5  C   LIG    1       -4.889  -4.052  -0.543  0.00  0.00    -0.100 A 
ATOM      6  C   LIG    1       -6.152  -4.612  -0.653  0.00  0.00    +0.030 A 
ATOM      7  C   LIG    1       -7.075  -4.080  -1.532  0.00  0.00    +0.050 A 
ATOM      8  C   LIG    1       -6.737  -2.985  -2.305  0.00  0.00    +0.040 A 
ATOM      9  C   LIG    1       -5.478  -2.429  -2.197  0.00  0.00    +0.040 A 
ATOM     10  C   LIG    1       -4.550  -2.962  -1.315  0.00  0.00    -0.130 A 
ATOM     11  C   LIG    1       -3.188  -2.325  -1.232  0.00  0.00    +0.330 C 
ATOM     12  H   LIG    1       -3.011  -2.321   0.799  0.00  0.00    +0.430 HD
ENDBRANCH   1   2
BRANCH   1  14
ATOM     13  O   LIG    1       -2.214  -0.102   0.023  0.00  0.00    -0.530 OA
ATOM     14  C   LIG    1       -1.156  -0.694   0.009  0.00  0.00    +0.500 C 
ATOM     15  N   LIG    1        0.002  -0.004   0.002  0.00  0.00    -0.690 N 
ATOM     16  H   LIG    1        0.849  -0.478  -0.009  0.00  0.00    +0.410 HD
BRANCH  15  17
ATOM     17  C   LIG    1       -0.018   1.461   0.010  0.00  0.00    +0.280 C 
BRANCH  17  18
ATOM     18  C   LIG    1        1.418   1.990  -0.001  0.00  0.00    +0.160 C 
ATOM     19  C   LIG    1        1.409   3.529   0.124  0.00  0.00    +0.020 C 
ATOM     20  C   LIG    1        2.548   3.945  -0.847  0.00  0.00    +0.010 C 
ATOM     21  C   LIG    1        2.409   2.861  -1.945  0.00  0.00    +0.200 C 
ATOM     22  O   LIG    1        2.048   1.660  -1.244  0.00  0.00    -0.380 OA
ENDBRANCH  17  18
ENDBRANCH  15  17
ENDBRANCH   1  14
TORSDOF 4
