REMARK  Name = ZINCkj000005lzjB.2
REMARK                            x       y       z     vdW  Elec       q    Type
REMARK                         _______ _______ _______ _____ _____    ______ ____
ROOT
ATOM      1  C   LIG    1        6.031   2.165  -0.323  0.00  0.00    +0.290 C 
ENDROOT
BRANCH   1   2
ATOM      2  N   LIG    1        4.784   1.403  -0.470  0.00  0.00    -0.370 N 
ATOM      3  C   LIG    1        4.853   0.182   0.347  0.00  0.00    +0.280 C 
ATOM      4  C   LIG    1        3.698  -0.737  -0.050  0.00  0.00    +0.130 C 
ATOM      5  C   LIG    1        2.401   0.032  -0.024  0.00  0.00    -0.100 A 
ATOM      6  C   LIG    1        1.209  -0.675  -0.015  0.00  0.00    +0.030 A 
ATOM      7  C   LIG    1        0.002  -0.004   0.002  0.00  0.00    +0.050 A 
ATOM      8  C   LIG    1       -0.017   1.378   0.010  0.00  0.00    +0.040 A 
ATOM      9  C   LIG    1        1.171   2.082   0.002  0.00  0.00    +0.040 A 
ATOM     10  C   LIG    1        2.384   1.411  -0.014  0.00  0.00    -0.130 A 
ATOM     11  C   LIG    1        3.654   2.219  -0.015  0.00  0.00    +0.330 C 
ATOM     12  H   LIG    1        4.652   1.155  -1.439  0.00  0.00    +0.430 HD
ENDBRANCH   1   2
BRANCH   1  14
ATOM     13  O   LIG    1        5.041   3.552  -1.955  0.00  0.00    -0.530 OA
ATOM     14  C   LIG    1        6.004   3.357  -1.245  0.00  0.00    +0.500 C 
ATOM     15  N   LIG    1        7.051   4.205  -1.280  0.00  0.00    -0.700 N 
ATOM     16  H   LIG    1        7.822   4.048  -0.712  0.00  0.00    +0.410 HD
BRANCH  15  17
ATOM     17  C   LIG    1        7.024   5.363  -2.176  0.00  0.00    +0.300 C 
BRANCH  17  18
ATOM     18  C   LIG    1        8.324   6.157  -2.023  0.00  0.00    +0.140 C 
ATOM     19  C   LIG    1        8.282   7.431  -2.895  0.00  0.00    +0.020 C 
ATOM     20  C   LIG    1        9.729   7.574  -3.420  0.00  0.00    +0.000 C 
ATOM     21  C   LIG    1       10.473   6.370  -2.802  0.00  0.00    +0.210 C 
ATOM     22  O   LIG    1        9.441   5.395  -2.531  0.00  0.00    -0.370 OA
ENDBRANCH  17  18
ENDBRANCH  15  17
ENDBRANCH   1  14
TORSDOF 4
