REMARK  Name = ZINCqH0000000e7p.0
REMARK                            x       y       z     vdW  Elec       q    Type
REMARK                         _______ _______ _______ _____ _____    ______ ____
ROOT
ATOM      1  N   LIG    1        2.506  -1.124   0.203  0.00  0.00    -0.510 N 
ATOM      2  C   LIG    1        1.947  -2.350   0.169  0.00  0.00    +0.510 C 
ATOM      3  O   LIG    1        0.750  -2.475   0.316  0.00  0.00    -0.490 OA
ENDROOT
BRANCH   1   4
ATOM      4  C   LIG    1        1.711  -0.003   0.408  0.00  0.00    +0.250 A 
ATOM      5  N   LIG    1        2.144   1.214   0.459  0.00  0.00    -0.510 NA
ATOM      6  C   LIG    1        1.254   2.178   0.662  0.00  0.00    +0.090 A 
ATOM      7  C   LIG    1       -0.003   1.720   0.787  0.00  0.00    -0.280 A 
ATOM      8  C   LIG    1       -1.222   2.578   1.031  0.00  0.00    +0.120 C 
ATOM      9  C   LIG    1       -0.762   3.963   1.494  0.00  0.00    +0.020 C 
ATOM     10  C   LIG    1        0.325   4.474   0.544  0.00  0.00    +0.020 C 
ATOM     11  C   LIG    1        1.603   3.656   0.746  0.00  0.00    +0.120 C 
ATOM     12  S   LIG    1        0.016  -0.032   0.629  0.00  0.00    +0.230 S 
ENDBRANCH   1   4
BRANCH   1  13
ATOM     13  C   LIG    1        3.953  -0.973   0.026  0.00  0.00    +0.350 C 
BRANCH  13  15
ATOM     14  C   LIG    1        5.592  -1.917   1.570  0.00  0.00    +0.030 C 
ATOM     15  C   LIG    1        4.634  -1.046   1.368  0.00  0.00    -0.060 C 
ENDBRANCH  13  15
ENDBRANCH   1  13
BRANCH   2  16
ATOM     16  C   LIG    1        2.810  -3.566  -0.053  0.00  0.00    +0.130 C 
BRANCH  16  17
ATOM     17  C   LIG    1        1.947  -4.801  -0.049  0.00  0.00    -0.090 A 
ATOM     18  C   LIG    1        1.713  -5.475   1.136  0.00  0.00    +0.050 A 
ATOM     19  C   LIG    1        0.919  -6.605   1.144  0.00  0.00    -0.010 A 
ATOM     20  C   LIG    1        0.364  -7.071  -0.041  0.00  0.00    +0.150 A 
ATOM     21  C   LIG    1        0.606  -6.394  -1.230  0.00  0.00    +0.010 A 
ATOM     22  C   LIG    1        1.396  -5.262  -1.230  0.00  0.00    +0.040 A 
BRANCH  20  23
ATOM     23  N   LIG    1       -0.436  -8.219  -0.037  0.00  0.00    -0.680 N 
ATOM     24  H   LIG    1       -0.995  -8.417   0.730  0.00  0.00    +0.410 HD
ATOM     25  C   LIG    1       -0.430  -9.048  -1.100  0.00  0.00    +0.510 C 
ATOM     26  O   LIG    1        0.339  -8.852  -2.017  0.00  0.00    -0.520 OA
ATOM     27  C   LIG    1       -1.377 -10.218  -1.147  0.00  0.00    +0.110 C 
ENDBRANCH  20  23
ENDBRANCH  16  17
ENDBRANCH   2  16
TORSDOF 6
