REMARK  Name = ZINCrD00000hQ6m4.0
REMARK                            x       y       z     vdW  Elec       q    Type
REMARK                         _______ _______ _______ _____ _____    ______ ____
ROOT
ATOM      1  C   LIG    1        2.883   3.752  -0.446  0.00  0.00    +0.260 C 
ATOM      2  C   LIG    1        1.417   3.583   0.008  0.00  0.00    +0.090 C 
ATOM      3  C   LIG    1        1.170   2.090   0.002  0.00  0.00    -0.090 A 
ATOM      4  C   LIG    1       -0.017   1.377   0.010  0.00  0.00    +0.010 A 
ATOM      5  C   LIG    1        0.002  -0.004   0.002  0.00  0.00    +0.020 A 
ATOM      6  C   LIG    1        1.209  -0.677  -0.013  0.00  0.00    +0.010 A 
ATOM      7  C   LIG    1        2.394   0.032  -0.021  0.00  0.00    +0.040 A 
ATOM      8  C   LIG    1        2.377   1.417  -0.013  0.00  0.00    -0.110 A 
ATOM      9  C   LIG    1        3.518   2.412  -0.018  0.00  0.00    +0.300 C 
ENDROOT
BRANCH   1  11
ATOM     10  C   LIG    1        3.403   6.124  -0.241  0.00  0.00    +0.600 C 
ATOM     11  N   LIG    1        3.518   4.874   0.250  0.00  0.00    -0.710 N 
ATOM     12  H   LIG    1        4.021   4.718   1.065  0.00  0.00    +0.410 HD
ATOM     13  O   LIG    1        2.773   6.320  -1.263  0.00  0.00    -0.520 OA
BRANCH  10  21
ATOM     14  C   LIG    1        2.686  11.099  -2.598  0.00  0.00    +0.100 C 
ATOM     15  C   LIG    1        3.375  10.518  -1.390  0.00  0.00    -0.080 A 
ATOM     16  C   LIG    1        4.071  11.358  -0.530  0.00  0.00    +0.050 A 
ATOM     17  C   LIG    1        4.706  10.842   0.579  0.00  0.00    +0.070 A 
ATOM     18  C   LIG    1        4.646   9.479   0.828  0.00  0.00    -0.210 A 
ATOM     19  S   LIG    1        5.293   8.432   2.090  0.00  0.00    +0.410 S 
ATOM     20  N   LIG    1        4.718   7.085   1.553  0.00  0.00    -0.490 NA
ATOM     21  C   LIG    1        4.042   7.252   0.459  0.00  0.00    +0.080 A 
ATOM     22  C   LIG    1        3.943   8.621  -0.038  0.00  0.00    -0.080 A 
ATOM     23  C   LIG    1        3.307   9.176  -1.159  0.00  0.00    +0.100 A 
ENDBRANCH  10  21
ENDBRANCH   1  11
BRANCH   9  24
ATOM     24  N   LIG    1        4.543   2.005  -0.982  0.00  0.00    -0.720 N 
ATOM     25  H   LIG    1        4.523   2.353  -1.887  0.00  0.00    +0.410 HD
ATOM     26  C   LIG    1        5.514   1.146  -0.612  0.00  0.00    +0.510 C 
ATOM     27  O   LIG    1        5.539   0.711   0.519  0.00  0.00    -0.510 OA
BRANCH  26  28
ATOM     28  C   LIG    1        6.568   0.728  -1.604  0.00  0.00    +0.170 C 
ATOM     29 CL   LIG    1        7.716  -0.417  -0.815  0.00  0.00    -0.130 Cl
ENDBRANCH  26  28
ENDBRANCH   9  24
TORSDOF 4
