REMARK  Name = ZINCrH000004t2mq.0
REMARK                            x       y       z     vdW  Elec       q    Type
REMARK                         _______ _______ _______ _____ _____    ______ ____
ROOT
ATOM      1  C   LIG    1       -3.708  -1.012  -0.198  0.00  0.00    -0.220 A 
ATOM      2  C   LIG    1       -4.470  -1.517   0.846  0.00  0.00    +0.180 A 
ATOM      3  N   LIG    1       -5.577  -2.132   0.337  0.00  0.00    -0.470 N 
ATOM      4  C   LIG    1       -5.581  -2.053  -1.041  0.00  0.00    +0.100 A 
ATOM      5  C   LIG    1       -6.466  -2.511  -2.011  0.00  0.00    +0.000 A 
ATOM      6  C   LIG    1       -6.206  -2.281  -3.345  0.00  0.00    +0.030 A 
ATOM      7  C   LIG    1       -5.066  -1.594  -3.735  0.00  0.00    +0.000 A 
ATOM      8  C   LIG    1       -4.176  -1.132  -2.790  0.00  0.00    +0.050 A 
ATOM      9  C   LIG    1       -6.615  -2.784   1.139  0.00  0.00    +0.330 C 
ATOM     10  C   LIG    1       -4.430  -1.352  -1.437  0.00  0.00    -0.070 A 
ENDROOT
BRANCH   2  11
ATOM     11  C   LIG    1       -4.136  -1.408   2.280  0.00  0.00    -0.050 A 
ATOM     12  C   LIG    1       -2.837  -1.672   2.719  0.00  0.00    +0.040 A 
ATOM     13  C   LIG    1       -2.531  -1.562   4.060  0.00  0.00    +0.010 A 
ATOM     14  C   LIG    1       -3.509  -1.203   4.969  0.00  0.00    +0.030 A 
ATOM     15  C   LIG    1       -4.800  -0.945   4.542  0.00  0.00    +0.010 A 
ATOM     16  C   LIG    1       -5.119  -1.045   3.203  0.00  0.00    +0.020 A 
ENDBRANCH   2  11
BRANCH   1  19
ATOM     17  N   LIG    1       -2.447   1.062   0.019  0.00  0.00    -0.660 N 
ATOM     18  H   LIG    1       -3.288   1.539   0.100  0.00  0.00    +0.410 HD
ATOM     19  C   LIG    1       -2.442  -0.281  -0.090  0.00  0.00    +0.610 C 
ATOM     20  O   LIG    1       -1.387  -0.887  -0.098  0.00  0.00    -0.510 OA
BRANCH  17  24
ATOM     21  C   LIG    1        0.562   4.159   2.192  0.00  0.00    +0.320 C 
ATOM     22  N   LIG    1        0.248   3.281   1.062  0.00  0.00    -0.490 N 
ATOM     23  C   LIG    1       -0.920   2.586   1.057  0.00  0.00    +0.280 A 
ATOM     24  C   LIG    1       -1.235   1.771   0.017  0.00  0.00    +0.040 A 
ATOM     25  C   LIG    1       -0.341   1.634  -1.060  0.00  0.00    +0.130 A 
ATOM     26  C   LIG    1        0.828   2.335  -1.048  0.00  0.00    -0.070 A 
ATOM     27  C   LIG    1        1.119   3.173   0.042  0.00  0.00    +0.510 A 
ATOM     28  O   LIG    1        2.163   3.804   0.063  0.00  0.00    -0.550 OA
ENDBRANCH  17  24
ENDBRANCH   1  19
TORSDOF 3
