REMARK  Name = ZINCrD000000CFfk.0
REMARK                            x       y       z     vdW  Elec       q    Type
REMARK                         _______ _______ _______ _____ _____    ______ ____
ROOT
ATOM      1  O   LIG    1       -3.567   3.257  -0.046  0.00  0.00    -0.510 OA
ATOM      2  C   LIG    1       -2.522   3.870   0.047  0.00  0.00    +0.550 C 
ATOM      3  N   LIG    1       -2.536   5.213   0.157  0.00  0.00    -0.600 N 
ATOM      4  C   LIG    1       -1.281   5.978   0.158  0.00  0.00    +0.270 C 
ATOM      5  C   LIG    1       -1.369   7.061  -0.928  0.00  0.00    +0.000 C 
ATOM      6  C   LIG    1       -2.621   7.909  -0.694  0.00  0.00    +0.250 C 
ATOM      7  C   LIG    1       -3.865   7.024  -0.796  0.00  0.00    +0.030 C 
ATOM      8  C   LIG    1       -3.806   5.940   0.285  0.00  0.00    +0.290 C 
ENDROOT
BRANCH   2   9
ATOM      9  C   LIG    1       -1.235   3.143   0.040  0.00  0.00    -0.080 A 
ATOM     10  C   LIG    1       -0.324   3.320   1.082  0.00  0.00    +0.050 A 
ATOM     11  C   LIG    1        0.876   2.638   1.070  0.00  0.00    +0.050 A 
ATOM     12  C   LIG    1        1.176   1.780   0.027  0.00  0.00    +0.040 A 
ATOM     13  C   LIG    1        0.277   1.599  -1.009  0.00  0.00    +0.080 A 
ATOM     14  C   LIG    1       -0.923   2.279  -1.011  0.00  0.00    -0.140 A 
BRANCH  14  15
ATOM     15  C   LIG    1       -1.899   2.086  -2.144  0.00  0.00    +0.500 C 
ATOM     16  F   LIG    1       -2.127   3.312  -2.777  0.00  0.00    -0.180 F 
ATOM     17  F   LIG    1       -3.106   1.589  -1.640  0.00  0.00    -0.150 F 
ATOM     18  F   LIG    1       -1.369   1.176  -3.065  0.00  0.00    -0.180 F 
ENDBRANCH  14  15
ENDBRANCH   2   9
BRANCH   6  19
ATOM     19  N   LIG    1       -2.691   8.967  -1.706  0.00  0.00    -1.110 NA
ATOM     20  H   LIG    1       -3.090   8.785  -2.571  0.00  0.00    +0.420 HD
BRANCH  19  21
ATOM     21  S   LIG    1       -2.088  10.473  -1.372  0.00  0.00    +2.720 S 
ATOM     22  O   LIG    1       -2.615  10.844  -0.106  0.00  0.00    -0.950 OA
ATOM     23  O   LIG    1       -2.272  11.248  -2.548  0.00  0.00    -0.950 OA
BRANCH  21  24
ATOM     24  C   LIG    1       -0.348  10.301  -1.155  0.00  0.00    -0.800 A 
ATOM     25  C   LIG    1        0.562  10.403  -2.126  0.00  0.00    +0.170 A 
ATOM     26  C   LIG    1        1.873  10.231  -1.717  0.00  0.00    -0.010 A 
ATOM     27  C   LIG    1        2.029   9.990  -0.414  0.00  0.00    +0.010 A 
ATOM     28  S   LIG    1        0.457   9.978   0.375  0.00  0.00    +0.210 S 
ENDBRANCH  21  24
ENDBRANCH  19  21
ENDBRANCH   6  19
TORSDOF 5
