REMARK  Name = ZINCvU00000008nG.0
REMARK                            x       y       z     vdW  Elec       q    Type
REMARK                         _______ _______ _______ _____ _____    ______ ____
ROOT
ATOM      1  C   LIG    1        4.790   0.066  -0.146  0.00  0.00    +0.510 C 
ATOM      2  N   LIG    1        3.642  -0.630  -0.037  0.00  0.00    -0.660 N 
ATOM      3  H   LIG    1        3.666  -1.597   0.038  0.00  0.00    +0.410 HD
ATOM      4  O   LIG    1        4.768   1.279  -0.139  0.00  0.00    -0.490 OA
ENDROOT
BRANCH   2   5
ATOM      5  C   LIG    1        2.415   0.041  -0.032  0.00  0.00    +0.190 A 
ATOM      6  C   LIG    1        2.301   1.286  -0.631  0.00  0.00    +0.040 A 
ATOM      7  C   LIG    1        1.089   1.948  -0.626  0.00  0.00    +0.060 A 
ATOM      8  C   LIG    1       -0.019   1.374  -0.025  0.00  0.00    -0.050 A 
ATOM      9  C   LIG    1        0.081   0.134   0.576  0.00  0.00    +0.070 A 
ATOM     10 CL   LIG    1       -1.539   2.213  -0.031  0.00  0.00    -0.060 Cl
ATOM     11  C   LIG    1        1.298  -0.542   0.577  0.00  0.00    -0.080 A 
BRANCH  11  12
ATOM     12  C   LIG    1        1.410  -1.874   1.220  0.00  0.00    -0.030 A 
ATOM     13  C   LIG    1        0.705  -2.960   0.706  0.00  0.00    +0.050 A 
ATOM     14  C   LIG    1        0.812  -4.198   1.309  0.00  0.00    +0.040 A 
ATOM     15  C   LIG    1        1.619  -4.361   2.421  0.00  0.00    +0.060 A 
ATOM     16  C   LIG    1        2.322  -3.287   2.937  0.00  0.00    -0.030 A 
ATOM     17 CL   LIG    1        3.331  -3.501   4.333  0.00  0.00    -0.040 Cl
ATOM     18  C   LIG    1        2.226  -2.044   2.338  0.00  0.00    -0.030 A 
ATOM     19 CL   LIG    1        3.114  -0.698   2.981  0.00  0.00    -0.030 Cl
ENDBRANCH  11  12
ENDBRANCH   2   5
BRANCH   1  21
ATOM     20  C   LIG    1        6.322  -1.545   0.954  0.00  0.00    +0.080 C 
ATOM     21  C   LIG    1        6.103  -0.662  -0.276  0.00  0.00    +0.270 C 
BRANCH  21  22
ATOM     22  N   LIG    1        7.194   0.311  -0.379  0.00  0.00    -0.560 N 
ATOM     23  C   LIG    1        7.477   1.225   0.558  0.00  0.00    +0.710 C 
ATOM     24  N   LIG    1        8.531   1.996   0.222  0.00  0.00    -0.720 N 
ATOM     25  H   LIG    1        8.915   2.717   0.744  0.00  0.00    +0.440 HD
ATOM     26  C   LIG    1        8.975   1.530  -1.094  0.00  0.00    +0.120 C 
ATOM     27  C   LIG    1        8.887   2.652  -2.137  0.00  0.00    +0.060 C 
ATOM     28  C   LIG    1       10.339   3.188  -2.233  0.00  0.00    +0.030 C 
ATOM     29  C   LIG    1       11.192   1.901  -2.094  0.00  0.00    +0.040 C 
ATOM     30  C   LIG    1       10.427   1.051  -1.055  0.00  0.00    +0.050 C 
ATOM     31  O   LIG    1        6.857   1.344   1.597  0.00  0.00    -0.520 OA
ATOM     32  C   LIG    1        8.034   0.402  -1.432  0.00  0.00    +0.540 C 
ATOM     33  O   LIG    1        8.033  -0.279  -2.435  0.00  0.00    -0.460 OA
ENDBRANCH  21  22
ENDBRANCH   1  21
TORSDOF 4
