REMARK  Name = ZINCpe000000YzsF.0
REMARK                            x       y       z     vdW  Elec       q    Type
REMARK                         _______ _______ _______ _____ _____    ______ ____
ROOT
ATOM      1  N   LIG    1       -0.987  -2.238  -0.001  0.00  0.00    -0.720 N 
ATOM      2  H   LIG    1       -0.090  -2.608  -0.011  0.00  0.00    +0.400 HD
ATOM      3  C   LIG    1       -1.165  -0.902   0.008  0.00  0.00    +0.590 C 
ATOM      4  O   LIG    1       -2.289  -0.439   0.020  0.00  0.00    -0.530 OA
ENDROOT
BRANCH   1   8
ATOM      5  N   LIG    1       -3.365  -5.611   0.847  0.00  0.00    -0.520 NA
ATOM      6  C   LIG    1       -2.960  -5.427  -0.552  0.00  0.00    +0.180 C 
ATOM      7  C   LIG    1       -1.761  -4.477  -0.616  0.00  0.00    +0.040 C 
ATOM      8  C   LIG    1       -2.148  -3.132   0.004  0.00  0.00    +0.240 C 
ATOM      9  C   LIG    1       -2.612  -3.358   1.446  0.00  0.00    +0.020 C 
ATOM     10  C   LIG    1       -3.786  -4.340   1.450  0.00  0.00    +0.180 C 
BRANCH   5  11
ATOM     11  C   LIG    1       -4.424  -6.623   0.959  0.00  0.00    +0.210 C 
BRANCH  11  15
ATOM     12  N   LIG    1       -5.572  -7.876   2.756  0.00  0.00    -0.860 N 
ATOM     13  H   LIG    1       -5.713  -8.095   3.691  0.00  0.00    +0.400 HD
ATOM     14  H   LIG    1       -6.101  -8.313   2.071  0.00  0.00    +0.400 HD
ATOM     15  C   LIG    1       -4.642  -6.964   2.411  0.00  0.00    +0.520 C 
ATOM     16  O   LIG    1       -3.981  -6.417   3.268  0.00  0.00    -0.520 OA
ENDBRANCH  11  15
ENDBRANCH   5  11
ENDBRANCH   1   8
BRANCH   3  17
ATOM     17  C   LIG    1        0.002  -0.004   0.002  0.00  0.00    -0.290 A 
ATOM     18  C   LIG    1        1.331  -0.375  -0.013  0.00  0.00    +0.300 A 
ATOM     19  N   LIG    1        2.071   0.744  -0.014  0.00  0.00    -0.460 N 
ATOM     20  H   LIG    1        3.041   0.772  -0.023  0.00  0.00    +0.450 HD
ATOM     21  N   LIG    1        1.233   1.862   0.000  0.00  0.00    -0.280 NA
ATOM     22  C   LIG    1       -0.018   1.462   0.010  0.00  0.00    +0.180 A 
BRANCH  22  23
ATOM     23  C   LIG    1       -1.221   2.328   0.021  0.00  0.00    -0.050 A 
ATOM     24  C   LIG    1       -2.367   1.941  -0.672  0.00  0.00    +0.130 A 
ATOM     25  C   LIG    1       -3.486   2.747  -0.655  0.00  0.00    -0.020 A 
ATOM     26  C   LIG    1       -3.469   3.946   0.040  0.00  0.00    +0.110 A 
ATOM     27  C   LIG    1       -2.330   4.337   0.726  0.00  0.00    -0.030 A 
ATOM     28  F   LIG    1       -4.566   4.735   0.050  0.00  0.00    -0.140 F 
ATOM     29  C   LIG    1       -1.208   3.534   0.719  0.00  0.00    +0.070 A 
ENDBRANCH  22  23
ENDBRANCH   3  17
TORSDOF 5
