REMARK  Name = ZINCtV00000oQ8qq.0
REMARK                            x       y       z     vdW  Elec       q    Type
REMARK                         _______ _______ _______ _____ _____    ______ ____
ROOT
ATOM      1  N   LIG    1        5.808   0.277  -2.201  0.00  0.00    -0.410 N 
ATOM      2  C   LIG    1        4.765   0.405  -1.325  0.00  0.00    +0.170 A 
ATOM      3  N   LIG    1        5.052  -0.324  -0.270  0.00  0.00    -0.280 NA
ATOM      4  N   LIG    1        6.196  -0.890  -0.421  0.00  0.00    -0.260 NA
ATOM      5  C   LIG    1        6.711  -0.559  -1.583  0.00  0.00    +0.240 A 
ENDROOT
BRANCH   1  10
ATOM      6  C   LIG    1        6.312   2.693  -7.312  0.00  0.00    +0.110 C 
ATOM      7  C   LIG    1        6.178   2.052  -5.955  0.00  0.00    -0.070 A 
ATOM      8  C   LIG    1        6.080   0.677  -5.849  0.00  0.00    +0.040 A 
ATOM      9  C   LIG    1        5.963   0.086  -4.606  0.00  0.00    +0.030 A 
ATOM     10  C   LIG    1        5.932   0.874  -3.464  0.00  0.00    +0.100 A 
ATOM     11  C   LIG    1        6.030   2.255  -3.574  0.00  0.00    +0.030 A 
ATOM     12  C   LIG    1        6.153   2.840  -4.819  0.00  0.00    -0.070 A 
ATOM     13  C   LIG    1        6.260   4.338  -4.939  0.00  0.00    +0.110 C 
ENDBRANCH   1  10
BRANCH   5  14
ATOM     14  C   LIG    1        8.012  -1.004  -2.126  0.00  0.00    -0.020 A 
ATOM     15  C   LIG    1        8.575  -0.347  -3.221  0.00  0.00    +0.030 A 
ATOM     16  C   LIG    1        9.793  -0.763  -3.720  0.00  0.00    +0.010 A 
ATOM     17  C   LIG    1       10.448  -1.837  -3.144  0.00  0.00    +0.030 A 
ATOM     18  C   LIG    1        9.892  -2.496  -2.062  0.00  0.00    +0.010 A 
ATOM     19  C   LIG    1        8.679  -2.086  -1.550  0.00  0.00    +0.070 A 
ENDBRANCH   5  14
BRANCH   2  20
ATOM     20  S   LIG    1        3.305   1.362  -1.569  0.00  0.00    +0.020 S 
BRANCH  20  21
ATOM     21  C   LIG    1        2.442   1.018  -0.016  0.00  0.00    +0.140 C 
BRANCH  21  22
ATOM     22  C   LIG    1        1.126   1.754   0.001  0.00  0.00    -0.020 C 
ATOM     23  C   LIG    1       -0.013   1.076   0.008  0.00  0.00    +0.040 C 
BRANCH  23  24
ATOM     24  C   LIG    1       -1.303   1.797   0.018  0.00  0.00    -0.060 A 
ATOM     25  C   LIG    1       -1.325   3.192   0.032  0.00  0.00    +0.020 A 
ATOM     26  C   LIG    1       -2.532   3.860   0.035  0.00  0.00    +0.000 A 
ATOM     27  C   LIG    1       -3.719   3.149   0.037  0.00  0.00    +0.000 A 
ATOM     28  C   LIG    1       -3.704   1.766   0.029  0.00  0.00    +0.000 A 
ATOM     29  C   LIG    1       -2.503   1.086   0.020  0.00  0.00    +0.030 A 
ENDBRANCH  23  24
ENDBRANCH  21  22
ENDBRANCH  20  21
ENDBRANCH   2  20
TORSDOF 6
