REMARK  Name = ZINCpe00000VVGwo.0
REMARK                            x       y       z     vdW  Elec       q    Type
REMARK                         _______ _______ _______ _____ _____    ______ ____
ROOT
ATOM      1  C   LIG    1       -0.014   1.209   0.009  0.00  0.00    +0.540 C 
ATOM      2  N   LIG    1        1.143   1.898   0.001  0.00  0.00    -0.610 N 
ATOM      3  C   LIG    1        1.146   3.369   0.003  0.00  0.00    +0.300 C 
ATOM      4  C   LIG    1        2.069   3.848   1.135  0.00  0.00    +0.190 C 
ATOM      5  N   LIG    1        3.390   3.225   0.980  0.00  0.00    -0.480 N 
ATOM      6  C   LIG    1        3.309   1.765   1.112  0.00  0.00    +0.210 C 
ATOM      7  C   LIG    1        2.438   1.200  -0.015  0.00  0.00    +0.300 C 
ATOM      8  O   LIG    1        0.002  -0.004   0.002  0.00  0.00    -0.520 OA
ENDROOT
BRANCH   5   9
ATOM      9  C   LIG    1        4.301   3.758   1.884  0.00  0.00    +0.310 A 
ATOM     10  C   LIG    1        4.520   5.131   1.915  0.00  0.00    -0.050 A 
ATOM     11  C   LIG    1        5.429   5.648   2.820  0.00  0.00    +0.090 A 
ATOM     12  C   LIG    1        6.092   4.771   3.668  0.00  0.00    -0.060 A 
ATOM     13  C   LIG    1        5.826   3.418   3.583  0.00  0.00    +0.290 A 
ATOM     14  N   LIG    1        4.949   2.954   2.713  0.00  0.00    -0.520 NA
ENDBRANCH   5   9
BRANCH   1  15
ATOM     15  C   LIG    1       -1.330   1.944   0.019  0.00  0.00    +0.100 C 
BRANCH  15  16
ATOM     16  S   LIG    1       -2.689   0.750   0.019  0.00  0.00    +0.110 S 
BRANCH  16  23
ATOM     17  N   LIG    1       -5.390   1.480   0.036  0.00  0.00    -0.530 N 
ATOM     18  C   LIG    1       -6.143   2.598   0.045  0.00  0.00    +0.650 A 
ATOM     19  N   LIG    1       -5.304   3.654   0.047  0.00  0.00    -0.540 N 
ATOM     20  H   LIG    1       -5.559   4.590   0.053  0.00  0.00    +0.460 HD
ATOM     21  N   LIG    1       -3.996   3.151   0.044  0.00  0.00    -0.290 NA
ATOM     22  O   LIG    1       -7.361   2.646   0.051  0.00  0.00    -0.550 OA
ATOM     23  C   LIG    1       -4.064   1.851   0.031  0.00  0.00    +0.240 A 
BRANCH  17  24
ATOM     24  C   LIG    1       -5.896   0.105   0.031  0.00  0.00    +0.320 C 
BRANCH  24  26
ATOM     25  C   LIG    1       -6.594  -1.816   1.468  0.00  0.00    +0.030 C 
ATOM     26  C   LIG    1       -6.066  -0.380   1.472  0.00  0.00    +0.000 C 
ENDBRANCH  24  26
ENDBRANCH  17  24
ENDBRANCH  16  23
ENDBRANCH  15  16
ENDBRANCH   1  15
TORSDOF 6
