REMARK  Name = ZINCrH000004t3g3.0
REMARK                            x       y       z     vdW  Elec       q    Type
REMARK                         _______ _______ _______ _____ _____    ______ ____
ROOT
ATOM      1  C   LIG    1        0.033   1.105   0.002  0.00  0.00    +0.090 C 
ATOM      2  C   LIG    1       -0.655   1.561  -1.303  0.00  0.00    +0.260 C 
ATOM      3  N   LIG    1        0.160   2.703  -1.777  0.00  0.00    -0.610 N 
ATOM      4  C   LIG    1        1.557   2.297  -1.499  0.00  0.00    +0.280 C 
ATOM      5  C   LIG    1       -0.272   3.852  -2.334  0.00  0.00    +0.580 C 
ATOM      6  O   LIG    1        0.531   4.675  -2.729  0.00  0.00    -0.520 OA
ATOM      7  C   LIG    1        1.492   1.591  -0.127  0.00  0.00    -0.070 C 
ATOM      8  C   LIG    1        2.454   0.401  -0.093  0.00  0.00    +0.040 C 
ATOM      9  C   LIG    1        1.826   2.576   0.995  0.00  0.00    +0.040 C 
ENDROOT
BRANCH   5  10
ATOM     10  C   LIG    1       -1.720   4.111  -2.465  0.00  0.00    -0.100 A 
ATOM     11  C   LIG    1       -2.601   3.056  -2.713  0.00  0.00    +0.070 A 
ATOM     12  C   LIG    1       -3.953   3.300  -2.830  0.00  0.00    +0.040 A 
ATOM     13  C   LIG    1       -4.441   4.591  -2.712  0.00  0.00    +0.130 A 
ATOM     14  C   LIG    1       -3.570   5.648  -2.470  0.00  0.00    +0.070 A 
ATOM     15  F   LIG    1       -5.766   4.824  -2.832  0.00  0.00    -0.120 F 
ATOM     16  C   LIG    1       -2.213   5.412  -2.346  0.00  0.00    +0.040 A 
BRANCH  14  17
ATOM     17  O   LIG    1       -4.053   6.914  -2.354  0.00  0.00    -0.300 OA
BRANCH  17  18
ATOM     18  C   LIG    1       -3.102   7.951  -2.104  0.00  0.00    +0.600 C 
ATOM     19  F   LIG    1       -2.434   7.692  -0.903  0.00  0.00    -0.160 F 
ATOM     20  F   LIG    1       -3.765   9.180  -2.014  0.00  0.00    -0.130 F 
ATOM     21  F   LIG    1       -2.176   7.997  -3.152  0.00  0.00    -0.160 F 
ENDBRANCH  17  18
ENDBRANCH  14  17
ENDBRANCH   5  10
BRANCH   1  25
ATOM     22  C   LIG    1       -1.730   1.900   4.626  0.00  0.00    +0.360 C 
ATOM     23  N   LIG    1       -1.393   2.084   3.212  0.00  0.00    -0.370 N 
ATOM     24  C   LIG    1       -0.739   1.200   2.430  0.00  0.00    +0.230 A 
ATOM     25  C   LIG    1       -0.627   1.744   1.196  0.00  0.00    -0.220 A 
ATOM     26  C   LIG    1       -1.228   3.007   1.227  0.00  0.00    +0.230 A 
ATOM     27  N   LIG    1       -1.692   3.209   2.433  0.00  0.00    -0.290 NA
ENDBRANCH   1  25
TORSDOF 4
