REMARK  Name = ZINCrD00000hQ6D4.0
REMARK                            x       y       z     vdW  Elec       q    Type
REMARK                         _______ _______ _______ _____ _____    ______ ____
ROOT
ATOM      1  C   LIG    1       -6.673   4.693   5.625  0.00  0.00    +0.530 C 
ATOM      2  N   LIG    1       -6.218   4.783   4.360  0.00  0.00    -0.620 N 
ATOM      3  C   LIG    1       -4.864   4.454   3.876  0.00  0.00    +0.240 C 
ATOM      4  C   LIG    1       -4.625   5.284   2.601  0.00  0.00    +0.250 C 
ATOM      5  C   LIG    1       -5.939   6.070   2.382  0.00  0.00    -0.080 C 
ATOM      6  C   LIG    1       -6.298   6.120   0.895  0.00  0.00    +0.060 C 
ATOM      7  C   LIG    1       -5.829   7.481   2.962  0.00  0.00    +0.050 C 
ATOM      8  C   LIG    1       -6.977   5.232   3.169  0.00  0.00    +0.270 C 
ATOM      9  O   LIG    1       -7.818   4.999   5.882  0.00  0.00    -0.530 OA
ENDROOT
BRANCH   4  10
ATOM     10  N   LIG    1       -4.364   4.401   1.461  0.00  0.00    -0.720 N 
ATOM     11  H   LIG    1       -5.093   4.127   0.883  0.00  0.00    +0.400 HD
ATOM     12  C   LIG    1       -3.111   3.971   1.216  0.00  0.00    +0.530 C 
ATOM     13  O   LIG    1       -2.199   4.315   1.938  0.00  0.00    -0.530 OA
BRANCH  12  14
ATOM     14  C   LIG    1       -2.842   3.063   0.043  0.00  0.00    -0.070 C 
ATOM     15  C   LIG    1       -3.651   1.774   0.200  0.00  0.00    +0.040 C 
ATOM     16  C   LIG    1       -3.252   3.768  -1.252  0.00  0.00    +0.050 C 
BRANCH  14  17
ATOM     17  C   LIG    1       -1.350   2.727  -0.010  0.00  0.00    +0.020 C 
ATOM     18  C   LIG    1       -0.986   1.714  -1.108  0.00  0.00    +0.010 C 
ATOM     19  C   LIG    1       -0.020   1.079  -0.093  0.00  0.00    +0.010 C 
ATOM     20  C   LIG    1       -0.922   1.656   1.011  0.00  0.00    +0.010 C 
ENDBRANCH  14  17
ENDBRANCH  12  14
ENDBRANCH   4  10
BRANCH   1  21
ATOM     21  C   LIG    1       -5.757   4.213   6.722  0.00  0.00    +0.050 C 
BRANCH  21  24
ATOM     22  C   LIG    1       -6.310   4.765  10.085  0.00  0.00    +0.130 C 
ATOM     23  C   LIG    1       -5.692   3.648   9.226  0.00  0.00    +0.030 C 
ATOM     24  C   LIG    1       -6.515   4.205   8.051  0.00  0.00    +0.010 C 
ATOM     25  C   LIG    1       -6.496   5.559   8.779  0.00  0.00    +0.020 C 
BRANCH  22  26
ATOM     26  O   LIG    1       -7.540   4.392  10.708  0.00  0.00    -0.370 OA
BRANCH  26  28
ATOM     27  C   LIG    1       -9.119   4.575  12.529  0.00  0.00    +0.040 C 
ATOM     28  C   LIG    1       -7.782   5.047  11.955  0.00  0.00    +0.160 C 
ENDBRANCH  26  28
ENDBRANCH  22  26
ENDBRANCH  21  24
ENDBRANCH   1  21
TORSDOF 7
