REMARK  Name = ZINCrD00000hQ65J.0
REMARK                            x       y       z     vdW  Elec       q    Type
REMARK                         _______ _______ _______ _____ _____    ______ ____
ROOT
ATOM      1  C   LIG    1        5.401   3.645  -4.393  0.00  0.00    +0.330 A 
ATOM      2  N   LIG    1        5.060   2.967  -3.344  0.00  0.00    -0.510 NA
ATOM      3  C   LIG    1        3.752   2.810  -3.124  0.00  0.00    +0.050 A 
ATOM      4  C   LIG    1        2.945   3.396  -4.034  0.00  0.00    -0.020 A 
ATOM      5  S   LIG    1        3.956   4.186  -5.241  0.00  0.00    +0.120 S 
ENDROOT
BRANCH   3   6
ATOM      6  C   LIG    1        3.229   2.058  -1.971  0.00  0.00    +0.590 C 
ATOM      7  N   LIG    1        4.070   1.628  -1.010  0.00  0.00    -0.590 N 
ATOM      8  C   LIG    1        5.482   2.033  -1.014  0.00  0.00    +0.290 C 
ATOM      9  C   LIG    1        5.824   2.642   0.349  0.00  0.00    -0.000 C 
ATOM     10  C   LIG    1        5.459   1.647   1.454  0.00  0.00    +0.020 C 
ATOM     11  C   LIG    1        3.955   1.367   1.413  0.00  0.00    +0.040 C 
ATOM     12  C   LIG    1        3.592   0.744   0.062  0.00  0.00    +0.340 C 
ATOM     13  O   LIG    1        2.038   1.826  -1.887  0.00  0.00    -0.510 OA
BRANCH  12  14
ATOM     14  C   LIG    1        2.096   0.592  -0.039  0.00  0.00    +0.240 A 
ATOM     15  N   LIG    1        1.218   1.522   0.229  0.00  0.00    -0.280 NA
ATOM     16  N   LIG    1       -0.050   0.961   0.005  0.00  0.00    -0.480 N 
ATOM     17  H   LIG    1       -0.907   1.401   0.113  0.00  0.00    +0.440 HD
ATOM     18  C   LIG    1        0.162  -0.305  -0.393  0.00  0.00    +0.480 A 
ATOM     19  N   LIG    1        1.454  -0.513  -0.415  0.00  0.00    -0.540 NA
ENDBRANCH  12  14
ENDBRANCH   3   6
BRANCH   1  20
ATOM     20  N   LIG    1        6.703   3.908  -4.786  0.00  0.00    -0.630 N 
ATOM     21  H   LIG    1        7.445   3.592  -4.248  0.00  0.00    +0.420 HD
BRANCH  20  25
ATOM     22  C   LIG    1        7.431   6.058  -8.283  0.00  0.00    +0.120 A 
ATOM     23  C   LIG    1        6.369   6.408  -7.462  0.00  0.00    +0.030 A 
ATOM     24  C   LIG    1        6.127   5.696  -6.304  0.00  0.00    +0.020 A 
ATOM     25  C   LIG    1        6.947   4.630  -5.960  0.00  0.00    +0.120 A 
ATOM     26  C   LIG    1        8.014   4.283  -6.780  0.00  0.00    +0.030 A 
ATOM     27  C   LIG    1        8.251   4.993  -7.940  0.00  0.00    -0.040 A 
BRANCH  22  29
ATOM     28  C   LIG    1        8.779   6.343 -10.221  0.00  0.00    +0.240 C 
ATOM     29  O   LIG    1        7.668   6.759  -9.424  0.00  0.00    -0.310 OA
ENDBRANCH  22  29
ENDBRANCH  20  25
ENDBRANCH   1  20
TORSDOF 5
