REMARK  Name = ZINCrD00000hQ65J.1
REMARK                            x       y       z     vdW  Elec       q    Type
REMARK                         _______ _______ _______ _____ _____    ______ ____
ROOT
ATOM      1  C   LIG    1        1.396  -5.114   1.047  0.00  0.00    +0.330 A 
ATOM      2  N   LIG    1        1.494  -6.348   0.670  0.00  0.00    -0.510 NA
ATOM      3  C   LIG    1        2.720  -6.800   0.390  0.00  0.00    +0.050 A 
ATOM      4  C   LIG    1        3.712  -5.897   0.550  0.00  0.00    -0.020 A 
ATOM      5  S   LIG    1        2.996  -4.379   1.087  0.00  0.00    +0.130 S 
ENDROOT
BRANCH   3   6
ATOM      6  C   LIG    1        2.972  -8.180  -0.054  0.00  0.00    +0.590 C 
ATOM      7  N   LIG    1        1.938  -8.989  -0.357  0.00  0.00    -0.590 N 
ATOM      8  C   LIG    1        0.553  -8.526  -0.198  0.00  0.00    +0.280 C 
ATOM      9  C   LIG    1       -0.191  -8.731  -1.522  0.00  0.00    +0.020 C 
ATOM     10  C   LIG    1       -0.063 -10.194  -1.953  0.00  0.00    +0.010 C 
ATOM     11  C   LIG    1        1.413 -10.536  -2.170  0.00  0.00    +0.050 C 
ATOM     12  C   LIG    1        2.174 -10.350  -0.859  0.00  0.00    +0.330 C 
ATOM     13  O   LIG    1        4.113  -8.590  -0.147  0.00  0.00    -0.510 OA
BRANCH  12  14
ATOM     14  C   LIG    1        3.648 -10.550  -1.101  0.00  0.00    +0.200 A 
ATOM     15  N   LIG    1        4.358 -10.003  -2.050  0.00  0.00    -0.270 NA
ATOM     16  N   LIG    1        5.580 -10.392  -1.956  0.00  0.00    -0.290 NA
ATOM     17  C   LIG    1        5.704 -11.211  -0.948  0.00  0.00    +0.370 A 
ATOM     18  N   LIG    1        4.482 -11.335  -0.376  0.00  0.00    -0.580 N 
ATOM     19  H   LIG    1        4.250 -11.876   0.395  0.00  0.00    +0.420 HD
ENDBRANCH  12  14
ENDBRANCH   3   6
BRANCH   1  20
ATOM     20  N   LIG    1        0.214  -4.471   1.375  0.00  0.00    -0.620 N 
ATOM     21  H   LIG    1       -0.615  -4.973   1.421  0.00  0.00    +0.420 HD
BRANCH  20  25
ATOM     22  C   LIG    1        0.218  -0.377   2.165  0.00  0.00    +0.120 A 
ATOM     23  C   LIG    1       -0.602  -1.224   2.897  0.00  0.00    -0.040 A 
ATOM     24  C   LIG    1       -0.608  -2.579   2.632  0.00  0.00    +0.030 A 
ATOM     25  C   LIG    1        0.215  -3.096   1.640  0.00  0.00    +0.110 A 
ATOM     26  C   LIG    1        1.040  -2.249   0.912  0.00  0.00    +0.020 A 
ATOM     27  C   LIG    1        1.041  -0.893   1.174  0.00  0.00    +0.020 A 
BRANCH  22  29
ATOM     28  C   LIG    1       -0.651   1.420   3.457  0.00  0.00    +0.250 C 
ATOM     29  O   LIG    1        0.220   0.958   2.423  0.00  0.00    -0.310 OA
ENDBRANCH  22  29
ENDBRANCH  20  25
ENDBRANCH   1  20
TORSDOF 5
