REMARK  Name = ZINCpk00000eb7aK.0
REMARK                            x       y       z     vdW  Elec       q    Type
REMARK                         _______ _______ _______ _____ _____    ______ ____
ROOT
ATOM      1  C   LIG    1        4.957   0.472  -1.830  0.00  0.00    +0.520 C 
ATOM      2  N   LIG    1        4.274  -0.616  -1.421  0.00  0.00    -0.710 N 
ATOM      3  H   LIG    1        4.139  -1.360  -2.028  0.00  0.00    +0.400 HD
ATOM      4  O   LIG    1        5.127   1.402  -1.070  0.00  0.00    -0.540 OA
ENDROOT
BRANCH   2   5
ATOM      5  C   LIG    1        3.736  -0.674  -0.059  0.00  0.00    +0.300 C 
ATOM      6  C   LIG    1        2.393   0.007  -0.026  0.00  0.00    -0.100 A 
ATOM      7  C   LIG    1        2.372   1.395  -0.016  0.00  0.00    +0.040 A 
ATOM      8  C   LIG    1        1.174   2.078   0.002  0.00  0.00    -0.010 A 
ATOM      9  C   LIG    1       -0.017   1.376   0.010  0.00  0.00    +0.010 A 
ATOM     10  C   LIG    1        0.002  -0.004   0.002  0.00  0.00    -0.010 A 
ATOM     11  C   LIG    1        1.208  -0.693  -0.013  0.00  0.00    -0.070 A 
ATOM     12  C   LIG    1        1.155  -2.199  -0.005  0.00  0.00    +0.080 C 
ATOM     13  C   LIG    1        2.491  -2.785  -0.456  0.00  0.00    +0.000 C 
ATOM     14  C   LIG    1        3.608  -2.135   0.369  0.00  0.00    +0.170 C 
BRANCH  14  15
ATOM     15  O   LIG    1        4.842  -2.816   0.132  0.00  0.00    -0.560 OA
ATOM     16  H   LIG    1        4.830  -3.750   0.383  0.00  0.00    +0.380 HD
ENDBRANCH  14  15
ENDBRANCH   2   5
BRANCH   1  17
ATOM     17  C   LIG    1        5.510   0.532  -3.230  0.00  0.00    +0.060 C 
BRANCH  17  18
ATOM     18  C   LIG    1        6.236   1.863  -3.435  0.00  0.00    +0.140 C 
BRANCH  18  23
ATOM     19  C   LIG    1        8.277   2.124  -8.763  0.00  0.00    +0.190 C 
ATOM     20  C   LIG    1        7.756   2.045  -7.351  0.00  0.00    +0.400 A 
ATOM     21  N   LIG    1        6.594   2.572  -7.070  0.00  0.00    -0.540 NA
ATOM     22  C   LIG    1        6.086   2.523  -5.836  0.00  0.00    +0.190 A 
ATOM     23  C   LIG    1        6.789   1.923  -4.836  0.00  0.00    -0.260 A 
ATOM     24  C   LIG    1        8.043   1.354  -5.139  0.00  0.00    +0.530 A 
ATOM     25  O   LIG    1        8.704   0.803  -4.274  0.00  0.00    -0.530 OA
ATOM     26  C   LIG    1        4.740   3.136  -5.549  0.00  0.00    +0.140 C 
ATOM     27  N   LIG    1        8.498   1.432  -6.409  0.00  0.00    -0.630 N 
ATOM     28  H   LIG    1        9.358   1.048  -6.641  0.00  0.00    +0.420 HD
ENDBRANCH  18  23
ENDBRANCH  17  18
ENDBRANCH   1  17
TORSDOF 5
