REMARK  Name = ZINCrH000004mEWp.0
REMARK                            x       y       z     vdW  Elec       q    Type
REMARK                         _______ _______ _______ _____ _____    ______ ____
ROOT
ATOM      1  N   LIG    1        2.391  -1.931   3.700  0.00  0.00    -0.740 N 
ATOM      2  H   LIG    1        1.455  -2.182   3.683  0.00  0.00    +0.400 HD
ATOM      3  C   LIG    1        3.344  -2.884   3.739  0.00  0.00    +0.710 C 
ATOM      4  N   LIG    1        2.994  -4.186   3.753  0.00  0.00    -0.750 N 
ATOM      5  H   LIG    1        2.058  -4.437   3.736  0.00  0.00    +0.400 HD
ATOM      6  O   LIG    1        4.518  -2.569   3.760  0.00  0.00    -0.590 OA
ENDROOT
BRANCH   1   7
ATOM      7  C   LIG    1        2.771  -0.516   3.684  0.00  0.00    +0.350 C 
BRANCH   7  11
ATOM      8  C   LIG    1       -0.753   1.904   3.568  0.00  0.00    +0.130 A 
ATOM      9  C   LIG    1       -0.206   1.530   4.785  0.00  0.00    -0.040 A 
ATOM     10  C   LIG    1        0.934   0.748   4.819  0.00  0.00    +0.050 A 
ATOM     11  C   LIG    1        1.529   0.337   3.641  0.00  0.00    -0.110 A 
ATOM     12  C   LIG    1        0.985   0.702   2.424  0.00  0.00    +0.010 A 
ATOM     13  C   LIG    1       -0.153   1.491   2.382  0.00  0.00    +0.070 A 
BRANCH   8  15
ATOM     14  C   LIG    1       -2.435   3.061   4.789  0.00  0.00    +0.240 C 
ATOM     15  O   LIG    1       -1.873   2.674   3.533  0.00  0.00    -0.310 OA
ENDBRANCH   8  15
BRANCH  13  16
ATOM     16  O   LIG    1       -0.686   1.856   1.185  0.00  0.00    -0.310 OA
BRANCH  16  17
ATOM     17  C   LIG    1       -0.017   1.395   0.010  0.00  0.00    +0.590 C 
ATOM     18  F   LIG    1        1.296   1.879  -0.000  0.00  0.00    -0.200 F 
ATOM     19  F   LIG    1        0.002  -0.004   0.002  0.00  0.00    -0.200 F 
ENDBRANCH  16  17
ENDBRANCH  13  16
ENDBRANCH   7  11
ENDBRANCH   1   7
BRANCH   4  20
ATOM     20  C   LIG    1        4.030  -5.221   3.795  0.00  0.00    +0.380 C 
BRANCH  20  21
ATOM     21  C   LIG    1        3.380  -6.581   3.804  0.00  0.00    +0.050 A 
ATOM     22  C   LIG    1        3.159  -7.337   2.716  0.00  0.00    -0.020 A 
ATOM     23  C   LIG    1        2.512  -8.569   3.175  0.00  0.00    -0.110 A 
ATOM     24  C   LIG    1        2.047  -9.717   2.532  0.00  0.00    +0.050 A 
ATOM     25  C   LIG    1        1.475 -10.720   3.264  0.00  0.00    -0.030 A 
ATOM     26  C   LIG    1        1.353 -10.605   4.642  0.00  0.00    +0.040 A 
ATOM     27  C   LIG    1        1.806  -9.479   5.296  0.00  0.00    -0.010 A 
ATOM     28  C   LIG    1        2.391  -8.447   4.571  0.00  0.00    +0.100 A 
ATOM     29  N   LIG    1        2.933  -7.231   4.922  0.00  0.00    -0.590 N 
ATOM     30  H   LIG    1        2.987  -6.885   5.826  0.00  0.00    +0.420 HD
ENDBRANCH  20  21
ENDBRANCH   4  20
TORSDOF 7
