REMARK  Name = ZINCpk000000nz3J.0
REMARK                            x       y       z     vdW  Elec       q    Type
REMARK                         _______ _______ _______ _____ _____    ______ ____
ROOT
ATOM      1  C   LIG    1       -0.089   5.864  -1.413  0.00  0.00    +0.260 C 
ENDROOT
BRANCH   1   2
ATOM      2  C   LIG    1       -0.111   7.371  -1.402  0.00  0.00    +0.520 C 
ATOM      3  N   LIG    1        0.942   8.057  -0.914  0.00  0.00    -0.610 N 
ATOM      4  C   LIG    1        2.162   7.359  -0.481  0.00  0.00    +0.280 C 
ATOM      5  C   LIG    1        3.367   8.024  -1.166  0.00  0.00    +0.170 C 
ATOM      6  N   LIG    1        3.346   9.466  -0.890  0.00  0.00    -0.540 NA
ATOM      7  C   LIG    1        2.152  10.101  -1.464  0.00  0.00    +0.170 C 
ATOM      8  C   LIG    1        4.571  10.113  -1.378  0.00  0.00    +0.190 C 
ATOM      9  C   LIG    1        0.899   9.522  -0.796  0.00  0.00    +0.300 C 
ATOM     10  O   LIG    1       -1.076   7.967  -1.832  0.00  0.00    -0.530 OA
ENDBRANCH   1   2
BRANCH   1  13
ATOM     11  N   LIG    1       -1.835   3.696  -3.815  0.00  0.00    -0.630 N 
ATOM     12  C   LIG    1       -0.924   4.153  -2.932  0.00  0.00    +0.710 C 
ATOM     13  N   LIG    1       -1.079   5.369  -2.372  0.00  0.00    -0.730 N 
ATOM     14  H   LIG    1       -1.846   5.915  -2.603  0.00  0.00    +0.400 HD
ATOM     15  O   LIG    1        0.037   3.467  -2.642  0.00  0.00    -0.570 OA
ATOM     16  C   LIG    1       -2.994   4.522  -4.165  0.00  0.00    +0.280 C 
BRANCH  11  18
ATOM     17  C   LIG    1       -2.868   1.495  -4.073  0.00  0.00    +0.030 C 
ATOM     18  C   LIG    1       -1.667   2.375  -4.424  0.00  0.00    +0.250 C 
ATOM     19  C   LIG    1       -1.570   2.522  -5.944  0.00  0.00    +0.030 C 
ENDBRANCH  11  18
ENDBRANCH   1  13
BRANCH   1  20
ATOM     20  C   LIG    1       -0.425   5.339  -0.015  0.00  0.00    +0.080 C 
BRANCH  20  21
ATOM     21  C   LIG    1       -0.275   3.840   0.008  0.00  0.00    -0.060 A 
ATOM     22  C   LIG    1        0.941   3.273   0.339  0.00  0.00    +0.000 A 
ATOM     23  C   LIG    1        1.080   1.897   0.360  0.00  0.00    +0.010 A 
ATOM     24  C   LIG    1        0.002   1.090   0.050  0.00  0.00    -0.010 A 
ATOM     25  C   LIG    1       -1.213   1.657  -0.286  0.00  0.00    +0.000 A 
ATOM     26  C   LIG    1       -1.353   3.032  -0.303  0.00  0.00    +0.010 A 
ENDBRANCH  20  21
ENDBRANCH   1  20
TORSDOF 5
