REMARK  Name = ZINCwl0000000mPu.2
REMARK                            x       y       z     vdW  Elec       q    Type
REMARK                         _______ _______ _______ _____ _____    ______ ____
ROOT
ATOM      1  C   LIG    1        0.787   2.588   3.580  0.00  0.00    +0.510 C 
ATOM      2  N   LIG    1        0.936   1.516   2.777  0.00  0.00    -0.630 N 
ATOM      3  C   LIG    1        2.291   1.165   2.304  0.00  0.00    +0.290 C 
ATOM      4  C   LIG    1        2.269   0.750   0.822  0.00  0.00    +0.070 C 
ATOM      5  C   LIG    1        1.320   1.649   0.061  0.00  0.00    +0.270 C 
ATOM      6  N   LIG    1        0.001   1.023   0.007  0.00  0.00    -0.350 N 
ATOM      7  C   LIG    1       -0.842   1.314   1.102  0.00  0.00    +0.240 C 
ATOM      8  H   LIG    1        0.126   0.023  -0.041  0.00  0.00    +0.430 HD
ATOM      9  C   LIG    1       -0.236   0.750   2.409  0.00  0.00    +0.330 C 
ATOM     10  O   LIG    1       -0.316   2.896   3.981  0.00  0.00    -0.520 OA
ENDROOT
BRANCH   1  11
ATOM     11  C   LIG    1        1.989   3.404   3.980  0.00  0.00    +0.100 C 
BRANCH  11  12
ATOM     12  C   LIG    1        1.546   4.554   4.886  0.00  0.00    +0.150 C 
BRANCH  12  16
ATOM     13  O   LIG    1        6.121   5.359   4.737  0.00  0.00    -0.480 OA
ATOM     14  C   LIG    1        5.030   5.703   5.162  0.00  0.00    +0.540 A 
ATOM     15  N   LIG    1        3.922   5.012   4.845  0.00  0.00    -0.590 NA
ATOM     16  C   LIG    1        2.748   5.370   5.286  0.00  0.00    +0.440 A 
ATOM     17  N   LIG    1        2.568   6.432   6.087  0.00  0.00    -0.580 N 
ATOM     18  H   LIG    1        1.674   6.655   6.391  0.00  0.00    +0.430 HD
ATOM     19  C   LIG    1        3.635   7.211   6.483  0.00  0.00    +0.040 A 
ATOM     20  S   LIG    1        3.717   8.633   7.506  0.00  0.00    +0.210 S 
ATOM     21  C   LIG    1        5.466   8.757   7.318  0.00  0.00    -0.220 A 
ATOM     22  C   LIG    1        6.602   9.658   7.793  0.00  0.00    +0.130 C 
ATOM     23  C   LIG    1        7.885   8.837   7.550  0.00  0.00    +0.050 C 
ATOM     24  C   LIG    1        7.449   7.920   6.390  0.00  0.00    +0.110 C 
ATOM     25  C   LIG    1        5.933   7.791   6.539  0.00  0.00    -0.050 A 
ATOM     26  C   LIG    1        4.899   6.882   6.041  0.00  0.00    -0.200 A 
ENDBRANCH  12  16
ENDBRANCH  11  12
ENDBRANCH   1  11
BRANCH   6  27
ATOM     27  C   LIG    1       -0.671   1.464  -1.222  0.00  0.00    +0.280 C 
BRANCH  27  28
ATOM     28  C   LIG    1        0.057   0.912  -2.420  0.00  0.00    +0.510 C 
ATOM     29  N   LIG    1       -0.310   1.283  -3.662  0.00  0.00    -0.600 N 
ATOM     30  C   LIG    1       -1.402   2.210  -3.992  0.00  0.00    +0.240 C 
ATOM     31  C   LIG    1       -1.467   2.314  -5.530  0.00  0.00    +0.050 C 
ATOM     32  C   LIG    1       -0.785   0.999  -5.994  0.00  0.00    +0.040 C 
ATOM     33  C   LIG    1        0.314   0.822  -4.916  0.00  0.00    +0.270 C 
ATOM     34  O   LIG    1        0.974   0.133  -2.265  0.00  0.00    -0.530 OA
ENDBRANCH  27  28
ENDBRANCH   6  27
TORSDOF 5
