REMARK  Name = ZINCwl0000000mPu.1
REMARK                            x       y       z     vdW  Elec       q    Type
REMARK                         _______ _______ _______ _____ _____    ______ ____
ROOT
ATOM      1  C   LIG    1        1.452   3.040  -1.573  0.00  0.00    +0.510 C 
ATOM      2  N   LIG    1        1.129   2.062  -0.704  0.00  0.00    -0.630 N 
ATOM      3  C   LIG    1       -0.212   1.449  -0.788  0.00  0.00    +0.290 C 
ATOM      4  C   LIG    1       -0.136  -0.077  -0.600  0.00  0.00    +0.070 C 
ATOM      5  C   LIG    1        1.081  -0.613  -1.322  0.00  0.00    +0.260 C 
ATOM      6  N   LIG    1        2.203  -0.683  -0.389  0.00  0.00    -0.350 N 
ATOM      7  C   LIG    1        2.971   0.498  -0.291  0.00  0.00    +0.240 C 
ATOM      8  H   LIG    1        1.842  -0.906   0.527  0.00  0.00    +0.430 HD
ATOM      9  C   LIG    1        2.110   1.650   0.279  0.00  0.00    +0.330 C 
ATOM     10  O   LIG    1        2.547   3.558  -1.524  0.00  0.00    -0.520 OA
ENDROOT
BRANCH   1  11
ATOM     11  C   LIG    1        0.451   3.490  -2.607  0.00  0.00    +0.100 C 
BRANCH  11  12
ATOM     12  C   LIG    1        1.064   4.602  -3.460  0.00  0.00    +0.150 C 
BRANCH  12  16
ATOM     13  O   LIG    1       -3.130   4.286  -5.438  0.00  0.00    -0.480 OA
ATOM     14  C   LIG    1       -2.039   4.833  -5.421  0.00  0.00    +0.540 A 
ATOM     15  N   LIG    1       -1.104   4.473  -4.526  0.00  0.00    -0.590 NA
ATOM     16  C   LIG    1        0.064   5.052  -4.493  0.00  0.00    +0.440 A 
ATOM     17  N   LIG    1        0.414   6.028  -5.345  0.00  0.00    -0.580 N 
ATOM     18  H   LIG    1        1.297   6.425  -5.281  0.00  0.00    +0.430 HD
ATOM     19  C   LIG    1       -0.464   6.474  -6.312  0.00  0.00    +0.040 A 
ATOM     20  S   LIG    1       -0.300   7.708  -7.548  0.00  0.00    +0.210 S 
ATOM     21  C   LIG    1       -1.933   7.425  -8.149  0.00  0.00    -0.220 A 
ATOM     22  C   LIG    1       -2.854   7.963  -9.240  0.00  0.00    +0.130 C 
ATOM     23  C   LIG    1       -3.950   6.889  -9.396  0.00  0.00    +0.050 C 
ATOM     24  C   LIG    1       -3.952   6.244  -7.996  0.00  0.00    +0.110 C 
ATOM     25  C   LIG    1       -2.539   6.470  -7.457  0.00  0.00    -0.050 A 
ATOM     26  C   LIG    1       -1.716   5.901  -6.389  0.00  0.00    -0.200 A 
ENDBRANCH  12  16
ENDBRANCH  11  12
ENDBRANCH   1  11
BRANCH   6  27
ATOM     27  C   LIG    1        3.088  -1.778  -0.810  0.00  0.00    +0.280 C 
BRANCH  27  28
ATOM     28  C   LIG    1        2.375  -3.094  -0.642  0.00  0.00    +0.510 C 
ATOM     29  N   LIG    1        2.950  -4.233  -1.077  0.00  0.00    -0.600 N 
ATOM     30  C   LIG    1        4.260  -4.333  -1.737  0.00  0.00    +0.240 C 
ATOM     31  C   LIG    1        4.489  -5.821  -2.077  0.00  0.00    +0.050 C 
ATOM     32  C   LIG    1        3.047  -6.394  -2.107  0.00  0.00    +0.040 C 
ATOM     33  C   LIG    1        2.366  -5.583  -0.977  0.00  0.00    +0.270 C 
ATOM     34  O   LIG    1        1.283  -3.129  -0.115  0.00  0.00    -0.530 OA
ENDBRANCH  27  28
ENDBRANCH   6  27
TORSDOF 5
