REMARK  Name = ZINCvU0000000EHu.0
REMARK                            x       y       z     vdW  Elec       q    Type
REMARK                         _______ _______ _______ _____ _____    ______ ____
ROOT
ATOM      1  C   LIG    1       -1.311   2.116   0.020  0.00  0.00    +0.210 C 
ATOM      2  C   LIG    1       -1.303   3.462   0.033  0.00  0.00    -0.140 C 
ATOM      3  C   LIG    1       -2.646   4.169   0.037  0.00  0.00    +0.360 C 
ATOM      4  N   LIG    1       -3.833   3.308   0.038  0.00  0.00    -0.460 N 
ATOM      5  N   LIG    1       -5.210   3.549   0.046  0.00  0.00    -0.480 N 
ATOM      6  H   LIG    1       -5.649   4.414   0.053  0.00  0.00    +0.450 HD
ATOM      7  C   LIG    1       -5.817   2.318   0.042  0.00  0.00    +0.450 A 
ATOM      8  N   LIG    1       -4.893   1.383   0.033  0.00  0.00    -0.510 NA
ATOM      9  C   LIG    1       -3.665   1.937   0.030  0.00  0.00    +0.580 A 
ATOM     10  N   LIG    1       -2.464   1.405   0.021  0.00  0.00    -0.580 NA
ENDROOT
BRANCH   3  11
ATOM     11  C   LIG    1       -2.704   5.048   1.260  0.00  0.00    -0.110 A 
ATOM     12  C   LIG    1       -3.136   4.527   2.464  0.00  0.00    +0.040 A 
ATOM     13  C   LIG    1       -3.190   5.329   3.589  0.00  0.00    +0.040 A 
ATOM     14  C   LIG    1       -2.810   6.659   3.511  0.00  0.00    +0.040 A 
ATOM     15  O   LIG    1       -2.770   7.645   4.453  0.00  0.00    -0.310 OA
ATOM     16  C   LIG    1       -1.920   8.669   3.901  0.00  0.00    +0.440 C 
ATOM     17  O   LIG    1       -2.061   8.500   2.478  0.00  0.00    -0.310 OA
ATOM     18  C   LIG    1       -2.375   7.184   2.296  0.00  0.00    +0.040 A 
ATOM     19  C   LIG    1       -2.318   6.373   1.175  0.00  0.00    +0.050 A 
ENDBRANCH   3  11
BRANCH   1  24
ATOM     20 CL   LIG    1        3.910  -0.817  -0.039  0.00  0.00    -0.070 Cl
ATOM     21  C   LIG    1        2.397   0.033  -0.020  0.00  0.00    -0.030 A 
ATOM     22  C   LIG    1        1.208  -0.675  -0.013  0.00  0.00    +0.020 A 
ATOM     23  C   LIG    1        0.002  -0.004   0.002  0.00  0.00    +0.080 A 
ATOM     24  C   LIG    1       -0.017   1.389   0.010  0.00  0.00    -0.040 A 
ATOM     25  C   LIG    1        1.183   2.098   0.002  0.00  0.00    +0.050 A 
ATOM     26  C   LIG    1        2.383   1.417  -0.013  0.00  0.00    +0.030 A 
ENDBRANCH   1  24
BRANCH   7  27
ATOM     27  C   LIG    1       -7.275   2.083   0.049  0.00  0.00    -0.060 A 
ATOM     28  C   LIG    1       -8.160   3.163   0.065  0.00  0.00    +0.030 A 
ATOM     29  C   LIG    1       -9.520   2.935   0.065  0.00  0.00    +0.010 A 
ATOM     30  C   LIG    1      -10.009   1.640   0.060  0.00  0.00    +0.050 A 
ATOM     31  C   LIG    1       -9.137   0.565   0.050  0.00  0.00    +0.020 A 
ATOM     32  C   LIG    1       -7.774   0.778   0.044  0.00  0.00    +0.100 A 
ENDBRANCH   7  27
TORSDOF 3
