REMARK  Name = ZINCqH0000005hqO.0
REMARK                            x       y       z     vdW  Elec       q    Type
REMARK                         _______ _______ _______ _____ _____    ______ ____
ROOT
ATOM      1  C   LIG    1        1.310   2.179  -0.204  0.00  0.00    -0.080 A 
ATOM      2  C   LIG    1        0.057   1.593  -0.385  0.00  0.00    +0.060 A 
ATOM      3  C   LIG    1       -1.077   2.378  -0.372  0.00  0.00    +0.120 A 
ATOM      4  C   LIG    1       -0.975   3.743  -0.168  0.00  0.00    -0.660 A 
ATOM      5  C   LIG    1        0.265   4.330   0.011  0.00  0.00    +0.130 A 
ATOM      6  C   LIG    1        1.407   3.557  -0.005  0.00  0.00    +0.030 A 
ENDROOT
BRANCH   1   9
ATOM      7  C   LIG    1        3.517   2.845   1.424  0.00  0.00    +0.300 C 
ATOM      8  N   LIG    1        3.600   1.698   0.516  0.00  0.00    -0.600 N 
ATOM      9  C   LIG    1        2.530   1.344  -0.223  0.00  0.00    +0.560 C 
ATOM     10  O   LIG    1        2.568   0.339  -0.905  0.00  0.00    -0.520 OA
BRANCH   8  11
ATOM     11  C   LIG    1        4.847   0.936   0.412  0.00  0.00    +0.350 C 
BRANCH  11  12
ATOM     12  C   LIG    1        5.650   1.444  -0.758  0.00  0.00    -0.090 A 
ATOM     13  C   LIG    1        5.589   0.789  -1.974  0.00  0.00    +0.060 A 
ATOM     14  C   LIG    1        6.321   1.258  -3.050  0.00  0.00    +0.040 A 
ATOM     15  C   LIG    1        7.122   2.375  -2.907  0.00  0.00    +0.050 A 
ATOM     16  C   LIG    1        7.188   3.029  -1.690  0.00  0.00    -0.040 A 
ATOM     17 CL   LIG    1        8.195   4.431  -1.510  0.00  0.00    -0.050 Cl
ATOM     18  C   LIG    1        6.451   2.562  -0.614  0.00  0.00    -0.020 A 
ATOM     19 CL   LIG    1        6.532   3.381   0.914  0.00  0.00    -0.050 Cl
ENDBRANCH  11  12
ENDBRANCH   8  11
ENDBRANCH   1   9
BRANCH   4  20
ATOM     20  S   LIG    1       -2.429   4.737  -0.145  0.00  0.00    +2.700 S 
ATOM     21  O   LIG    1       -2.104   5.907   0.594  0.00  0.00    -0.950 OA
ATOM     22  O   LIG    1       -3.502   3.872   0.201  0.00  0.00    -0.950 OA
BRANCH  20  23
ATOM     23  N   LIG    1       -2.710   5.231  -1.701  0.00  0.00    -1.090 NA
ATOM     24  H   LIG    1       -2.655   6.172  -1.928  0.00  0.00    +0.420 HD
BRANCH  23  25
ATOM     25  C   LIG    1       -3.043   4.246  -2.733  0.00  0.00    +0.220 C 
ATOM     26  C   LIG    1       -2.546   4.518  -4.154  0.00  0.00    +0.010 C 
ATOM     27  C   LIG    1       -4.032   4.669  -3.821  0.00  0.00    +0.030 C 
ENDBRANCH  23  25
ENDBRANCH  20  23
ENDBRANCH   4  20
TORSDOF 6
