REMARK  Name = ZINCqH0000051dYa.0
REMARK                            x       y       z     vdW  Elec       q    Type
REMARK                         _______ _______ _______ _____ _____    ______ ____
ROOT
ATOM      1  C   LIG    1       -3.300  -1.828  -2.977  0.00  0.00    +0.180 A 
ATOM      2  C   LIG    1       -2.505  -1.346  -4.005  0.00  0.00    +0.080 A 
ATOM      3  C   LIG    1       -2.919  -1.478  -5.318  0.00  0.00    -0.160 A 
ATOM      4  C   LIG    1       -4.129  -2.079  -5.609  0.00  0.00    +0.060 A 
ATOM      5  C   LIG    1       -4.931  -2.558  -4.589  0.00  0.00    +0.010 A 
ATOM      6  C   LIG    1       -4.521  -2.436  -3.270  0.00  0.00    +0.080 A 
ENDROOT
BRANCH   6   7
ATOM      7  N   LIG    1       -5.329  -2.920  -2.236  0.00  0.00    -0.500 N 
ATOM      8  C   LIG    1       -5.486  -4.379  -2.329  0.00  0.00    +0.160 C 
ATOM      9  C   LIG    1       -6.326  -4.873  -1.148  0.00  0.00    +0.220 C 
ATOM     10  O   LIG    1       -7.584  -4.192  -1.147  0.00  0.00    -0.380 OA
ATOM     11  C   LIG    1       -7.469  -2.770  -1.057  0.00  0.00    +0.220 C 
ATOM     12  C   LIG    1       -6.640  -2.254  -2.237  0.00  0.00    +0.160 C 
ENDBRANCH   6   7
BRANCH   1  15
ATOM     13  O   LIG    1       -0.743  -1.705  -2.244  0.00  0.00    -0.500 OA
ATOM     14  C   LIG    1       -1.566  -1.592  -1.361  0.00  0.00    +0.510 C 
ATOM     15  N   LIG    1       -2.879  -1.702  -1.646  0.00  0.00    -0.660 N 
ATOM     16  H   LIG    1       -3.533  -1.692  -0.929  0.00  0.00    +0.420 HD
BRANCH  14  17
ATOM     17  C   LIG    1       -1.122  -1.331   0.055  0.00  0.00    +0.120 C 
BRANCH  17  18
ATOM     18  C   LIG    1        0.383  -1.253   0.103  0.00  0.00    -0.070 A 
ATOM     19  C   LIG    1        1.018  -0.039  -0.076  0.00  0.00    +0.020 A 
ATOM     20  C   LIG    1        2.398   0.033  -0.032  0.00  0.00    +0.000 A 
ATOM     21  C   LIG    1        3.142  -1.111   0.190  0.00  0.00    +0.000 A 
ATOM     22  C   LIG    1        2.507  -2.325   0.369  0.00  0.00    +0.000 A 
ATOM     23  C   LIG    1        1.127  -2.397   0.326  0.00  0.00    +0.020 A 
ENDBRANCH  17  18
ENDBRANCH  14  17
ENDBRANCH   1  15
BRANCH   3  24
ATOM     24  C   LIG    1       -2.051  -0.959  -6.435  0.00  0.00    +0.510 C 
ATOM     25  F   LIG    1       -0.814  -1.612  -6.407  0.00  0.00    -0.170 F 
ATOM     26  F   LIG    1       -1.855   0.417  -6.272  0.00  0.00    -0.180 F 
ATOM     27  F   LIG    1       -2.677  -1.198  -7.663  0.00  0.00    -0.180 F 
ENDBRANCH   3  24
TORSDOF 5
