REMARK  Name = ZINCb80000002CZC.0
REMARK                            x       y       z     vdW  Elec       q    Type
REMARK                         _______ _______ _______ _____ _____    ______ ____
ROOT
ATOM      1  C   LIG    1        1.300   1.766  -0.001  0.00  0.00    -0.060 A 
ATOM      2  C   LIG    1       -0.016   1.333   0.009  0.00  0.00    +0.390 A 
ATOM      3  N   LIG    1        0.002  -0.004   0.002  0.00  0.00    -0.520 NA
ATOM      4  C   LIG    1        1.242  -0.436  -0.013  0.00  0.00    +0.270 A 
ATOM      5  C   LIG    1        2.035  -1.729  -0.032  0.00  0.00    +0.170 C 
ATOM      6  C   LIG    1        3.453  -1.299  -0.470  0.00  0.00    +0.070 C 
ATOM      7  C   LIG    1        3.484   0.178  -0.025  0.00  0.00    +0.290 C 
ATOM      8  N   LIG    1        2.080   0.615  -0.013  0.00  0.00    -0.460 N 
ENDROOT
BRANCH   2   9
ATOM      9  N   LIG    1       -1.148   2.140   0.019  0.00  0.00    -0.830 N 
ATOM     10  H   LIG    1       -1.054   3.106   0.024  0.00  0.00    +0.410 HD
ATOM     11  H   LIG    1       -2.030   1.738   0.022  0.00  0.00    +0.410 HD
ENDBRANCH   2   9
BRANCH   1  13
ATOM     12  N   LIG    1        2.129   4.196   0.002  0.00  0.00    -0.420 NA
ATOM     13  C   LIG    1        1.762   3.121   0.001  0.00  0.00    +0.290 C 
ENDBRANCH   1  13
TORSDOF 2
