REMARK  Name = ZINCtV00000L6jJq.0
REMARK                            x       y       z     vdW  Elec       q    Type
REMARK                         _______ _______ _______ _____ _____    ______ ____
ROOT
ATOM      1  C   LIG    1        2.777   4.779   0.956  0.00  0.00    +0.410 A 
ATOM      2  N   LIG    1        3.947   5.284   0.645  0.00  0.00    -0.470 NA
ATOM      3  C   LIG    1        4.376   4.769  -0.523  0.00  0.00    +0.260 A 
ATOM      4  N   LIG    1        5.460   4.941  -1.262  0.00  0.00    -0.390 NA
ATOM      5  C   LIG    1        5.596   4.262  -2.405  0.00  0.00    +0.100 A 
ATOM      6  C   LIG    1        6.745   4.436  -3.202  0.00  0.00    +0.060 A 
ATOM      7  C   LIG    1        6.875   3.740  -4.363  0.00  0.00    +0.040 A 
ATOM      8  C   LIG    1        5.885   2.852  -4.781  0.00  0.00    +0.050 A 
ATOM      9  C   LIG    1        4.761   2.657  -4.039  0.00  0.00    +0.050 A 
ATOM     10  C   LIG    1        4.589   3.358  -2.831  0.00  0.00    +0.110 A 
ATOM     11  N   LIG    1        3.487   3.174  -2.094  0.00  0.00    -0.420 NA
ATOM     12  C   LIG    1        3.338   3.833  -0.969  0.00  0.00    +0.230 A 
ATOM     13  N   LIG    1        2.361   3.882   0.006  0.00  0.00    -0.440 N 
ENDROOT
BRANCH   1  18
ATOM     14  C   LIG    1       -0.207   6.138   5.684  0.00  0.00    +0.100 C 
ATOM     15  C   LIG    1        0.575   5.782   4.446  0.00  0.00    -0.050 A 
ATOM     16  C   LIG    1        0.294   4.609   3.767  0.00  0.00    +0.010 A 
ATOM     17  C   LIG    1        1.006   4.278   2.633  0.00  0.00    +0.050 A 
ATOM     18  C   LIG    1        2.011   5.128   2.170  0.00  0.00    -0.060 A 
ATOM     19  C   LIG    1        2.292   6.308   2.862  0.00  0.00    +0.090 A 
ATOM     20  C   LIG    1        1.569   6.630   3.991  0.00  0.00    +0.000 A 
ENDBRANCH   1  18
BRANCH  13  21
ATOM     21  C   LIG    1        1.164   3.155   0.018  0.00  0.00    +0.110 A 
ATOM     22  C   LIG    1        1.189   1.777   0.186  0.00  0.00    +0.040 A 
ATOM     23  C   LIG    1        0.006   1.063   0.199  0.00  0.00    +0.040 A 
ATOM     24  C   LIG    1       -1.200   1.718   0.038  0.00  0.00    -0.060 A 
ATOM     25  C   LIG    1       -1.229   3.091  -0.124  0.00  0.00    +0.040 A 
ATOM     26  C   LIG    1       -0.050   3.811  -0.137  0.00  0.00    +0.030 A 
BRANCH  24  27
ATOM     27  C   LIG    1       -2.488   0.935   0.046  0.00  0.00    +0.020 C 
ATOM     28  C   LIG    1       -3.212   1.131  -1.288  0.00  0.00    +0.030 C 
ATOM     29  C   LIG    1       -3.379   1.430   1.187  0.00  0.00    +0.030 C 
ENDBRANCH  24  27
ENDBRANCH  13  21
TORSDOF 3
