REMARK  Name = ZINCtV00000QBkwT.0
REMARK                            x       y       z     vdW  Elec       q    Type
REMARK                         _______ _______ _______ _____ _____    ______ ____
ROOT
ATOM      1  C   LIG    1        2.812  -3.665  11.241  0.00  0.00    +0.030 C 
ENDROOT
BRANCH   1   2
ATOM      2  C   LIG    1        1.959  -3.920   9.997  0.00  0.00    +0.000 C 
BRANCH   2   3
ATOM      3  C   LIG    1        0.971  -2.767   9.812  0.00  0.00    +0.000 C 
BRANCH   3   4
ATOM      4  C   LIG    1        0.117  -3.021   8.567  0.00  0.00    +0.000 C 
BRANCH   4   5
ATOM      5  C   LIG    1       -0.871  -1.868   8.382  0.00  0.00    +0.010 C 
BRANCH   5   6
ATOM      6  C   LIG    1       -1.724  -2.123   7.138  0.00  0.00    +0.050 C 
BRANCH   6   8
ATOM      7  C   LIG    1       -2.759  -0.354   5.810  0.00  0.00    -0.040 C 
ATOM      8  C   LIG    1       -2.698  -0.987   6.955  0.00  0.00    -0.050 C 
BRANCH   7   9
ATOM      9  C   LIG    1       -1.986  -0.869   4.623  0.00  0.00    +0.080 C 
BRANCH   9  11
ATOM     10  C   LIG    1       -2.636  -0.464   2.304  0.00  0.00    -0.040 C 
ATOM     11  C   LIG    1       -2.918  -1.033   3.450  0.00  0.00    -0.040 C 
BRANCH  10  12
ATOM     12  C   LIG    1       -1.306   0.216   2.109  0.00  0.00    +0.080 C 
BRANCH  12  14
ATOM     13  C   LIG    1       -0.243   0.514  -0.069  0.00  0.00    -0.050 C 
ATOM     14  C   LIG    1       -0.649  -0.315   0.861  0.00  0.00    -0.040 C 
BRANCH  13  16
ATOM     15  C   LIG    1        1.092   2.603  -0.120  0.00  0.00    +0.010 C 
ATOM     16  C   LIG    1       -0.283   2.000   0.176  0.00  0.00    +0.040 C 
ENDBRANCH  13  16
ENDBRANCH  12  14
ENDBRANCH  10  12
ENDBRANCH   9  11
ENDBRANCH   7   9
ENDBRANCH   6   8
ENDBRANCH   5   6
ENDBRANCH   4   5
ENDBRANCH   3   4
ENDBRANCH   2   3
ENDBRANCH   1   2
BRANCH   1  17
ATOM     17  C   LIG    1        3.801  -4.818  11.426  0.00  0.00    +0.040 C 
BRANCH  17  18
ATOM     18  C   LIG    1        4.641  -4.568  12.652  0.00  0.00    +0.510 C 
ATOM     19  N   LIG    1        5.587  -5.457  13.014  0.00  0.00    -0.740 N 
ATOM     20  H   LIG    1        5.726  -6.259  12.486  0.00  0.00    +0.400 HD
ATOM     21  O   LIG    1        4.467  -3.565  13.312  0.00  0.00    -0.540 OA
BRANCH  19  22
ATOM     22  C   LIG    1        6.404  -5.213  14.205  0.00  0.00    +0.260 C 
BRANCH  22  23
ATOM     23  C   LIG    1        7.392  -6.367  14.390  0.00  0.00    +0.070 C 
BRANCH  23  24
ATOM     24  C   LIG    1        8.233  -6.116  15.616  0.00  0.00    -0.090 A 
ATOM     25  C   LIG    1        9.425  -5.424  15.505  0.00  0.00    +0.030 A 
ATOM     26  C   LIG    1       10.194  -5.188  16.628  0.00  0.00    -0.010 A 
ATOM     27  C   LIG    1        9.776  -5.656  17.865  0.00  0.00    +0.100 A 
ATOM     28  C   LIG    1        8.582  -6.354  17.973  0.00  0.00    -0.010 A 
ATOM     29  C   LIG    1        7.813  -6.583  16.848  0.00  0.00    +0.030 A 
BRANCH  27  30
ATOM     30  O   LIG    1       10.534  -5.430  18.970  0.00  0.00    -0.500 OA
ATOM     31  H   LIG    1       11.185  -6.123  19.149  0.00  0.00    +0.390 HD
ENDBRANCH  27  30
ENDBRANCH  23  24
ENDBRANCH  22  23
ENDBRANCH  19  22
ENDBRANCH  17  18
ENDBRANCH   1  17
TORSDOF 17
