REMARK  Name = ZINCpk00000KfKAs.2
REMARK                            x       y       z     vdW  Elec       q    Type
REMARK                         _______ _______ _______ _____ _____    ______ ____
ROOT
ATOM      1  C   LIG    1       -1.539   5.247   1.541  0.00  0.00    +0.280 C 
ATOM      2  C   LIG    1       -1.517   3.845   0.929  0.00  0.00    +0.200 C 
ATOM      3  N   LIG    1       -0.822   2.927   1.843  0.00  0.00    -0.500 NA
ATOM      4  C   LIG    1       -1.488   2.894   3.154  0.00  0.00    +0.150 C 
ATOM      5  C   LIG    1       -1.510   4.307   3.744  0.00  0.00    +0.260 C 
ATOM      6  O   LIG    1       -2.162   5.191   2.828  0.00  0.00    -0.390 OA
ENDROOT
BRANCH   1  11
ATOM      7  C   LIG    1       -2.970   7.269  -1.101  0.00  0.00    +0.230 A 
ATOM      8  N   LIG    1       -3.777   7.626  -0.137  0.00  0.00    -0.310 NA
ATOM      9  N   LIG    1       -3.376   6.921   1.010  0.00  0.00    -0.460 N 
ATOM     10  H   LIG    1       -3.780   6.965   1.891  0.00  0.00    +0.450 HD
ATOM     11  C   LIG    1       -2.319   6.175   0.645  0.00  0.00    +0.290 A 
ATOM     12  N   LIG    1       -2.088   6.391  -0.624  0.00  0.00    -0.530 NA
BRANCH   7  13
ATOM     13  C   LIG    1       -3.027   7.770  -2.521  0.00  0.00    +0.150 C 
BRANCH  13  15
ATOM     14  C   LIG    1       -3.995   7.366  -4.789  0.00  0.00    +0.030 C 
ATOM     15  C   LIG    1       -3.937   6.858  -3.347  0.00  0.00    +0.010 C 
ENDBRANCH  13  15
ENDBRANCH   7  13
ENDBRANCH   1  11
BRANCH   3  16
ATOM     16  C   LIG    1       -0.729   1.579   1.267  0.00  0.00    +0.190 C 
ATOM     17  C   LIG    1       -0.232   1.675  -0.177  0.00  0.00    +0.080 C 
BRANCH  16  18
ATOM     18  C   LIG    1       -2.088   0.929   1.288  0.00  0.00    +0.500 C 
ATOM     19  N   LIG    1       -2.192  -0.411   1.389  0.00  0.00    -0.630 N 
ATOM     20  H   LIG    1       -1.393  -0.957   1.448  0.00  0.00    +0.420 HD
ATOM     21  O   LIG    1       -3.088   1.611   1.213  0.00  0.00    -0.510 OA
BRANCH  19  22
ATOM     22  C   LIG    1       -3.451  -1.013   1.408  0.00  0.00    +0.240 A 
ATOM     23  N   LIG    1       -3.708  -2.292   1.496  0.00  0.00    -0.390 NA
ATOM     24  O   LIG    1       -4.898  -2.506   1.492  0.00  0.00    +0.100 OA
ATOM     25  C   LIG    1       -5.606  -1.372   1.389  0.00  0.00    -0.020 A 
ATOM     26  C   LIG    1       -7.107  -1.248   1.346  0.00  0.00    +0.190 C 
ATOM     27  C   LIG    1       -4.710  -0.360   1.331  0.00  0.00    -0.040 A 
ENDBRANCH  19  22
ENDBRANCH  16  18
ENDBRANCH   3  16
TORSDOF 6
