REMARK  Name = ZINCpk00000KfKAs.0
REMARK                            x       y       z     vdW  Elec       q    Type
REMARK                         _______ _______ _______ _____ _____    ______ ____
ROOT
ATOM      1  C   LIG    1        1.632   2.414   1.187  0.00  0.00    +0.290 C 
ATOM      2  C   LIG    1        2.766   3.018   2.020  0.00  0.00    +0.190 C 
ATOM      3  N   LIG    1        3.023   4.392   1.563  0.00  0.00    -0.510 NA
ATOM      4  C   LIG    1        1.813   5.217   1.686  0.00  0.00    +0.160 C 
ATOM      5  C   LIG    1        0.689   4.591   0.857  0.00  0.00    +0.250 C 
ATOM      6  O   LIG    1        0.473   3.246   1.293  0.00  0.00    -0.390 OA
ENDROOT
BRANCH   1  10
ATOM      7  C   LIG    1        0.271  -0.698   2.482  0.00  0.00    +0.180 A 
ATOM      8  N   LIG    1        1.533  -0.983   2.308  0.00  0.00    -0.280 NA
ATOM      9  N   LIG    1        2.150   0.046   1.845  0.00  0.00    -0.280 NA
ATOM     10  C   LIG    1        1.309   1.035   1.702  0.00  0.00    +0.180 A 
ATOM     11  N   LIG    1        0.093   0.591   2.102  0.00  0.00    -0.560 N 
ATOM     12  H   LIG    1       -0.737   1.092   2.111  0.00  0.00    +0.430 HD
BRANCH   7  13
ATOM     13  C   LIG    1       -0.790  -1.628   3.008  0.00  0.00    +0.150 C 
BRANCH  13  15
ATOM     14  C   LIG    1       -1.897  -3.846   2.694  0.00  0.00    +0.020 C 
ATOM     15  C   LIG    1       -0.819  -2.901   2.159  0.00  0.00    +0.020 C 
ENDBRANCH  13  15
ENDBRANCH   7  13
ENDBRANCH   1  10
BRANCH   3  16
ATOM     16  C   LIG    1        4.145   4.989   2.300  0.00  0.00    +0.150 C 
ATOM     17  C   LIG    1        4.326   6.444   1.861  0.00  0.00    +0.080 C 
BRANCH  16  18
ATOM     18  C   LIG    1        5.406   4.217   2.009  0.00  0.00    +0.530 C 
ATOM     19  N   LIG    1        6.403   4.188   2.916  0.00  0.00    -0.630 N 
ATOM     20  H   LIG    1        6.309   4.665   3.755  0.00  0.00    +0.420 HD
ATOM     21  O   LIG    1        5.523   3.621   0.960  0.00  0.00    -0.480 OA
BRANCH  19  22
ATOM     22  C   LIG    1        7.570   3.473   2.647  0.00  0.00    +0.250 A 
ATOM     23  N   LIG    1        8.617   3.358   3.421  0.00  0.00    -0.390 NA
ATOM     24  O   LIG    1        9.470   2.670   2.913  0.00  0.00    +0.100 OA
ATOM     25  C   LIG    1        9.099   2.232   1.701  0.00  0.00    -0.020 A 
ATOM     26  C   LIG    1        9.905   1.359   0.773  0.00  0.00    +0.190 C 
ATOM     27  C   LIG    1        7.861   2.727   1.473  0.00  0.00    -0.040 A 
ENDBRANCH  19  22
ENDBRANCH  16  18
ENDBRANCH   3  16
TORSDOF 6
