REMARK  Name = ZINCpk00000KfKAs.1
REMARK                            x       y       z     vdW  Elec       q    Type
REMARK                         _______ _______ _______ _____ _____    ______ ____
ROOT
ATOM      1  C   LIG    1        4.773   1.050  -0.857  0.00  0.00    +0.290 C 
ATOM      2  C   LIG    1        4.742   1.240   0.661  0.00  0.00    +0.190 C 
ATOM      3  N   LIG    1        6.113   1.179   1.187  0.00  0.00    -0.500 NA
ATOM      4  C   LIG    1        6.955   2.212   0.567  0.00  0.00    +0.160 C 
ATOM      5  C   LIG    1        6.965   2.012  -0.951  0.00  0.00    +0.230 C 
ATOM      6  O   LIG    1        5.621   2.043  -1.440  0.00  0.00    -0.370 OA
ENDROOT
BRANCH   1   9
ATOM      7  C   LIG    1        1.461   0.656  -2.252  0.00  0.00    +0.290 A 
ATOM      8  N   LIG    1        2.609   0.188  -1.833  0.00  0.00    -0.530 NA
ATOM      9  C   LIG    1        3.379   1.190  -1.411  0.00  0.00    +0.230 A 
ATOM     10  N   LIG    1        2.729   2.315  -1.556  0.00  0.00    -0.280 NA
ATOM     11  N   LIG    1        1.476   1.992  -2.103  0.00  0.00    -0.480 N 
ATOM     12  H   LIG    1        0.765   2.611  -2.331  0.00  0.00    +0.440 HD
BRANCH   7  13
ATOM     13  C   LIG    1        0.321  -0.159  -2.805  0.00  0.00    +0.160 C 
BRANCH  13  15
ATOM     14  C   LIG    1       -0.748  -1.017  -4.894  0.00  0.00    +0.030 C 
ATOM     15  C   LIG    1        0.409  -0.189  -4.332  0.00  0.00    +0.010 C 
ENDBRANCH  13  15
ENDBRANCH   7  13
ENDBRANCH   1   9
BRANCH   3  16
ATOM     16  C   LIG    1        6.122   1.301   2.651  0.00  0.00    +0.190 C 
ATOM     17  C   LIG    1        5.076   0.357   3.248  0.00  0.00    +0.080 C 
BRANCH  16  18
ATOM     18  C   LIG    1        5.798   2.720   3.038  0.00  0.00    +0.490 C 
ATOM     19  N   LIG    1        6.295   3.238   4.179  0.00  0.00    -0.630 N 
ATOM     20  H   LIG    1        6.862   2.696   4.751  0.00  0.00    +0.420 HD
ATOM     21  O   LIG    1        5.089   3.397   2.324  0.00  0.00    -0.500 OA
BRANCH  19  22
ATOM     22  C   LIG    1        5.994   4.552   4.538  0.00  0.00    +0.240 A 
ATOM     23  N   LIG    1        6.396   5.184   5.610  0.00  0.00    -0.390 NA
ATOM     24  O   LIG    1        5.972   6.316   5.641  0.00  0.00    +0.100 OA
ATOM     25  C   LIG    1        5.207   6.589   4.574  0.00  0.00    -0.020 A 
ATOM     26  C   LIG    1        4.507   7.891   4.277  0.00  0.00    +0.190 C 
ATOM     27  C   LIG    1        5.186   5.469   3.816  0.00  0.00    -0.040 A 
ENDBRANCH  19  22
ENDBRANCH  16  18
ENDBRANCH   3  16
TORSDOF 6
