REMARK  Name = ZINCrH00000No50e.0
REMARK                            x       y       z     vdW  Elec       q    Type
REMARK                         _______ _______ _______ _____ _____    ______ ____
ROOT
ATOM      1  C   LIG    1       -2.148   1.190   2.204  0.00  0.00    +0.560 C 
ATOM      2  N   LIG    1       -2.292   1.407   0.882  0.00  0.00    -0.610 N 
ATOM      3  C   LIG    1       -3.438   0.976   0.060  0.00  0.00    +0.250 C 
ATOM      4  C   LIG    1       -3.447   1.946  -1.147  0.00  0.00    +0.040 C 
ATOM      5  C   LIG    1       -1.929   2.140  -1.403  0.00  0.00    +0.050 C 
ATOM      6  C   LIG    1       -1.333   2.112   0.020  0.00  0.00    +0.270 C 
ATOM      7  O   LIG    1       -1.156   1.593   2.782  0.00  0.00    -0.530 OA
ENDROOT
BRANCH   6   8
ATOM      8  C   LIG    1       -0.017   1.378   0.010  0.00  0.00    -0.080 A 
ATOM      9  C   LIG    1        0.002  -0.004   0.002  0.00  0.00    +0.030 A 
ATOM     10  C   LIG    1        1.207  -0.681  -0.011  0.00  0.00    +0.020 A 
ATOM     11  C   LIG    1        2.401   0.025  -0.018  0.00  0.00    +0.050 A 
ATOM     12  O   LIG    1        3.579  -0.656  -0.024  0.00  0.00    -0.310 OA
ATOM     13  C   LIG    1        4.746   0.081  -0.406  0.00  0.00    +0.220 C 
ATOM     14  C   LIG    1        4.733   1.423   0.339  0.00  0.00    +0.220 C 
ATOM     15  O   LIG    1        3.541   2.127  -0.027  0.00  0.00    -0.310 OA
ATOM     16  C   LIG    1        2.382   1.415  -0.013  0.00  0.00    +0.050 A 
ATOM     17  C   LIG    1        1.170   2.088   0.002  0.00  0.00    +0.030 A 
ENDBRANCH   6   8
BRANCH   1  19
ATOM     18  C   LIG    1       -3.042   0.253   4.269  0.00  0.00    +0.110 C 
ATOM     19  C   LIG    1       -3.186   0.470   2.946  0.00  0.00    -0.070 C 
BRANCH  18  23
ATOM     20  C   LIG    1       -6.047  -1.832   6.416  0.00  0.00    -0.020 A 
ATOM     21  C   LIG    1       -4.907  -1.370   7.080  0.00  0.00    +0.070 A 
ATOM     22  C   LIG    1       -3.935  -0.696   6.387  0.00  0.00    +0.040 A 
ATOM     23  C   LIG    1       -4.085  -0.471   5.014  0.00  0.00    -0.040 A 
ATOM     24  C   LIG    1       -5.229  -0.929   4.351  0.00  0.00    +0.040 A 
ATOM     25  C   LIG    1       -6.197  -1.608   5.045  0.00  0.00    +0.070 A 
BRANCH  20  27
ATOM     26  N   LIG    1       -7.866  -3.095   7.716  0.00  0.00    -0.410 NA
ATOM     27  C   LIG    1       -7.062  -2.537   7.141  0.00  0.00    +0.250 C 
ENDBRANCH  20  27
ENDBRANCH  18  23
ENDBRANCH   1  19
TORSDOF 4
