REMARK  Name = ZINCyk0000000lYS.0
REMARK                            x       y       z     vdW  Elec       q    Type
REMARK                         _______ _______ _______ _____ _____    ______ ____
ROOT
ATOM      1  N   LIG    1       -0.358   2.239  -3.422  0.00  0.00    -0.740 N 
ATOM      2  H   LIG    1       -1.037   2.923  -3.320  0.00  0.00    +0.400 HD
ATOM      3  C   LIG    1        0.079   1.556  -2.346  0.00  0.00    +0.700 C 
ATOM      4  N   LIG    1       -0.429   1.823  -1.126  0.00  0.00    -0.740 N 
ATOM      5  H   LIG    1       -1.108   2.508  -1.024  0.00  0.00    +0.400 HD
ATOM      6  O   LIG    1        0.931   0.697  -2.475  0.00  0.00    -0.580 OA
ENDROOT
BRANCH   1   7
ATOM      7  C   LIG    1        0.194   1.947  -4.748  0.00  0.00    +0.340 C 
BRANCH   7  12
ATOM      8  C   LIG    1       -0.507   4.898  -7.011  0.00  0.00    -0.150 A 
ATOM      9  C   LIG    1       -1.670   4.476  -7.657  0.00  0.00    +0.040 A 
ATOM     10  C   LIG    1       -2.215   3.245  -7.355  0.00  0.00    +0.020 A 
ATOM     11  C   LIG    1       -1.608   2.427  -6.418  0.00  0.00    +0.080 A 
ATOM     12  C   LIG    1       -0.458   2.842  -5.771  0.00  0.00    -0.110 A 
ATOM     13  C   LIG    1        0.097   4.071  -6.063  0.00  0.00    +0.110 A 
BRANCH   8  16
ATOM     14  N   LIG    1       -0.504   7.013  -8.245  0.00  0.00    -0.730 N 
ATOM     15  H   LIG    1       -1.313   6.722  -8.695  0.00  0.00    +0.410 HD
ATOM     16  C   LIG    1        0.082   6.217  -7.329  0.00  0.00    +0.570 C 
ATOM     17  O   LIG    1        1.095   6.582  -6.765  0.00  0.00    -0.520 OA
BRANCH  14  18
ATOM     18  C   LIG    1        0.079   8.320  -8.560  0.00  0.00    +0.280 C 
BRANCH  18  19
ATOM     19  C   LIG    1       -0.774   9.016  -9.622  0.00  0.00    +0.260 C 
BRANCH  19  21
ATOM     20  C   LIG    1        1.129  10.137 -10.560  0.00  0.00    +0.320 C 
ATOM     21  N   LIG    1       -0.188  10.326  -9.938  0.00  0.00    -0.380 N 
ATOM     22  C   LIG    1       -1.070  11.045 -10.867  0.00  0.00    +0.330 C 
ATOM     23  H   LIG    1       -0.085  10.862  -9.089  0.00  0.00    +0.430 HD
ENDBRANCH  19  21
ENDBRANCH  18  19
ENDBRANCH  14  18
ENDBRANCH   8  16
ENDBRANCH   7  12
ENDBRANCH   1   7
BRANCH   4  24
ATOM     24  C   LIG    1        0.046   1.081   0.044  0.00  0.00    +0.340 C 
BRANCH  24  25
ATOM     25  C   LIG    1       -0.675   1.568   1.274  0.00  0.00    -0.090 A 
ATOM     26  C   LIG    1       -0.145   2.610   2.015  0.00  0.00    +0.030 A 
ATOM     27  C   LIG    1       -0.803   3.064   3.140  0.00  0.00    +0.040 A 
ATOM     28  C   LIG    1       -1.999   2.463   3.536  0.00  0.00    -0.120 A 
ATOM     29  C   LIG    1       -2.524   1.409   2.787  0.00  0.00    +0.070 A 
ATOM     30  C   LIG    1       -1.860   0.968   1.662  0.00  0.00    +0.030 A 
BRANCH  28  31
ATOM     31  C   LIG    1       -2.706   2.941   4.743  0.00  0.00    +0.560 C 
ATOM     32  N   LIG    1       -2.756   4.260   5.016  0.00  0.00    -0.610 N 
ATOM     33  C   LIG    1       -2.221   5.251   4.069  0.00  0.00    +0.240 C 
ATOM     34  C   LIG    1       -3.299   6.322   3.837  0.00  0.00    +0.220 C 
ATOM     35  O   LIG    1       -3.739   6.826   5.101  0.00  0.00    -0.380 OA
ATOM     36  C   LIG    1       -4.361   5.847   5.936  0.00  0.00    +0.220 C 
ATOM     37  C   LIG    1       -3.343   4.751   6.274  0.00  0.00    +0.270 C 
ATOM     38  O   LIG    1       -3.241   2.145   5.489  0.00  0.00    -0.530 OA
ENDBRANCH  28  31
ENDBRANCH  24  25
ENDBRANCH   4  24
TORSDOF 9
