REMARK  Name = ZINCrH000004tkQw.0
REMARK                            x       y       z     vdW  Elec       q    Type
REMARK                         _______ _______ _______ _____ _____    ______ ____
ROOT
ATOM      1  C   LIG    1        1.151   3.592   0.010  0.00  0.00    +0.330 C 
ENDROOT
BRANCH   1   2
ATOM      2  C   LIG    1        1.171   2.085   0.002  0.00  0.00    -0.120 A 
ATOM      3  C   LIG    1        2.377   1.411  -0.014  0.00  0.00    +0.040 A 
ATOM      4  C   LIG    1        2.396   0.028  -0.021  0.00  0.00    +0.010 A 
ATOM      5  C   LIG    1        1.209  -0.679  -0.014  0.00  0.00    +0.040 A 
ATOM      6  C   LIG    1        0.002  -0.004   0.002  0.00  0.00    -0.090 A 
ATOM      7  C   LIG    1       -0.017   1.378   0.010  0.00  0.00    +0.060 A 
BRANCH   6   8
ATOM      8  C   LIG    1       -1.293  -0.775   0.010  0.00  0.00    +0.220 C 
BRANCH   8   9
ATOM      9  O   LIG    1       -1.715  -1.012  -1.334  0.00  0.00    -0.370 OA
BRANCH   9  10
ATOM     10  C   LIG    1       -2.940  -1.740  -1.439  0.00  0.00    +0.180 C 
BRANCH  10  11
ATOM     11  C   LIG    1       -3.293  -1.934  -2.915  0.00  0.00    +0.160 C 
ATOM     12  C   LIG    1       -4.544  -2.825  -3.042  0.00  0.00    +0.010 C 
ATOM     13  C   LIG    1       -5.559  -1.946  -3.812  0.00  0.00    +0.000 C 
ATOM     14  C   LIG    1       -4.635  -0.908  -4.499  0.00  0.00    +0.190 C 
ATOM     15  O   LIG    1       -3.609  -0.666  -3.513  0.00  0.00    -0.360 OA
ENDBRANCH  10  11
ENDBRANCH   9  10
ENDBRANCH   8   9
ENDBRANCH   6   8
ENDBRANCH   1   2
BRANCH   1  16
ATOM     16  N   LIG    1        1.157   4.073   1.394  0.00  0.00    -0.710 N 
ATOM     17  H   LIG    1        1.173   3.439   2.128  0.00  0.00    +0.410 HD
BRANCH  16  26
ATOM     18  C   LIG    1        1.148   5.889   2.984  0.00  0.00    -0.160 A 
ATOM     19  C   LIG    1        1.132   7.268   3.218  0.00  0.00    +0.170 A 
ATOM     20  C   LIG    1        1.111   8.124   2.129  0.00  0.00    -0.210 A 
ATOM     21  C   LIG    1        1.105   7.603   0.848  0.00  0.00    +0.210 A 
ATOM     22  N   LIG    1        1.125   6.293   0.652  0.00  0.00    -0.530 NA
ATOM     23  C   LIG    1        1.080   8.734  -0.160  0.00  0.00    +0.110 C 
ATOM     24  C   LIG    1        1.513   9.988   0.627  0.00  0.00    +0.040 C 
ATOM     25  C   LIG    1        1.091   9.636   2.070  0.00  0.00    +0.090 C 
ATOM     26  C   LIG    1        1.141   5.432   1.655  0.00  0.00    +0.460 A 
BRANCH  18  28
ATOM     27  N   LIG    1        1.188   4.228   4.942  0.00  0.00    -0.420 NA
ATOM     28  C   LIG    1        1.170   4.963   4.076  0.00  0.00    +0.260 C 
ENDBRANCH  18  28
ENDBRANCH  16  26
ENDBRANCH   1  16
TORSDOF 8
