REMARK  Name = ZINCpk00000K7cBi.0
REMARK                            x       y       z     vdW  Elec       q    Type
REMARK                         _______ _______ _______ _____ _____    ______ ____
ROOT
ATOM      1  O   LIG    1       -2.182  -0.194   1.256  0.00  0.00    -0.510 OA
ATOM      2  C   LIG    1       -2.161   1.021   1.257  0.00  0.00    +0.570 A 
ATOM      3  N   LIG    1       -3.148   1.718   1.853  0.00  0.00    -0.510 N 
ATOM      4  H   LIG    1       -3.873   1.236   2.281  0.00  0.00    +0.430 HD
ATOM      5  N   LIG    1       -3.159   3.114   1.874  0.00  0.00    -0.500 N 
ATOM      6  H   LIG    1       -3.891   3.572   2.315  0.00  0.00    +0.430 HD
ATOM      7  C   LIG    1       -2.183   3.843   1.299  0.00  0.00    +0.570 A 
ATOM      8  C   LIG    1       -1.064   3.158   0.624  0.00  0.00    -0.150 A 
ATOM      9  C   LIG    1       -0.031   3.869   0.015  0.00  0.00    +0.210 A 
ATOM     10  C   LIG    1        1.003   3.175  -0.609  0.00  0.00    +0.060 A 
ATOM     11  C   LIG    1        1.008   1.794  -0.626  0.00  0.00    +0.080 A 
ATOM     12  C   LIG    1       -0.013   1.076  -0.025  0.00  0.00    +0.080 A 
ATOM     13  O   LIG    1       -2.224   5.058   1.335  0.00  0.00    -0.520 OA
ATOM     14  C   LIG    1       -1.055   1.748   0.597  0.00  0.00    -0.090 A 
ENDROOT
BRANCH   9  15
ATOM     15  N   LIG    1       -0.032   5.262   0.030  0.00  0.00    -0.660 N 
ATOM     16  H   LIG    1       -0.870   5.747  -0.027  0.00  0.00    +0.430 HD
ATOM     17  C   LIG    1        1.131   5.936   0.124  0.00  0.00    +0.530 C 
ATOM     18  O   LIG    1        2.184   5.334   0.111  0.00  0.00    -0.510 OA
BRANCH  17  19
ATOM     19  C   LIG    1        1.124   7.438   0.246  0.00  0.00    -0.020 C 
ATOM     20  C   LIG    1        0.442   8.053  -0.983  0.00  0.00    +0.260 C 
ATOM     21  O   LIG    1        0.357   9.466  -0.791  0.00  0.00    -0.310 OA
ATOM     22  C   LIG    1        1.483  10.123  -0.406  0.00  0.00    +0.120 A 
ATOM     23  C   LIG    1        1.531  11.504  -0.562  0.00  0.00    -0.010 A 
ATOM     24  C   LIG    1        2.655  12.207  -0.180  0.00  0.00    +0.040 A 
ATOM     25  C   LIG    1        3.738  11.538   0.360  0.00  0.00    -0.020 A 
ATOM     26  C   LIG    1        3.694  10.166   0.515  0.00  0.00    +0.050 A 
ATOM     27  C   LIG    1        2.569   9.455   0.132  0.00  0.00    -0.160 A 
ATOM     28  C   LIG    1        2.562   7.957   0.308  0.00  0.00    +0.120 C 
ENDBRANCH  17  19
ENDBRANCH   9  15
TORSDOF 2
