REMARK  Name = ZINCvU0000000Imi.0
REMARK                            x       y       z     vdW  Elec       q    Type
REMARK                         _______ _______ _______ _____ _____    ______ ____
ROOT
ATOM      1  C   LIG    1        4.332   5.077  -1.898  0.00  0.00    +0.120 A 
ATOM      2  N   LIG    1        4.541   6.135  -1.153  0.00  0.00    -0.390 NA
ATOM      3  C   LIG    1        5.687   6.818  -1.270  0.00  0.00    +0.080 A 
ATOM      4  C   LIG    1        5.936   7.953  -0.481  0.00  0.00    +0.080 A 
ATOM      5  C   LIG    1        7.107   8.633  -0.625  0.00  0.00    +0.040 A 
ATOM      6  C   LIG    1        8.065   8.220  -1.548  0.00  0.00    +0.060 A 
ATOM      7  C   LIG    1        7.858   7.125  -2.330  0.00  0.00    +0.060 A 
ATOM      8  C   LIG    1        6.662   6.399  -2.209  0.00  0.00    +0.110 A 
ATOM      9  N   LIG    1        6.432   5.319  -2.966  0.00  0.00    -0.430 NA
ATOM     10  C   LIG    1        5.298   4.656  -2.831  0.00  0.00    +0.110 A 
ENDROOT
BRANCH   1  11
ATOM     11  C   LIG    1        3.043   4.308  -1.759  0.00  0.00    -0.240 C 
BRANCH  11  12
ATOM     12  S   LIG    1        2.670   4.067  -0.000  0.00  0.00    +2.520 S 
ATOM     13  O   LIG    1        3.609   3.180   0.592  0.00  0.00    -0.900 OA
ATOM     14  O   LIG    1        2.344   5.306   0.615  0.00  0.00    -0.890 OA
BRANCH  12  19
ATOM     15  C   LIG    1       -2.514   0.980   0.019  0.00  0.00    +0.100 C 
ATOM     16  C   LIG    1       -1.219   1.751   0.017  0.00  0.00    -0.020 A 
ATOM     17  C   LIG    1       -0.013   1.076   0.008  0.00  0.00    +0.000 A 
ATOM     18  C   LIG    1        1.175   1.783   0.000  0.00  0.00    +0.130 A 
ATOM     19  C   LIG    1        1.156   3.165   0.008  0.00  0.00    -0.680 A 
ATOM     20  C   LIG    1       -0.050   3.840   0.023  0.00  0.00    +0.130 A 
ATOM     21  C   LIG    1       -1.238   3.133   0.029  0.00  0.00    +0.000 A 
ENDBRANCH  12  19
ENDBRANCH  11  12
BRANCH  11  22
ATOM     22  C   LIG    1        1.951   5.063  -2.394  0.00  0.00    +0.220 C 
ATOM     23  N   LIG    1        1.107   5.646  -2.884  0.00  0.00    -0.350 NA
ENDBRANCH  11  22
ENDBRANCH   1  11
BRANCH  10  24
ATOM     24  S   LIG    1        4.991   3.235  -3.826  0.00  0.00    -0.020 S 
BRANCH  24  25
ATOM     25  C   LIG    1        6.523   3.189  -4.789  0.00  0.00    +0.160 C 
BRANCH  25  26
ATOM     26  C   LIG    1        6.485   2.019  -5.738  0.00  0.00    -0.090 A 
ATOM     27  C   LIG    1        6.978   0.790  -5.340  0.00  0.00    +0.030 A 
ATOM     28  C   LIG    1        6.938  -0.284  -6.208  0.00  0.00    +0.010 A 
ATOM     29  C   LIG    1        6.417  -0.128  -7.479  0.00  0.00    +0.020 A 
ATOM     30  C   LIG    1        5.929   1.103  -7.879  0.00  0.00    +0.010 A 
ATOM     31  C   LIG    1        5.963   2.176  -7.008  0.00  0.00    +0.030 A 
ENDBRANCH  25  26
ENDBRANCH  24  25
ENDBRANCH  10  24
TORSDOF 7
