REMARK  Name = ZINCpk00000y6uhj.0
REMARK                            x       y       z     vdW  Elec       q    Type
REMARK                         _______ _______ _______ _____ _____    ______ ____
ROOT
ATOM      1  C   LIG    1        2.016  -0.717   1.371  0.00  0.00    +0.290 C 
ATOM      2  N   LIG    1        0.573  -0.492   1.260  0.00  0.00    -0.610 N 
ATOM      3  C   LIG    1       -0.231  -0.733   2.315  0.00  0.00    +0.510 C 
ATOM      4  O   LIG    1       -1.425  -0.546   2.223  0.00  0.00    -0.520 OA
ENDROOT
BRANCH   3   5
ATOM      5  C   LIG    1        0.356  -1.234   3.610  0.00  0.00    +0.100 C 
BRANCH   5   6
ATOM      6  C   LIG    1       -0.745  -1.423   4.621  0.00  0.00    -0.050 A 
ATOM      7  C   LIG    1       -1.029  -0.419   5.528  0.00  0.00    +0.020 A 
ATOM      8  C   LIG    1       -2.043  -0.589   6.452  0.00  0.00    +0.020 A 
ATOM      9  C   LIG    1       -2.765  -1.768   6.477  0.00  0.00    +0.010 A 
ATOM     10  C   LIG    1       -2.477  -2.774   5.573  0.00  0.00    +0.030 A 
ATOM     11  C   LIG    1       -1.467  -2.601   4.646  0.00  0.00    -0.080 A 
BRANCH  11  12
ATOM     12  C   LIG    1       -1.153  -3.698   3.661  0.00  0.00    +0.240 C 
BRANCH  12  13
ATOM     13  C   LIG    1       -0.054  -4.526   4.183  0.00  0.00    +0.210 C 
ATOM     14  N   LIG    1        0.795  -5.165   4.586  0.00  0.00    -0.430 NA
ENDBRANCH  12  13
ENDBRANCH  11  12
ENDBRANCH   5   6
ENDBRANCH   3   5
BRANCH   2  15
ATOM     15  C   LIG    1        0.002  -0.004   0.002  0.00  0.00    +0.300 C 
BRANCH  15  16
ATOM     16  C   LIG    1       -0.019   1.526   0.010  0.00  0.00    +0.160 C 
ATOM     17  O   LIG    1        1.326   2.033   0.000  0.00  0.00    -0.370 OA
ATOM     18  C   LIG    1        1.310   3.256  -0.766  0.00  0.00    +0.220 C 
ATOM     19  C   LIG    1        0.357   2.931  -1.945  0.00  0.00    +0.020 C 
ATOM     20  C   LIG    1       -0.715   2.047  -1.262  0.00  0.00    +0.090 C 
BRANCH  20  21
ATOM     21  C   LIG    1       -1.102   0.900  -2.159  0.00  0.00    +0.190 A 
ATOM     22  N   LIG    1       -2.263   0.304  -2.194  0.00  0.00    -0.280 NA
ATOM     23  N   LIG    1       -2.244  -0.629  -3.079  0.00  0.00    -0.290 NA
ATOM     24  C   LIG    1       -1.067  -0.676  -3.642  0.00  0.00    +0.380 A 
ATOM     25  N   LIG    1       -0.309   0.293  -3.074  0.00  0.00    -0.580 N 
ATOM     26  H   LIG    1        0.614   0.508  -3.281  0.00  0.00    +0.430 HD
ENDBRANCH  20  21
ENDBRANCH  15  16
ENDBRANCH   2  15
TORSDOF 7
