REMARK  Name = ZINCpk00000y6uhj.1
REMARK                            x       y       z     vdW  Elec       q    Type
REMARK                         _______ _______ _______ _____ _____    ______ ____
ROOT
ATOM      1  C   LIG    1       -1.295   2.059   0.019  0.00  0.00    +0.300 C 
ATOM      2  N   LIG    1       -0.016   1.344   0.009  0.00  0.00    -0.610 N 
ATOM      3  C   LIG    1        0.002  -0.004   0.002  0.00  0.00    +0.510 C 
ATOM      4  O   LIG    1        1.060  -0.596  -0.011  0.00  0.00    -0.530 OA
ENDROOT
BRANCH   3   5
ATOM      5  C   LIG    1       -1.293  -0.775   0.010  0.00  0.00    +0.100 C 
BRANCH   5   6
ATOM      6  C   LIG    1       -0.997  -2.253  -0.001  0.00  0.00    -0.050 A 
ATOM      7  C   LIG    1       -0.975  -2.945  -1.197  0.00  0.00    +0.020 A 
ATOM      8  C   LIG    1       -0.704  -4.300  -1.207  0.00  0.00    +0.020 A 
ATOM      9  C   LIG    1       -0.455  -4.964  -0.020  0.00  0.00    +0.010 A 
ATOM     10  C   LIG    1       -0.477  -4.272   1.177  0.00  0.00    +0.030 A 
ATOM     11  C   LIG    1       -0.742  -2.916   1.186  0.00  0.00    -0.080 A 
BRANCH  11  12
ATOM     12  C   LIG    1       -0.760  -2.160   2.490  0.00  0.00    +0.240 C 
BRANCH  12  13
ATOM     13  C   LIG    1       -2.141  -2.083   2.993  0.00  0.00    +0.210 C 
ATOM     14  N   LIG    1       -3.207  -2.023   3.382  0.00  0.00    -0.420 NA
ENDBRANCH  12  13
ENDBRANCH  11  12
ENDBRANCH   5   6
ENDBRANCH   3   5
BRANCH   2  15
ATOM     15  C   LIG    1        1.242   2.093   0.001  0.00  0.00    +0.310 C 
BRANCH  15  16
ATOM     16  C   LIG    1        1.667   2.362  -1.444  0.00  0.00    +0.160 C 
ATOM     17  O   LIG    1        0.773   3.314  -2.061  0.00  0.00    -0.360 OA
ATOM     18  C   LIG    1        1.510   3.858  -3.178  0.00  0.00    +0.210 C 
ATOM     19  C   LIG    1        2.948   4.049  -2.647  0.00  0.00    +0.020 C 
ATOM     20  C   LIG    1        3.054   3.041  -1.480  0.00  0.00    +0.080 C 
BRANCH  20  21
ATOM     21  C   LIG    1        3.324   3.759  -0.182  0.00  0.00    +0.240 A 
ATOM     22  N   LIG    1        4.318   3.511   0.630  0.00  0.00    -0.310 NA
ATOM     23  N   LIG    1        4.193   4.403   1.708  0.00  0.00    -0.480 N 
ATOM     24  H   LIG    1        4.779   4.470   2.478  0.00  0.00    +0.440 HD
ATOM     25  C   LIG    1        3.100   5.146   1.460  0.00  0.00    +0.480 A 
ATOM     26  N   LIG    1        2.592   4.752   0.321  0.00  0.00    -0.530 NA
ENDBRANCH  20  21
ENDBRANCH  15  16
ENDBRANCH   2  15
TORSDOF 7
