REMARK  Name = ZINCnE000001QZwl.1
REMARK                            x       y       z     vdW  Elec       q    Type
REMARK                         _______ _______ _______ _____ _____    ______ ____
ROOT
ATOM      1  C   LIG    1        3.461   0.773  -0.043  0.00  0.00    +0.070 A 
ATOM      2  C   LIG    1        4.185   0.173   0.978  0.00  0.00    +0.040 A 
ATOM      3  C   LIG    1        5.565   0.225   0.968  0.00  0.00    -0.020 A 
ATOM      4  C   LIG    1        6.228   0.886  -0.058  0.00  0.00    +0.190 A 
ATOM      5  C   LIG    1        5.502   1.491  -1.076  0.00  0.00    +0.040 A 
ATOM      6  C   LIG    1        4.123   1.434  -1.069  0.00  0.00    +0.040 A 
ENDROOT
BRANCH   1  10
ATOM      7  C   LIG    1       -1.203  -0.905   0.196  0.00  0.00    +0.150 C 
ATOM      8  C   LIG    1        0.004  -0.011   0.068  0.00  0.00    -0.010 A 
ATOM      9  C   LIG    1        1.290  -0.407   0.126  0.00  0.00    -0.020 A 
ATOM     10  N   LIG    1        2.059   0.716  -0.035  0.00  0.00    -0.400 N 
ATOM     11  C   LIG    1        1.207   1.763  -0.186  0.00  0.00    +0.400 A 
ATOM     12  C   LIG    1        1.788  -1.815   0.329  0.00  0.00    +0.140 C 
ATOM     13  N   LIG    1       -0.017   1.316  -0.123  0.00  0.00    -0.490 NA
ENDBRANCH   1  10
BRANCH   4  14
ATOM     14  N   LIG    1        7.626   0.943  -0.065  0.00  0.00    -0.690 N 
ATOM     15  H   LIG    1        8.143   0.201   0.285  0.00  0.00    +0.400 HD
ATOM     16  C   LIG    1        8.254   2.029  -0.559  0.00  0.00    +0.560 C 
ATOM     17  O   LIG    1        7.607   2.998  -0.909  0.00  0.00    -0.500 OA
BRANCH  16  18
ATOM     18  C   LIG    1        9.724   2.042  -0.675  0.00  0.00    -0.310 A 
ATOM     19  C   LIG    1       10.470   0.931  -0.274  0.00  0.00    +0.060 A 
ATOM     20  C   LIG    1       11.844   0.949  -0.385  0.00  0.00    -0.170 A 
ATOM     21  C   LIG    1       12.489   2.065  -0.892  0.00  0.00    +0.050 A 
ATOM     22  C   LIG    1       11.764   3.170  -1.292  0.00  0.00    -0.160 A 
ATOM     23  C   LIG    1       10.380   3.166  -1.193  0.00  0.00    +0.310 A 
ATOM     24  O   LIG    1        9.666   4.249  -1.592  0.00  0.00    -0.670 OA
ENDBRANCH  16  18
ENDBRANCH   4  14
TORSDOF 3
