REMARK  Name = ZINCrH000004j6FL.0
REMARK                            x       y       z     vdW  Elec       q    Type
REMARK                         _______ _______ _______ _____ _____    ______ ____
ROOT
ATOM      1  N   LIG    1       -2.712   2.879   4.658  0.00  0.00    -0.550 N 
ATOM      2  C   LIG    1       -2.321   4.084   5.399  0.00  0.00    +0.320 C 
ATOM      3  C   LIG    1       -3.537   4.428   6.291  0.00  0.00    +0.020 C 
ATOM      4  C   LIG    1       -4.207   3.045   6.455  0.00  0.00    +0.090 C 
ATOM      5  C   LIG    1       -3.763   2.270   5.234  0.00  0.00    +0.510 C 
ATOM      6  O   LIG    1       -4.280   1.249   4.834  0.00  0.00    -0.500 OA
ENDROOT
BRANCH   1  10
ATOM      7  C   LIG    1       -0.800   1.511   1.218  0.00  0.00    -0.100 A 
ATOM      8  C   LIG    1       -0.430   2.719   1.779  0.00  0.00    +0.040 A 
ATOM      9  C   LIG    1       -1.065   3.178   2.916  0.00  0.00    -0.020 A 
ATOM     10  C   LIG    1       -2.070   2.419   3.503  0.00  0.00    +0.160 A 
ATOM     11  C   LIG    1       -2.436   1.203   2.940  0.00  0.00    +0.000 A 
ATOM     12  C   LIG    1       -1.800   0.753   1.800  0.00  0.00    +0.040 A 
BRANCH   7  14
ATOM     13  C   LIG    1       -0.858   1.520  -1.261  0.00  0.00    +0.030 C 
ATOM     14  C   LIG    1       -0.109   1.016  -0.026  0.00  0.00    +0.060 C 
ENDBRANCH   7  14
ENDBRANCH   1  10
BRANCH   3  15
ATOM     15  C   LIG    1       -4.462   5.398   5.603  0.00  0.00    +0.520 C 
ATOM     16  N   LIG    1       -5.640   5.724   6.170  0.00  0.00    -0.670 N 
ATOM     17  H   LIG    1       -5.857   5.400   7.058  0.00  0.00    +0.410 HD
ATOM     18  O   LIG    1       -4.146   5.885   4.538  0.00  0.00    -0.500 OA
BRANCH  16  19
ATOM     19  C   LIG    1       -6.548   6.528   5.480  0.00  0.00    +0.160 A 
ATOM     20  C   LIG    1       -6.655   6.438   4.109  0.00  0.00    +0.020 A 
ATOM     21  C   LIG    1       -7.563   7.232   3.414  0.00  0.00    +0.060 A 
ATOM     22  C   LIG    1       -8.359   8.125   4.064  0.00  0.00    +0.030 A 
ATOM     23  C   LIG    1       -8.277   8.254   5.462  0.00  0.00    +0.140 A 
ATOM     24  N   LIG    1       -9.049   9.125   6.119  0.00  0.00    -0.470 NA
ATOM     25  C   LIG    1       -8.978   9.251   7.422  0.00  0.00    +0.290 A 
ATOM     26  C   LIG    1       -8.099   8.487   8.185  0.00  0.00    -0.030 A 
ATOM     27  C   LIG    1       -7.281   7.577   7.575  0.00  0.00    +0.070 A 
ATOM     28  C   LIG    1       -7.361   7.446   6.178  0.00  0.00    -0.110 A 
ENDBRANCH  16  19
ENDBRANCH   3  15
TORSDOF 4
