REMARK  Name = ZINCrH00000No4SA.0
REMARK                            x       y       z     vdW  Elec       q    Type
REMARK                         _______ _______ _______ _____ _____    ______ ____
ROOT
ATOM      1  C   LIG    1       -6.057   2.112   0.416  0.00  0.00    +0.260 C 
ATOM      2  C   LIG    1       -4.888   1.406   0.234  0.00  0.00    -0.140 C 
ENDROOT
BRANCH   1   7
ATOM      3  C   LIG    1       -9.723   1.289   0.499  0.00  0.00    +0.110 A 
ATOM      4  C   LIG    1       -9.695   0.040   1.097  0.00  0.00    -0.030 A 
ATOM      5  C   LIG    1       -8.490  -0.532   1.473  0.00  0.00    +0.060 A 
ATOM      6  C   LIG    1       -7.305   0.133   1.255  0.00  0.00    +0.020 A 
ATOM      7  C   LIG    1       -7.314   1.399   0.650  0.00  0.00    -0.090 A 
ATOM      8  C   LIG    1       -8.537   1.980   0.275  0.00  0.00    +0.110 A 
BRANCH   3  10
ATOM      9  C   LIG    1      -12.090   1.078   0.399  0.00  0.00    +0.250 C 
ATOM     10  O   LIG    1      -10.911   1.841   0.135  0.00  0.00    -0.300 OA
ENDBRANCH   3  10
BRANCH   8  11
ATOM     11  O   LIG    1       -8.561   3.206  -0.306  0.00  0.00    -0.320 OA
ATOM     12  C   LIG    1       -8.478   3.249  -1.732  0.00  0.00    +0.230 C 
ENDBRANCH   8  11
ENDBRANCH   1   7
BRANCH   2  13
ATOM     13  C   LIG    1       -3.601   2.116   0.177  0.00  0.00    +0.580 C 
ATOM     14  N   LIG    1       -2.458   1.425  -0.002  0.00  0.00    -0.660 N 
ATOM     15  H   LIG    1       -2.489   0.471  -0.170  0.00  0.00    +0.410 HD
ATOM     16  O   LIG    1       -3.569   3.327   0.290  0.00  0.00    -0.500 OA
BRANCH  14  17
ATOM     17  C   LIG    1       -1.230   2.083   0.056  0.00  0.00    +0.160 A 
ATOM     18  C   LIG    1       -1.103   3.261   0.762  0.00  0.00    +0.020 A 
ATOM     19  C   LIG    1        0.120   3.920   0.829  0.00  0.00    +0.060 A 
ATOM     20  C   LIG    1        1.221   3.428   0.197  0.00  0.00    +0.030 A 
ATOM     21  C   LIG    1        1.135   2.234  -0.540  0.00  0.00    +0.140 A 
ATOM     22  N   LIG    1        2.204   1.734  -1.169  0.00  0.00    -0.470 NA
ATOM     23  C   LIG    1        2.131   0.621  -1.858  0.00  0.00    +0.290 A 
ATOM     24  C   LIG    1        0.942  -0.094  -1.970  0.00  0.00    -0.030 A 
ATOM     25  C   LIG    1       -0.189   0.362  -1.351  0.00  0.00    +0.070 A 
ATOM     26  C   LIG    1       -0.106   1.555  -0.614  0.00  0.00    -0.120 A 
ENDBRANCH  14  17
ENDBRANCH   2  13
BRANCH   2  27
ATOM     27  C   LIG    1       -4.925  -0.019   0.100  0.00  0.00    +0.240 C 
ATOM     28  N   LIG    1       -4.955  -1.150  -0.006  0.00  0.00    -0.400 NA
ENDBRANCH   2  27
TORSDOF 6
