REMARK  Name = ZINCvU0000000FKS.0
REMARK                            x       y       z     vdW  Elec       q    Type
REMARK                         _______ _______ _______ _____ _____    ______ ____
ROOT
ATOM      1  C   LIG    1        1.221   2.275  -0.011  0.00  0.00    +0.290 C 
ATOM      2  C   LIG    1        1.660   2.584   1.442  0.00  0.00    +0.020 C 
ATOM      3  C   LIG    1        2.148   1.362   2.099  0.00  0.00    +0.000 C 
ATOM      4  C   LIG    1        1.098   0.265   2.247  0.00  0.00    +0.000 C 
ATOM      5  C   LIG    1        1.044  -0.550   0.979  0.00  0.00    +0.020 C 
ATOM      6  C   LIG    1       -0.014   0.028   0.023  0.00  0.00    +0.260 C 
ATOM      7  N   LIG    1       -0.002   1.504   0.006  0.00  0.00    -0.600 N 
ATOM      8  C   LIG    1       -1.180   2.159   0.000  0.00  0.00    +0.510 C 
ATOM      9  O   LIG    1       -1.201   3.369   0.091  0.00  0.00    -0.510 OA
ENDROOT
BRANCH   1  13
ATOM     10  C   LIG    1        0.564   5.939  -2.109  0.00  0.00    +0.120 A 
ATOM     11  C   LIG    1        1.061   5.960  -0.814  0.00  0.00    -0.020 A 
ATOM     12  C   LIG    1        1.272   4.774  -0.138  0.00  0.00    +0.070 A 
ATOM     13  C   LIG    1        0.989   3.567  -0.751  0.00  0.00    -0.090 A 
ATOM     14  C   LIG    1        0.499   3.544  -2.044  0.00  0.00    +0.040 A 
ATOM     15  C   LIG    1        0.280   4.727  -2.722  0.00  0.00    -0.080 A 
BRANCH  10  17
ATOM     16  C   LIG    1       -0.159   7.007  -4.107  0.00  0.00    +0.230 C 
ATOM     17  O   LIG    1        0.354   7.104  -2.776  0.00  0.00    -0.320 OA
ENDBRANCH  10  17
ENDBRANCH   1  13
BRANCH   8  18
ATOM     18  C   LIG    1       -2.470   1.390  -0.119  0.00  0.00    +0.060 C 
BRANCH  18  19
ATOM     19  C   LIG    1       -3.649   2.365  -0.100  0.00  0.00    +0.220 C 
BRANCH  19  20
ATOM     20  C   LIG    1       -4.939   1.596  -0.219  0.00  0.00    +0.190 A 
ATOM     21  N   LIG    1       -5.654   1.120   0.769  0.00  0.00    -0.470 NA
ATOM     22  C   LIG    1       -6.714   0.511   0.190  0.00  0.00    +0.210 A 
ATOM     23  N   LIG    1       -6.581   0.653  -1.103  0.00  0.00    -0.370 NA
ATOM     24  O   LIG    1       -5.572   1.277  -1.353  0.00  0.00    +0.090 OA
BRANCH  22  25
ATOM     25  C   LIG    1       -7.821  -0.187   0.890  0.00  0.00    -0.020 A 
ATOM     26  C   LIG    1       -7.828  -0.265   2.282  0.00  0.00    +0.090 A 
ATOM     27  C   LIG    1       -8.861  -0.911   2.929  0.00  0.00    +0.030 A 
ATOM     28  C   LIG    1       -9.884  -1.490   2.197  0.00  0.00    -0.020 A 
ATOM     29  C   LIG    1       -9.879  -1.419   0.815  0.00  0.00    +0.030 A 
ATOM     30 CL   LIG    1      -11.178  -2.308   3.017  0.00  0.00    -0.060 Cl
ATOM     31  C   LIG    1       -8.853  -0.771   0.159  0.00  0.00    +0.070 A 
ENDBRANCH  22  25
ENDBRANCH  19  20
ENDBRANCH  18  19
ENDBRANCH   8  18
TORSDOF 6
