REMARK  Name = ZINCqH0000000qkS.0
REMARK                            x       y       z     vdW  Elec       q    Type
REMARK                         _______ _______ _______ _____ _____    ______ ____
ROOT
ATOM      1  C   LIG    1        5.456  -1.851  -0.060  0.00  0.00    +0.130 A 
ATOM      2  C   LIG    1        6.126  -2.076  -1.205  0.00  0.00    -0.110 A 
ATOM      3  S   LIG    1        7.749  -2.627  -0.794  0.00  0.00    +0.210 S 
ATOM      4  C   LIG    1        7.359  -2.499   0.919  0.00  0.00    +0.270 A 
ATOM      5  N   LIG    1        6.140  -2.080   1.053  0.00  0.00    -0.490 NA
ENDROOT
BRANCH   1   9
ATOM      6  C   LIG    1        1.429  -0.487  -0.014  0.00  0.00    -0.100 A 
ATOM      7  C   LIG    1        2.069  -0.707  -1.221  0.00  0.00    +0.030 A 
ATOM      8  C   LIG    1        3.377  -1.145  -1.242  0.00  0.00    +0.030 A 
ATOM      9  C   LIG    1        4.052  -1.375  -0.044  0.00  0.00    -0.010 A 
ATOM     10  C   LIG    1        3.401  -1.157   1.169  0.00  0.00    +0.040 A 
ATOM     11  C   LIG    1        2.094  -0.714   1.178  0.00  0.00    +0.030 A 
BRANCH   6  12
ATOM     12  C   LIG    1        0.002  -0.004   0.002  0.00  0.00    +0.320 C 
BRANCH  12  15
ATOM     13  C   LIG    1       -1.214   3.626   0.028  0.00  0.00    +0.090 C 
ATOM     14  C   LIG    1       -1.194   2.119   0.019  0.00  0.00    +0.510 C 
ATOM     15  N   LIG    1       -0.018   1.461   0.010  0.00  0.00    -0.730 N 
ATOM     16  H   LIG    1        0.816   1.957   0.005  0.00  0.00    +0.400 HD
ATOM     17  O   LIG    1       -2.236   1.498   0.021  0.00  0.00    -0.550 OA
ENDBRANCH  12  15
ENDBRANCH   6  12
ENDBRANCH   1   9
BRANCH   4  18
ATOM     18  N   LIG    1        8.225  -2.795   1.963  0.00  0.00    -0.600 N 
ATOM     19  H   LIG    1        7.929  -2.697   2.881  0.00  0.00    +0.440 HD
ATOM     20  C   LIG    1        9.477  -3.220   1.700  0.00  0.00    +0.580 C 
ATOM     21  O   LIG    1        9.848  -3.343   0.550  0.00  0.00    -0.490 OA
BRANCH  20  22
ATOM     22  C   LIG    1       10.400  -3.536   2.814  0.00  0.00    +0.090 A 
ATOM     23  C   LIG    1       11.691  -3.980   2.536  0.00  0.00    +0.070 A 
ATOM     24  C   LIG    1       12.546  -4.267   3.591  0.00  0.00    -0.000 A 
ATOM     25  C   LIG    1       12.075  -4.110   4.886  0.00  0.00    +0.030 A 
ATOM     26  C   LIG    1       10.777  -3.670   5.088  0.00  0.00    +0.300 A 
ATOM     27 CL   LIG    1       14.166  -4.816   3.296  0.00  0.00    -0.030 Cl
ATOM     28  N   LIG    1        9.989  -3.400   4.069  0.00  0.00    -0.450 NA
ENDBRANCH  20  22
ENDBRANCH   4  18
TORSDOF 5
