REMARK  Name = ZINCrg000000mRny.0
REMARK                            x       y       z     vdW  Elec       q    Type
REMARK                         _______ _______ _______ _____ _____    ______ ____
ROOT
ATOM      1  S   LIG    1        6.522   1.410  -2.373  0.00  0.00    +2.690 S 
ATOM      2  O   LIG    1        5.728   1.884  -3.452  0.00  0.00    -0.940 OA
ATOM      3  O   LIG    1        7.725   0.676  -2.558  0.00  0.00    -0.950 OA
ENDROOT
BRANCH   1  12
ATOM      4  C   LIG    1        4.084   7.995  -1.090  0.00  0.00    +0.110 C 
ATOM      5  C   LIG    1        4.700   6.632  -1.274  0.00  0.00    +0.520 C 
ATOM      6  N   LIG    1        5.825   6.305  -0.607  0.00  0.00    -0.560 N 
ATOM      7  C   LIG    1        6.537   7.187   0.322  0.00  0.00    +0.280 C 
ATOM      8  C   LIG    1        7.739   6.366   0.816  0.00  0.00    +0.110 C 
ATOM      9  C   LIG    1        7.610   5.037   0.105  0.00  0.00    -0.080 A 
ATOM     10  C   LIG    1        8.399   3.904   0.154  0.00  0.00    +0.040 A 
ATOM     11  C   LIG    1        8.068   2.795  -0.602  0.00  0.00    +0.110 A 
ATOM     12  C   LIG    1        6.945   2.822  -1.408  0.00  0.00    -0.650 A 
ATOM     13  C   LIG    1        6.158   3.953  -1.464  0.00  0.00    +0.130 A 
ATOM     14  C   LIG    1        6.483   5.075  -0.700  0.00  0.00    +0.120 A 
ATOM     15  O   LIG    1        4.184   5.830  -2.023  0.00  0.00    -0.520 OA
ENDBRANCH   1  12
BRANCH   1  16
ATOM     16  N   LIG    1        5.532   0.461  -1.446  0.00  0.00    -1.000 NA
ATOM     17  C   LIG    1        6.087  -0.584  -0.570  0.00  0.00    +0.270 C 
ATOM     18  C   LIG    1        5.490  -0.409   0.831  0.00  0.00    +0.220 C 
ATOM     19  O   LIG    1        4.064  -0.356   0.731  0.00  0.00    -0.370 OA
ATOM     20  C   LIG    1        3.572   0.752  -0.028  0.00  0.00    +0.240 C 
ATOM     21  C   LIG    1        4.072   0.636  -1.472  0.00  0.00    +0.290 C 
BRANCH  20  22
ATOM     22  C   LIG    1        2.065   0.741  -0.014  0.00  0.00    -0.240 A 
ATOM     23  C   LIG    1        1.261   1.829  -0.000  0.00  0.00    +0.240 A 
ATOM     24  N   LIG    1       -0.017   1.397   0.010  0.00  0.00    -0.370 N 
ATOM     25  N   LIG    1        0.002  -0.004   0.002  0.00  0.00    -0.300 NA
ATOM     26  C   LIG    1       -1.213   2.242   0.020  0.00  0.00    +0.360 C 
ATOM     27  C   LIG    1        1.250  -0.396  -0.012  0.00  0.00    +0.270 A 
ENDBRANCH  20  22
ENDBRANCH   1  16
TORSDOF 3
