REMARK  Name = ZINCrD00000eeRPi.0
REMARK                            x       y       z     vdW  Elec       q    Type
REMARK                         _______ _______ _______ _____ _____    ______ ____
ROOT
ATOM      1  C   LIG    1       -0.728   1.026   2.414  0.00  0.00    +0.580 C 
ATOM      2  N   LIG    1       -1.140   1.359   1.175  0.00  0.00    -0.600 N 
ATOM      3  C   LIG    1       -0.877   0.589  -0.054  0.00  0.00    +0.280 C 
ATOM      4  C   LIG    1       -2.015   0.987  -1.026  0.00  0.00    +0.050 C 
ATOM      5  C   LIG    1       -2.195   2.493  -0.699  0.00  0.00    +0.030 C 
ATOM      6  C   LIG    1       -0.896   3.293  -0.897  0.00  0.00    +0.050 C 
ATOM      7  C   LIG    1       -1.084   3.804   0.558  0.00  0.00    +0.070 C 
ATOM      8  C   LIG    1       -1.928   2.550   0.825  0.00  0.00    +0.230 C 
ATOM      9  O   LIG    1       -0.943   1.773   3.348  0.00  0.00    -0.520 OA
ENDROOT
BRANCH   1  13
ATOM     10  C   LIG    1        1.327  -2.640   3.048  0.00  0.00    +0.130 A 
ATOM     11  C   LIG    1        1.394  -2.012   1.813  0.00  0.00    -0.040 A 
ATOM     12  C   LIG    1        0.729  -0.823   1.603  0.00  0.00    +0.050 A 
ATOM     13  C   LIG    1       -0.015  -0.247   2.636  0.00  0.00    -0.130 A 
ATOM     14  C   LIG    1       -0.078  -0.877   3.883  0.00  0.00    +0.040 A 
ATOM     15  C   LIG    1        0.587  -2.071   4.084  0.00  0.00    +0.090 A 
BRANCH  10  17
ATOM     16  C   LIG    1        2.723  -4.338   2.146  0.00  0.00    +0.240 C 
ATOM     17  O   LIG    1        1.984  -3.811   3.249  0.00  0.00    -0.300 OA
ENDBRANCH  10  17
BRANCH  15  18
ATOM     18  O   LIG    1        0.523  -2.689   5.294  0.00  0.00    -0.300 OA
ATOM     19  C   LIG    1       -0.253  -2.049   6.309  0.00  0.00    +0.250 C 
ENDBRANCH  15  18
ENDBRANCH   1  13
BRANCH   8  20
ATOM     20  C   LIG    1       -3.146   2.775   1.684  0.00  0.00    +0.180 A 
ATOM     21  N   LIG    1       -3.942   3.804   1.637  0.00  0.00    -0.280 NA
ATOM     22  N   LIG    1       -4.876   3.662   2.512  0.00  0.00    -0.280 NA
ATOM     23  C   LIG    1       -4.706   2.537   3.146  0.00  0.00    +0.170 A 
ATOM     24  O   LIG    1       -3.612   1.947   2.634  0.00  0.00    -0.210 OA
BRANCH  23  25
ATOM     25  C   LIG    1       -5.579   1.993   4.247  0.00  0.00    +0.100 C 
ATOM     26  C   LIG    1       -7.005   1.806   3.723  0.00  0.00    +0.060 C 
ATOM     27  C   LIG    1       -5.592   2.975   5.420  0.00  0.00    +0.060 C 
ENDBRANCH  23  25
ENDBRANCH   8  20
TORSDOF 5
