REMARK  Name = ZINCqH0000001cEP.0
REMARK                            x       y       z     vdW  Elec       q    Type
REMARK                         _______ _______ _______ _____ _____    ______ ____
ROOT
ATOM      1  C   LIG    1       -2.332   0.693   0.017  0.00  0.00    +0.160 C 
ENDROOT
BRANCH   1   2
ATOM      2  C   LIG    1       -2.725   0.379  -1.404  0.00  0.00    -0.080 A 
ATOM      3  C   LIG    1       -2.740   1.383  -2.354  0.00  0.00    +0.060 A 
ATOM      4  C   LIG    1       -3.096   1.094  -3.659  0.00  0.00    +0.000 A 
ATOM      5  C   LIG    1       -3.446  -0.196  -4.010  0.00  0.00    +0.010 A 
ATOM      6  C   LIG    1       -3.436  -1.199  -3.058  0.00  0.00    +0.000 A 
ATOM      7  C   LIG    1       -3.076  -0.911  -1.755  0.00  0.00    +0.000 A 
ENDBRANCH   1   2
BRANCH   1   8
ATOM      8  N   LIG    1       -1.203   1.633   0.017  0.00  0.00    -0.420 NA
ATOM      9  H   LIG    1       -1.258   2.264   0.802  0.00  0.00    +0.360 HD
BRANCH   8  11
ATOM     10  C   LIG    1        1.147   1.655   0.000  0.00  0.00    +0.510 C 
ATOM     11  N   LIG    1       -0.011   0.966   0.007  0.00  0.00    -0.580 N 
ATOM     12  H   LIG    1        0.002  -0.004   0.002  0.00  0.00    +0.400 HD
ATOM     13  O   LIG    1        1.130   2.868   0.007  0.00  0.00    -0.520 OA
BRANCH  10  14
ATOM     14  C   LIG    1        2.462   0.920  -0.017  0.00  0.00    +0.060 C 
BRANCH  14  16
ATOM     15  C   LIG    1        4.944   1.186   0.087  0.00  0.00    +0.020 C 
ATOM     16  C   LIG    1        3.611   1.930  -0.022  0.00  0.00    +0.000 C 
ATOM     17  C   LIG    1        3.579   2.731  -1.325  0.00  0.00    +0.020 C 
ENDBRANCH  14  16
ENDBRANCH  10  14
ENDBRANCH   8  11
ENDBRANCH   1   8
BRANCH   1  18
ATOM     18  C   LIG    1       -3.502   1.313   0.736  0.00  0.00    +0.430 C 
ATOM     19  O   LIG    1       -3.556   2.517   0.882  0.00  0.00    -0.440 OA
BRANCH  18  20
ATOM     20  C   LIG    1       -4.540   0.491   1.242  0.00  0.00    -0.270 A 
ATOM     21  C   LIG    1       -4.624  -0.882   1.158  0.00  0.00    +0.320 A 
ATOM     22  N   LIG    1       -5.754  -1.304   1.755  0.00  0.00    -0.560 N 
ATOM     23  H   LIG    1       -6.030  -2.232   1.822  0.00  0.00    +0.420 HD
ATOM     24  C   LIG    1       -6.468  -0.236   2.260  0.00  0.00    +0.070 A 
ATOM     25  C   LIG    1       -7.672  -0.139   2.949  0.00  0.00    +0.000 A 
ATOM     26  C   LIG    1       -8.146   1.096   3.336  0.00  0.00    +0.030 A 
ATOM     27  C   LIG    1       -7.433   2.250   3.044  0.00  0.00    +0.000 A 
ATOM     28  C   LIG    1       -6.238   2.174   2.361  0.00  0.00    +0.060 A 
ATOM     29  C   LIG    1       -5.745   0.933   1.971  0.00  0.00    -0.060 A 
ENDBRANCH  18  20
ENDBRANCH   1  18
TORSDOF 7
