REMARK  Name = ZINCrH000004vAme.0
REMARK                            x       y       z     vdW  Elec       q    Type
REMARK                         _______ _______ _______ _____ _____    ______ ____
ROOT
ATOM      1  C   LIG    1       -4.264   0.293   1.823  0.00  0.00    -0.140 A 
ATOM      2  C   LIG    1       -4.970   0.969   0.823  0.00  0.00    +0.110 A 
ATOM      3  C   LIG    1       -6.334   0.819   0.724  0.00  0.00    -0.010 A 
ATOM      4  C   LIG    1       -7.013   0.003   1.624  0.00  0.00    +0.190 A 
ATOM      5  C   LIG    1       -6.314  -0.667   2.625  0.00  0.00    -0.030 A 
ATOM      6  C   LIG    1       -4.950  -0.525   2.726  0.00  0.00    +0.170 A 
ENDROOT
BRANCH   1   8
ATOM      7  O   LIG    1       -2.265   0.424   3.020  0.00  0.00    -0.520 OA
ATOM      8  C   LIG    1       -2.801   0.448   1.929  0.00  0.00    +0.570 C 
ATOM      9  N   LIG    1       -2.059   0.616   0.817  0.00  0.00    -0.610 N 
ATOM     10  C   LIG    1       -0.617   0.898   0.893  0.00  0.00    +0.290 C 
ATOM     11  C   LIG    1        0.128  -0.279   0.266  0.00  0.00    +0.070 C 
ATOM     12  C   LIG    1       -0.484  -0.655  -1.058  0.00  0.00    -0.070 A 
ATOM     13  C   LIG    1        0.293  -1.397  -1.939  0.00  0.00    +0.000 A 
ATOM     14  C   LIG    1       -0.209  -1.782  -3.165  0.00  0.00    +0.020 A 
ATOM     15  C   LIG    1       -1.496  -1.428  -3.522  0.00  0.00    +0.010 A 
ATOM     16  C   LIG    1       -2.269  -0.688  -2.650  0.00  0.00    +0.010 A 
ATOM     17  C   LIG    1       -1.764  -0.296  -1.419  0.00  0.00    -0.100 A 
ATOM     18  C   LIG    1       -2.656   0.523  -0.520  0.00  0.00    +0.330 C 
ENDBRANCH   1   8
BRANCH   4  19
ATOM     19  N   LIG    1       -8.392  -0.143   1.524  0.00  0.00    -0.500 N 
ATOM     20  C   LIG    1       -8.763  -0.794   0.262  0.00  0.00    +0.180 C 
ATOM     21  C   LIG    1      -10.268  -1.069   0.251  0.00  0.00    +0.030 C 
ATOM     22  C   LIG    1      -11.025   0.253   0.405  0.00  0.00    +0.010 C 
ATOM     23  C   LIG    1      -10.585   0.935   1.704  0.00  0.00    +0.030 C 
ATOM     24  C   LIG    1       -9.070   1.152   1.673  0.00  0.00    +0.180 C 
ENDBRANCH   4  19
BRANCH   5  25
ATOM     25  N   LIG    1       -7.040  -1.534   3.581  0.00  0.00    +0.030 N 
ATOM     26  O   LIG    1       -8.249  -1.660   3.491  0.00  0.00    -0.090 OA
ATOM     27  O   LIG    1       -6.430  -2.120   4.456  0.00  0.00    -0.190 OA
ENDBRANCH   5  25
TORSDOF 3
