REMARK  Name = ZINCrD000000Czmg.0
REMARK                            x       y       z     vdW  Elec       q    Type
REMARK                         _______ _______ _______ _____ _____    ______ ____
ROOT
ATOM      1  C   LIG    1       -3.379   5.615  -4.503  0.00  0.00    -0.140 A 
ATOM      2  C   LIG    1       -3.182   6.326  -3.318  0.00  0.00    +0.170 A 
ATOM      3  C   LIG    1       -1.903   6.637  -2.908  0.00  0.00    -0.680 A 
ATOM      4  C   LIG    1       -0.814   6.251  -3.671  0.00  0.00    +0.170 A 
ATOM      5  C   LIG    1       -1.000   5.541  -4.843  0.00  0.00    +0.020 A 
ATOM      6  C   LIG    1       -2.276   5.223  -5.266  0.00  0.00    +0.060 A 
ATOM      7 CL   LIG    1       -2.508   4.339  -6.742  0.00  0.00    -0.020 Cl
ENDROOT
BRANCH   1   9
ATOM      8  O   LIG    1       -4.999   4.155  -5.341  0.00  0.00    -0.510 OA
ATOM      9  C   LIG    1       -4.747   5.278  -4.949  0.00  0.00    +0.570 C 
ATOM     10  N   LIG    1       -5.715   6.216  -4.920  0.00  0.00    -0.610 N 
ATOM     11  C   LIG    1       -5.527   7.631  -4.569  0.00  0.00    +0.240 C 
ATOM     12  C   LIG    1       -6.910   8.310  -4.650  0.00  0.00    +0.040 C 
ATOM     13  C   LIG    1       -7.890   7.120  -4.483  0.00  0.00    +0.040 C 
ATOM     14  C   LIG    1       -7.138   5.990  -5.230  0.00  0.00    +0.260 C 
ENDBRANCH   1   9
BRANCH   3  15
ATOM     15  S   LIG    1       -1.653   7.534  -1.412  0.00  0.00    +2.700 S 
ATOM     16  O   LIG    1       -0.386   8.165  -1.530  0.00  0.00    -0.940 OA
ATOM     17  O   LIG    1       -2.857   8.248  -1.167  0.00  0.00    -0.940 OA
BRANCH  15  18
ATOM     18  N   LIG    1       -1.511   6.423  -0.192  0.00  0.00    -1.000 NA
ATOM     19  C   LIG    1       -2.689   5.951   0.554  0.00  0.00    +0.310 C 
ATOM     20  C   LIG    1       -2.853   4.457   0.276  0.00  0.00    +0.070 C 
ATOM     21  C   LIG    1       -1.540   3.736   0.431  0.00  0.00    -0.070 A 
ATOM     22  C   LIG    1       -1.580   2.360   0.622  0.00  0.00    +0.000 A 
ATOM     23  C   LIG    1       -0.413   1.637   0.762  0.00  0.00    +0.000 A 
ATOM     24  C   LIG    1        0.807   2.283   0.703  0.00  0.00    +0.000 A 
ATOM     25  C   LIG    1        0.849   3.650   0.514  0.00  0.00    +0.020 A 
ATOM     26  C   LIG    1       -0.324   4.379   0.379  0.00  0.00    -0.100 A 
ATOM     27  C   LIG    1       -0.207   5.870   0.188  0.00  0.00    +0.350 C 
ENDBRANCH  15  18
ENDBRANCH   3  15
TORSDOF 3
