REMARK  Name = ZINCpe00000VVGqU.0
REMARK                            x       y       z     vdW  Elec       q    Type
REMARK                         _______ _______ _______ _____ _____    ______ ____
ROOT
ATOM      1  N   LIG    1       -4.435  -3.489  -0.723  0.00  0.00    -0.540 N 
ATOM      2  C   LIG    1       -3.175  -3.020  -0.791  0.00  0.00    +0.720 A 
ATOM      3  N   LIG    1       -2.491  -2.706   0.324  0.00  0.00    -0.540 N 
ATOM      4  C   LIG    1       -3.053  -2.860   1.539  0.00  0.00    +0.570 A 
ATOM      5  C   LIG    1       -4.367  -3.343   1.639  0.00  0.00    -0.250 A 
ATOM      6  O   LIG    1       -2.425  -2.578   2.545  0.00  0.00    -0.530 OA
ATOM      7  O   LIG    1       -2.648  -2.877  -1.878  0.00  0.00    -0.540 OA
ATOM      8  C   LIG    1       -5.048  -3.658   0.495  0.00  0.00    +0.500 A 
ENDROOT
BRANCH   8   9
ATOM      9  N   LIG    1       -6.331  -4.136   0.564  0.00  0.00    -0.830 N 
ATOM     10  H   LIG    1       -6.760  -4.253   1.426  0.00  0.00    +0.420 HD
ATOM     11  H   LIG    1       -6.810  -4.357  -0.250  0.00  0.00    +0.410 HD
ENDBRANCH   8   9
BRANCH   1  12
ATOM     12  C   LIG    1       -5.156  -3.823  -1.953  0.00  0.00    +0.340 C 
BRANCH  12  13
ATOM     13  C   LIG    1       -4.900  -5.288  -2.313  0.00  0.00    +0.180 C 
BRANCH  13  15
ATOM     14  C   LIG    1       -5.278  -7.527  -1.546  0.00  0.00    +0.210 C 
ATOM     15  O   LIG    1       -5.462  -6.131  -1.305  0.00  0.00    -0.390 OA
ENDBRANCH  13  15
ENDBRANCH  12  13
ENDBRANCH   1  12
BRANCH   3  16
ATOM     16  C   LIG    1       -1.121  -2.197   0.216  0.00  0.00    +0.370 C 
BRANCH  16  17
ATOM     17  C   LIG    1       -1.150  -0.694   0.111  0.00  0.00    +0.510 C 
ATOM     18  N   LIG    1        0.002  -0.004   0.002  0.00  0.00    -0.660 N 
ATOM     19  H   LIG    1        0.844  -0.477  -0.089  0.00  0.00    +0.410 HD
ATOM     20  O   LIG    1       -2.211  -0.106   0.124  0.00  0.00    -0.500 OA
BRANCH  18  21
ATOM     21  C   LIG    1       -0.016   1.395   0.021  0.00  0.00    +0.160 A 
ATOM     22  C   LIG    1       -1.058   2.070   0.642  0.00  0.00    +0.030 A 
ATOM     23  C   LIG    1       -1.070   3.451   0.664  0.00  0.00    +0.040 A 
ATOM     24  C   LIG    1       -0.052   4.163   0.058  0.00  0.00    -0.090 A 
ATOM     25  C   LIG    1        0.986   3.495  -0.568  0.00  0.00    +0.050 A 
ATOM     26  C   LIG    1       -0.071   5.669   0.079  0.00  0.00    +0.100 C 
ATOM     27  C   LIG    1        1.007   2.113  -0.588  0.00  0.00    -0.060 A 
ATOM     28 CL   LIG    1        2.309   1.276  -1.372  0.00  0.00    -0.060 Cl
ENDBRANCH  18  21
ENDBRANCH  16  17
ENDBRANCH   3  16
TORSDOF 7
