REMARK  Name = ZINCtV000002GZs4.0
REMARK                            x       y       z     vdW  Elec       q    Type
REMARK                         _______ _______ _______ _____ _____    ______ ____
ROOT
ATOM      1  N   LIG    1       -2.709  -4.014   0.186  0.00  0.00    -0.610 N 
ATOM      2  H   LIG    1       -1.964  -4.631   0.256  0.00  0.00    +0.430 HD
ATOM      3  C   LIG    1       -3.973  -4.482   0.174  0.00  0.00    +0.610 C 
ATOM      4  O   LIG    1       -4.907  -3.708   0.086  0.00  0.00    -0.480 OA
ENDROOT
BRANCH   3   5
ATOM      5  C   LIG    1       -4.223  -5.930   0.266  0.00  0.00    -0.260 A 
ATOM      6  C   LIG    1       -4.400  -6.698   1.390  0.00  0.00    +0.040 A 
ATOM      7  O   LIG    1       -4.598  -7.949   0.968  0.00  0.00    +0.110 OA
ATOM      8  N   LIG    1       -4.560  -8.062  -0.233  0.00  0.00    -0.320 NA
ATOM      9  C   LIG    1       -4.379  -6.222   2.819  0.00  0.00    +0.200 C 
ATOM     10  C   LIG    1       -4.338  -6.917  -0.828  0.00  0.00    +0.100 A 
BRANCH  10  11
ATOM     11  C   LIG    1       -4.227  -6.666  -2.285  0.00  0.00    -0.020 A 
ATOM     12  C   LIG    1       -3.992  -5.375  -2.756  0.00  0.00    +0.040 A 
ATOM     13  C   LIG    1       -3.884  -5.148  -4.113  0.00  0.00    +0.030 A 
ATOM     14  C   LIG    1       -4.019  -6.195  -5.006  0.00  0.00    +0.050 A 
ATOM     15  C   LIG    1       -4.258  -7.477  -4.546  0.00  0.00    +0.030 A 
ATOM     16  C   LIG    1       -4.362  -7.719  -3.190  0.00  0.00    -0.010 A 
ATOM     17 CL   LIG    1       -4.662  -9.328  -2.613  0.00  0.00    -0.040 Cl
ENDBRANCH  10  11
ENDBRANCH   3   5
BRANCH   1  21
ATOM     18  C   LIG    1       -1.270  -0.766   0.010  0.00  0.00    +0.130 A 
ATOM     19  C   LIG    1       -2.470  -0.163  -0.070  0.00  0.00    -0.110 A 
ATOM     20  S   LIG    1       -3.716  -1.408  -0.033  0.00  0.00    +0.210 S 
ATOM     21  C   LIG    1       -2.474  -2.648   0.099  0.00  0.00    +0.270 A 
ATOM     22  N   LIG    1       -1.304  -2.088   0.101  0.00  0.00    -0.490 NA
BRANCH  18  27
ATOM     23  C   LIG    1        3.671   2.192  -0.023  0.00  0.00    +0.090 C 
ATOM     24  C   LIG    1        2.377   1.418  -0.013  0.00  0.00    -0.080 A 
ATOM     25  C   LIG    1        1.171   2.093   0.002  0.00  0.00    +0.010 A 
ATOM     26  C   LIG    1       -0.017   1.389   0.010  0.00  0.00    +0.020 A 
ATOM     27  C   LIG    1        0.002  -0.004   0.002  0.00  0.00    -0.030 A 
ATOM     28  C   LIG    1        1.222  -0.679  -0.013  0.00  0.00    +0.050 A 
ATOM     29  C   LIG    1        2.402   0.035  -0.021  0.00  0.00    -0.090 A 
ATOM     30  C   LIG    1        3.721  -0.694  -0.037  0.00  0.00    +0.090 C 
ENDBRANCH  18  27
ENDBRANCH   1  21
TORSDOF 4
