REMARK  Name = ZINCrH000004neA1.0
REMARK                            x       y       z     vdW  Elec       q    Type
REMARK                         _______ _______ _______ _____ _____    ______ ____
ROOT
ATOM      1  C   LIG    1       -5.233   3.757   4.498  0.00  0.00    +0.510 C 
ATOM      2  O   LIG    1       -5.761   4.845   4.380  0.00  0.00    -0.480 OA
ENDROOT
BRANCH   1   3
ATOM      3  C   LIG    1       -4.521   3.153   3.354  0.00  0.00    -0.110 A 
ATOM      4  C   LIG    1       -4.453   3.829   2.134  0.00  0.00    +0.090 A 
ATOM      5  C   LIG    1       -3.787   3.259   1.069  0.00  0.00    +0.050 A 
ATOM      6  C   LIG    1       -3.187   2.020   1.208  0.00  0.00    -0.080 A 
ATOM      7  C   LIG    1       -3.256   1.341   2.412  0.00  0.00    +0.020 A 
ATOM      8  C   LIG    1       -3.914   1.903   3.487  0.00  0.00    +0.080 A 
BRANCH   6   9
ATOM      9  C   LIG    1       -2.461   1.403   0.040  0.00  0.00    +0.390 C 
BRANCH   9  10
ATOM     10  N   LIG    1       -1.055   1.815   0.067  0.00  0.00    -0.380 N 
ATOM     11  C   LIG    1        0.021   1.009   0.064  0.00  0.00    +0.480 A 
ATOM     12  N   LIG    1        1.091   1.761   0.087  0.00  0.00    -0.540 NA
ATOM     13  C   LIG    1        0.740   3.046   0.111  0.00  0.00    +0.420 A 
ATOM     14  N   LIG    1       -0.564   3.130   0.103  0.00  0.00    -0.310 NA
ENDBRANCH   9  10
ENDBRANCH   6   9
ENDBRANCH   1   3
BRANCH   1  15
ATOM     15  O   LIG    1       -5.297   3.102   5.674  0.00  0.00    -0.290 OA
BRANCH  15  20
ATOM     16  C   LIG    1       -5.529   6.212  10.812  0.00  0.00    +0.130 A 
ATOM     17  C   LIG    1       -4.914   5.561   9.781  0.00  0.00    -0.010 A 
ATOM     18  C   LIG    1       -5.690   4.984   8.762  0.00  0.00    -0.000 A 
ATOM     19  C   LIG    1       -5.092   4.302   7.689  0.00  0.00    +0.030 A 
ATOM     20  C   LIG    1       -5.878   3.756   6.714  0.00  0.00    +0.100 A 
ATOM     21  C   LIG    1       -7.271   3.857   6.775  0.00  0.00    +0.000 A 
ATOM     22  C   LIG    1       -7.880   4.506   7.804  0.00  0.00    +0.070 A 
ATOM     23  C   LIG    1       -7.103   5.084   8.822  0.00  0.00    -0.080 A 
ATOM     24  C   LIG    1       -7.702   5.761   9.899  0.00  0.00    +0.080 A 
ATOM     25  C   LIG    1       -6.923   6.310  10.868  0.00  0.00    -0.060 A 
BRANCH  16  27
ATOM     26  C   LIG    1       -5.477   7.437  12.848  0.00  0.00    +0.240 C 
ATOM     27  O   LIG    1       -4.777   6.771  11.796  0.00  0.00    -0.320 OA
ENDBRANCH  16  27
ENDBRANCH  15  20
ENDBRANCH   1  15
TORSDOF 6
