REMARK  Name = ZINCrH000004rbJj.0
REMARK                            x       y       z     vdW  Elec       q    Type
REMARK                         _______ _______ _______ _____ _____    ______ ____
ROOT
ATOM      1  C   LIG    1        0.187   0.973   0.026  0.00  0.00    +0.110 C 
ENDROOT
BRANCH   1   3
ATOM      2  N   LIG    1       -0.226   1.273   2.446  0.00  0.00    -0.610 N 
ATOM      3  C   LIG    1       -0.615   1.518   1.179  0.00  0.00    +0.540 C 
ATOM      4  O   LIG    1       -1.611   2.178   0.967  0.00  0.00    -0.520 OA
ATOM      5  C   LIG    1        0.976   0.476   2.702  0.00  0.00    +0.300 C 
BRANCH   2   6
ATOM      6  C   LIG    1       -1.006   1.804   3.567  0.00  0.00    +0.350 C 
BRANCH   6  11
ATOM      7  C   LIG    1       -4.789  -2.188   5.342  0.00  0.00    +0.090 C 
ATOM      8  C   LIG    1       -3.803  -1.147   4.879  0.00  0.00    -0.080 A 
ATOM      9  C   LIG    1       -2.881  -1.456   3.896  0.00  0.00    +0.000 A 
ATOM     10  C   LIG    1       -1.980  -0.499   3.468  0.00  0.00    +0.020 A 
ATOM     11  C   LIG    1       -1.993   0.763   4.030  0.00  0.00    -0.110 A 
ATOM     12  C   LIG    1       -2.914   1.073   5.013  0.00  0.00    -0.070 A 
ATOM     13  C   LIG    1       -2.932   2.451   5.622  0.00  0.00    +0.090 C 
ATOM     14  C   LIG    1       -3.819   0.118   5.437  0.00  0.00    +0.000 A 
ENDBRANCH   6  11
ENDBRANCH   2   6
ENDBRANCH   1   3
BRANCH   1  15
ATOM     15  S   LIG    1       -0.585   1.469  -1.534  0.00  0.00    +0.090 S 
BRANCH  15  16
ATOM     16  C   LIG    1        0.526   0.718  -2.678  0.00  0.00    +0.150 A 
ATOM     17  N   LIG    1        1.592   0.011  -2.381  0.00  0.00    -0.290 NA
ATOM     18  N   LIG    1        2.169  -0.384  -3.460  0.00  0.00    -0.280 NA
ATOM     19  C   LIG    1        1.512   0.041  -4.502  0.00  0.00    +0.400 A 
ATOM     20  N   LIG    1        0.438   0.755  -4.042  0.00  0.00    -0.420 N 
BRANCH  20  21
ATOM     21  C   LIG    1       -0.547   1.395  -4.811  0.00  0.00    +0.060 A 
ATOM     22  C   LIG    1       -1.406   0.646  -5.602  0.00  0.00    +0.070 A 
ATOM     23  C   LIG    1       -2.375   1.278  -6.358  0.00  0.00    +0.030 A 
ATOM     24  C   LIG    1       -2.490   2.655  -6.327  0.00  0.00    +0.080 A 
ATOM     25  C   LIG    1       -1.636   3.406  -5.540  0.00  0.00    +0.010 A 
ATOM     26  C   LIG    1       -0.668   2.780  -4.777  0.00  0.00    +0.120 A 
ATOM     27  F   LIG    1        0.163   3.512  -4.003  0.00  0.00    -0.120 F 
ENDBRANCH  20  21
ENDBRANCH  15  16
ENDBRANCH   1  15
TORSDOF 6
