REMARK  Name = ZINCqH0000050h9A.0
REMARK                            x       y       z     vdW  Elec       q    Type
REMARK                         _______ _______ _______ _____ _____    ______ ____
ROOT
ATOM      1  C   LIG    1        8.700  -2.287   7.505  0.00  0.00    +0.100 C 
ATOM      2  C   LIG    1        8.362  -2.541   6.059  0.00  0.00    -0.030 A 
ATOM      3  C   LIG    1        8.015  -3.812   5.651  0.00  0.00    +0.000 A 
ATOM      4  C   LIG    1        7.702  -4.049   4.319  0.00  0.00    +0.150 A 
ATOM      5  C   LIG    1        7.744  -2.984   3.401  0.00  0.00    -0.150 A 
ATOM      6  C   LIG    1        7.412  -3.243   1.997  0.00  0.00    +0.040 A 
ATOM      7  C   LIG    1        7.072  -4.507   1.641  0.00  0.00    -0.090 A 
ATOM      8  C   LIG    1        7.055  -5.530   2.615  0.00  0.00    +0.510 A 
ATOM      9  O   LIG    1        6.753  -6.661   2.282  0.00  0.00    -0.460 OA
ATOM     10  C   LIG    1        8.097  -1.702   3.835  0.00  0.00    +0.100 A 
ATOM     11  O   LIG    1        7.360  -5.285   3.899  0.00  0.00    -0.270 OA
ATOM     12  C   LIG    1        8.401  -1.492   5.151  0.00  0.00    -0.110 A 
ATOM     13  C   LIG    1        8.783  -0.111   5.619  0.00  0.00    +0.090 C 
ENDROOT
BRANCH   6  14
ATOM     14  C   LIG    1        7.443  -2.133   0.977  0.00  0.00    +0.240 C 
BRANCH  14  15
ATOM     15  N   LIG    1        6.160  -1.418   0.994  0.00  0.00    -0.530 NA
ATOM     16  C   LIG    1        6.060  -0.488  -0.140  0.00  0.00    +0.200 C 
ATOM     17  C   LIG    1        4.748   0.293  -0.042  0.00  0.00    +0.200 C 
ATOM     18  N   LIG    1        3.620  -0.649  -0.037  0.00  0.00    -0.490 N 
ATOM     19  C   LIG    1        3.719  -1.579   1.097  0.00  0.00    +0.200 C 
ATOM     20  C   LIG    1        5.032  -2.360   1.000  0.00  0.00    +0.180 C 
BRANCH  18  21
ATOM     21  C   LIG    1        2.400   0.031  -0.021  0.00  0.00    +0.110 A 
ATOM     22  C   LIG    1        1.206  -0.680  -0.013  0.00  0.00    -0.020 A 
ATOM     23  C   LIG    1        0.002  -0.004   0.002  0.00  0.00    +0.030 A 
ATOM     24  C   LIG    1       -0.017   1.379   0.010  0.00  0.00    -0.030 A 
ATOM     25  C   LIG    1        1.169   2.089   0.002  0.00  0.00    +0.030 A 
ATOM     26  C   LIG    1        2.377   1.420  -0.013  0.00  0.00    -0.040 A 
ENDBRANCH  18  21
ENDBRANCH  14  15
ENDBRANCH   6  14
TORSDOF 3
