REMARK  Name = ZINCnE000001Ed0o.0
REMARK                            x       y       z     vdW  Elec       q    Type
REMARK                         _______ _______ _______ _____ _____    ______ ____
ROOT
ATOM      1  N   LIG    1       -1.996   2.577   3.581  0.00  0.00    -0.450 N 
ATOM      2  C   LIG    1       -2.233   2.942   4.870  0.00  0.00    +0.400 A 
ATOM      3  N   LIG    1       -1.347   2.376   5.641  0.00  0.00    -0.470 NA
ATOM      4  C   LIG    1       -0.514   1.627   4.888  0.00  0.00    +0.020 A 
ATOM      5  C   LIG    1       -0.913   1.740   3.586  0.00  0.00    +0.250 A 
ENDROOT
BRANCH   4   6
ATOM      6  C   LIG    1        0.628   0.824   5.386  0.00  0.00    +0.020 A 
ATOM      7  C   LIG    1        0.944  -0.392   4.781  0.00  0.00    +0.040 A 
ATOM      8  C   LIG    1        2.012  -1.132   5.244  0.00  0.00    +0.020 A 
ATOM      9  C   LIG    1        2.762  -0.676   6.315  0.00  0.00    -0.040 A 
ATOM     10  C   LIG    1        2.449   0.528   6.922  0.00  0.00    +0.020 A 
ATOM     11 CL   LIG    1        4.100  -1.616   6.897  0.00  0.00    -0.080 Cl
ATOM     12  C   LIG    1        1.387   1.280   6.463  0.00  0.00    +0.040 A 
ENDBRANCH   4   6
BRANCH   5  13
ATOM     13  N   LIG    1       -0.328   1.128   2.480  0.00  0.00    -0.670 N 
ATOM     14  H   LIG    1        0.549   1.410   2.177  0.00  0.00    +0.410 HD
ATOM     15  C   LIG    1       -0.981   0.144   1.831  0.00  0.00    +0.510 C 
ATOM     16  O   LIG    1       -2.036  -0.271   2.262  0.00  0.00    -0.460 OA
BRANCH  15  17
ATOM     17  C   LIG    1       -0.400  -0.441   0.569  0.00  0.00    -0.090 C 
ATOM     18  C   LIG    1       -0.252   0.661  -0.483  0.00  0.00    +0.040 C 
BRANCH  17  19
ATOM     19  C   LIG    1       -1.317  -1.515   0.045  0.00  0.00    +0.500 C 
ATOM     20  O   LIG    1       -2.347  -1.782   0.640  0.00  0.00    -0.650 OA
ATOM     21  O   LIG    1       -1.030  -2.119  -0.975  0.00  0.00    -0.700 OA
ENDBRANCH  17  19
ENDBRANCH  15  17
ENDBRANCH   5  13
BRANCH   1  23
ATOM     22  C   LIG    1       -4.226   2.594   2.577  0.00  0.00    +0.060 C 
ATOM     23  C   LIG    1       -2.761   3.000   2.405  0.00  0.00    +0.230 C 
ATOM     24  C   LIG    1       -2.668   4.519   2.255  0.00  0.00    +0.040 C 
ENDBRANCH   1  23
TORSDOF 5
