REMARK  Name = ZINCvU0000000Cwc.0
REMARK                            x       y       z     vdW  Elec       q    Type
REMARK                         _______ _______ _______ _____ _____    ______ ____
ROOT
ATOM      1  C   LIG    1       -8.525   0.825   4.836  0.00  0.00    +0.370 C 
ATOM      2  C   LIG    1       -8.629  -0.315   5.796  0.00  0.00    -0.230 A 
ATOM      3  C   LIG    1       -9.476   0.062   6.800  0.00  0.00    +0.090 A 
ATOM      4  C   LIG    1       -9.941   1.431   6.523  0.00  0.00    +0.570 C 
ATOM      5  O   LIG    1      -10.709   2.061   7.223  0.00  0.00    -0.450 OA
ATOM      6  O   LIG    1       -9.779  -0.744   7.837  0.00  0.00    -0.180 OA
ATOM      7  C   LIG    1       -9.435  -2.052   7.789  0.00  0.00    +0.140 A 
ATOM      8  C   LIG    1       -9.963  -2.925   8.739  0.00  0.00    +0.020 A 
ATOM      9  C   LIG    1       -9.625  -4.260   8.718  0.00  0.00    +0.100 A 
ATOM     10  C   LIG    1       -8.756  -4.757   7.757  0.00  0.00    +0.000 A 
ATOM     11  C   LIG    1       -8.223  -3.916   6.806  0.00  0.00    +0.120 A 
ATOM     12  C   LIG    1       -8.561  -2.563   6.816  0.00  0.00    -0.210 A 
ATOM     13  C   LIG    1       -8.007  -1.643   5.790  0.00  0.00    +0.460 A 
ATOM     14  O   LIG    1       -7.120  -1.960   5.018  0.00  0.00    -0.420 OA
ATOM     15  N   LIG    1       -9.391   1.885   5.378  0.00  0.00    -0.500 N 
ENDROOT
BRANCH   1  20
ATOM     16  C   LIG    1       -4.999   1.397   3.605  0.00  0.00    +0.140 A 
ATOM     17  C   LIG    1       -4.482   2.194   4.615  0.00  0.00    -0.070 A 
ATOM     18  C   LIG    1       -5.277   2.552   5.687  0.00  0.00    +0.050 A 
ATOM     19  C   LIG    1       -6.584   2.107   5.759  0.00  0.00    -0.030 A 
ATOM     20  C   LIG    1       -7.100   1.308   4.755  0.00  0.00    -0.050 A 
ATOM     21  C   LIG    1       -6.311   0.952   3.679  0.00  0.00    +0.020 A 
BRANCH  16  22
ATOM     22  O   LIG    1       -4.221   1.048   2.547  0.00  0.00    -0.310 OA
BRANCH  22  23
ATOM     23  C   LIG    1       -2.880   1.543   2.537  0.00  0.00    +0.180 C 
BRANCH  23  24
ATOM     24  C   LIG    1       -2.164   1.050   1.278  0.00  0.00    +0.020 C 
BRANCH  24  26
ATOM     25  C   LIG    1       -0.013   1.086   0.008  0.00  0.00    +0.030 C 
ATOM     26  C   LIG    1       -0.729   1.579   1.267  0.00  0.00    +0.000 C 
ENDBRANCH  24  26
ENDBRANCH  23  24
ENDBRANCH  22  23
ENDBRANCH  16  22
ENDBRANCH   1  20
BRANCH  15  27
ATOM     27  C   LIG    1       -9.605   3.133   4.810  0.00  0.00    +0.270 A 
ATOM     28  N   LIG    1       -9.060   3.551   3.709  0.00  0.00    -0.490 NA
ATOM     29  C   LIG    1       -9.379   4.768   3.310  0.00  0.00    +0.250 A 
ATOM     30  C   LIG    1      -10.225   5.413   4.117  0.00  0.00    -0.100 A 
ATOM     31  S   LIG    1      -10.617   4.346   5.463  0.00  0.00    +0.210 S 
ENDBRANCH  15  27
TORSDOF 6
