REMARK  Name = ZINCqH0000000sac.0
REMARK                            x       y       z     vdW  Elec       q    Type
REMARK                         _______ _______ _______ _____ _____    ______ ____
ROOT
ATOM      1  N   LIG    1       -3.771   3.084   0.241  0.00  0.00    -0.680 N 
ATOM      2  H   LIG    1       -3.032   3.657  -0.015  0.00  0.00    +0.410 HD
ATOM      3  C   LIG    1       -3.571   1.762   0.409  0.00  0.00    +0.710 C 
ATOM      4  N   LIG    1       -2.371   1.220   0.123  0.00  0.00    -0.670 N 
ATOM      5  H   LIG    1       -1.631   1.790  -0.139  0.00  0.00    +0.420 HD
ATOM      6  O   LIG    1       -4.474   1.057   0.818  0.00  0.00    -0.560 OA
ENDROOT
BRANCH   1   9
ATOM      7  C   LIG    1       -6.446   5.448   1.140  0.00  0.00    +0.160 A 
ATOM      8  C   LIG    1       -5.181   4.910   0.950  0.00  0.00    +0.000 A 
ATOM      9  C   LIG    1       -5.045   3.629   0.435  0.00  0.00    +0.180 A 
ATOM     10  C   LIG    1       -6.175   2.890   0.106  0.00  0.00    +0.010 A 
ATOM     11  C   LIG    1       -7.433   3.426   0.302  0.00  0.00    +0.050 A 
ATOM     12  C   LIG    1       -7.572   4.702   0.814  0.00  0.00    -0.130 A 
ATOM     13  C   LIG    1       -8.946   5.285   1.020  0.00  0.00    +0.090 C 
BRANCH   7  16
ATOM     14  C   LIG    1       -5.847   8.592   3.121  0.00  0.00    +0.110 C 
ATOM     15  C   LIG    1       -5.647   7.241   2.484  0.00  0.00    +0.510 C 
ATOM     16  N   LIG    1       -6.587   6.739   1.659  0.00  0.00    -0.670 N 
ATOM     17  H   LIG    1       -7.362   7.274   1.424  0.00  0.00    +0.410 HD
ATOM     18  O   LIG    1       -4.640   6.605   2.713  0.00  0.00    -0.520 OA
ENDBRANCH   7  16
ENDBRANCH   1   9
BRANCH   4  19
ATOM     19  C   LIG    1       -2.191  -0.166   0.206  0.00  0.00    +0.170 A 
ATOM     20  C   LIG    1       -2.897  -0.905   1.144  0.00  0.00    +0.060 A 
ATOM     21  C   LIG    1       -2.718  -2.273   1.223  0.00  0.00    +0.030 A 
ATOM     22  C   LIG    1       -1.835  -2.910   0.370  0.00  0.00    +0.030 A 
ATOM     23  C   LIG    1       -1.132  -2.182  -0.571  0.00  0.00    +0.010 A 
ATOM     24  C   LIG    1       -1.301  -0.808  -0.654  0.00  0.00    +0.120 A 
BRANCH  24  25
ATOM     25  N   LIG    1       -0.584  -0.068  -1.605  0.00  0.00    -0.320 N 
ATOM     26  C   LIG    1        0.385  -0.544  -2.419  0.00  0.00    +0.240 A 
ATOM     27  C   LIG    1        0.823   0.484  -3.183  0.00  0.00    -0.100 A 
ATOM     28  C   LIG    1        0.100   1.626  -2.825  0.00  0.00    +0.250 A 
ATOM     29  N   LIG    1       -0.744   1.297  -1.879  0.00  0.00    -0.310 NA
ENDBRANCH  24  25
ENDBRANCH   4  19
TORSDOF 4
