REMARK  Name = ZINCqH0000050axX.1
REMARK                            x       y       z     vdW  Elec       q    Type
REMARK                         _______ _______ _______ _____ _____    ______ ____
ROOT
ATOM      1  N   LIG    1       -1.039  -4.336  -4.817  0.00  0.00    -0.670 N 
ATOM      2  H   LIG    1       -1.468  -5.130  -5.173  0.00  0.00    +0.410 HD
ATOM      3  C   LIG    1       -0.998  -3.206  -5.551  0.00  0.00    +0.590 C 
ATOM      4  O   LIG    1       -0.537  -2.187  -5.072  0.00  0.00    -0.490 OA
ENDROOT
BRANCH   1   9
ATOM      5  C   LIG    1        0.057  -3.269  -1.470  0.00  0.00    +0.170 A 
ATOM      6  C   LIG    1        0.677  -4.427  -1.018  0.00  0.00    -0.010 A 
ATOM      7  C   LIG    1        0.725  -5.547  -1.826  0.00  0.00    +0.060 A 
ATOM      8  C   LIG    1        0.157  -5.519  -3.085  0.00  0.00    -0.010 A 
ATOM      9  C   LIG    1       -0.465  -4.364  -3.543  0.00  0.00    +0.160 A 
ATOM     10  C   LIG    1       -0.519  -3.239  -2.731  0.00  0.00    +0.040 A 
BRANCH   5  17
ATOM     11  C   LIG    1        2.402  -2.249   0.224  0.00  0.00    +0.140 C 
ATOM     12  C   LIG    1        1.021  -1.656   0.109  0.00  0.00    +0.090 A 
ATOM     13  C   LIG    1        0.572  -0.550   0.747  0.00  0.00    -0.110 A 
ATOM     14  C   LIG    1       -0.758  -0.344   0.366  0.00  0.00    +0.080 A 
ATOM     15  N   LIG    1       -1.099  -1.295  -0.466  0.00  0.00    -0.290 NA
ATOM     16  C   LIG    1       -1.649   0.776   0.838  0.00  0.00    +0.160 C 
ATOM     17  N   LIG    1        0.009  -2.133  -0.649  0.00  0.00    -0.330 N 
ENDBRANCH   5  17
ENDBRANCH   1   9
BRANCH   3  18
ATOM     18  C   LIG    1       -1.509  -3.205  -6.930  0.00  0.00    -0.040 A 
ATOM     19  C   LIG    1       -1.540  -2.132  -7.801  0.00  0.00    +0.040 A 
ATOM     20  C   LIG    1       -2.112  -2.631  -8.985  0.00  0.00    +0.100 A 
ATOM     21  N   LIG    1       -2.392  -3.901  -8.787  0.00  0.00    -0.250 NA
ATOM     22  N   LIG    1       -2.053  -4.263  -7.602  0.00  0.00    -0.370 N 
ATOM     23  H   LIG    1       -2.166  -5.156  -7.238  0.00  0.00    +0.450 HD
BRANCH  20  24
ATOM     24  C   LIG    1       -2.360  -1.862 -10.231  0.00  0.00    -0.120 A 
ATOM     25  C   LIG    1       -1.995  -0.581 -10.490  0.00  0.00    +0.210 A 
ATOM     26  O   LIG    1       -2.406  -0.262 -11.726  0.00  0.00    -0.180 OA
ATOM     27  C   LIG    1       -3.036  -1.299 -12.298  0.00  0.00    +0.180 A 
ATOM     28  C   LIG    1       -3.046  -2.333 -11.440  0.00  0.00    -0.040 A 
ENDBRANCH  20  24
ENDBRANCH   3  18
TORSDOF 4
