REMARK  Name = ZINCqH0000050axX.0
REMARK                            x       y       z     vdW  Elec       q    Type
REMARK                         _______ _______ _______ _____ _____    ______ ____
ROOT
ATOM      1  N   LIG    1       -3.033   3.871   0.049  0.00  0.00    -0.660 N 
ATOM      2  H   LIG    1       -2.191   3.940   0.526  0.00  0.00    +0.420 HD
ATOM      3  C   LIG    1       -3.382   2.709  -0.539  0.00  0.00    +0.610 C 
ATOM      4  O   LIG    1       -4.473   2.597  -1.063  0.00  0.00    -0.500 OA
ENDROOT
BRANCH   1   9
ATOM      5  C   LIG    1       -6.104   5.896  -0.086  0.00  0.00    +0.170 A 
ATOM      6  C   LIG    1       -5.569   7.174  -0.180  0.00  0.00    -0.020 A 
ATOM      7  C   LIG    1       -4.198   7.351  -0.198  0.00  0.00    +0.060 A 
ATOM      8  C   LIG    1       -3.357   6.259  -0.117  0.00  0.00    -0.020 A 
ATOM      9  C   LIG    1       -3.886   4.977  -0.028  0.00  0.00    +0.170 A 
ATOM     10  C   LIG    1       -5.262   4.796  -0.010  0.00  0.00    +0.030 A 
BRANCH   5  17
ATOM     11  C   LIG    1       -8.086   7.820   1.246  0.00  0.00    +0.150 C 
ATOM     12  C   LIG    1       -8.396   6.544   0.507  0.00  0.00    +0.090 A 
ATOM     13  C   LIG    1       -9.626   6.020   0.299  0.00  0.00    -0.110 A 
ATOM     14  C   LIG    1       -9.472   4.830  -0.420  0.00  0.00    +0.080 A 
ATOM     15  N   LIG    1       -8.195   4.647  -0.641  0.00  0.00    -0.280 NA
ATOM     16  C   LIG    1      -10.585   3.915  -0.864  0.00  0.00    +0.160 C 
ATOM     17  N   LIG    1       -7.494   5.717  -0.070  0.00  0.00    -0.330 N 
ENDBRANCH   5  17
ENDBRANCH   1   9
BRANCH   3  18
ATOM     18  C   LIG    1       -2.438   1.573  -0.545  0.00  0.00    -0.010 A 
ATOM     19  N   LIG    1       -1.232   1.556  -0.013  0.00  0.00    -0.250 NA
ATOM     20  N   LIG    1       -0.676   0.413  -0.199  0.00  0.00    -0.370 N 
ATOM     21  H   LIG    1        0.213   0.171   0.105  0.00  0.00    +0.450 HD
ATOM     22  C   LIG    1       -1.521  -0.411  -0.880  0.00  0.00    +0.100 A 
ATOM     23  C   LIG    1       -2.662   0.302  -1.119  0.00  0.00    +0.010 A 
BRANCH  22  24
ATOM     24  C   LIG    1       -1.255  -1.810  -1.284  0.00  0.00    -0.140 A 
ATOM     25  C   LIG    1       -2.091  -2.643  -1.959  0.00  0.00    +0.220 A 
ATOM     26  O   LIG    1       -1.470  -3.820  -2.130  0.00  0.00    -0.170 OA
ATOM     27  C   LIG    1       -0.247  -3.797  -1.580  0.00  0.00    +0.190 A 
ATOM     28  C   LIG    1       -0.035  -2.588  -1.034  0.00  0.00    -0.060 A 
ENDBRANCH  22  24
ENDBRANCH   3  18
TORSDOF 4
