REMARK  Name = ZINCpk000000nFpc.0
REMARK                            x       y       z     vdW  Elec       q    Type
REMARK                         _______ _______ _______ _____ _____    ______ ____
ROOT
ATOM      1  N   LIG    1       -3.369   2.332   3.689  0.00  0.00    -1.000 NA
ATOM      2  C   LIG    1       -3.229   3.581   2.926  0.00  0.00    +0.320 C 
ATOM      3  C   LIG    1       -2.930   3.229   1.464  0.00  0.00    +0.170 C 
ATOM      4  N   LIG    1       -1.768   2.332   1.408  0.00  0.00    -0.530 NA
ATOM      5  C   LIG    1       -2.044   1.059   2.087  0.00  0.00    +0.170 C 
ATOM      6  C   LIG    1       -2.306   1.323   3.574  0.00  0.00    +0.300 C 
ENDROOT
BRANCH   1   7
ATOM      7  S   LIG    1       -4.690   2.068   4.652  0.00  0.00    +2.610 S 
ATOM      8  O   LIG    1       -5.132   3.372   5.006  0.00  0.00    -0.950 OA
ATOM      9  O   LIG    1       -4.227   1.159   5.640  0.00  0.00    -0.950 OA
BRANCH   7  10
ATOM     10  C   LIG    1       -5.894   1.264   3.559  0.00  0.00    -0.360 C 
BRANCH  10  11
ATOM     11  C   LIG    1       -7.174   0.965   4.343  0.00  0.00    +0.200 C 
BRANCH  11  12
ATOM     12  O   LIG    1       -8.123   0.331   3.482  0.00  0.00    -0.370 OA
BRANCH  12  14
ATOM     13  C   LIG    1      -10.329   1.184   3.976  0.00  0.00    +0.020 C 
ATOM     14  C   LIG    1       -9.360   0.008   4.119  0.00  0.00    +0.140 C 
ATOM     15  C   LIG    1       -9.964  -1.233   3.460  0.00  0.00    +0.040 C 
ENDBRANCH  12  14
ENDBRANCH  11  12
ENDBRANCH  10  11
ENDBRANCH   7  10
ENDBRANCH   1   7
BRANCH   4  16
ATOM     16  C   LIG    1       -1.343   2.107   0.020  0.00  0.00    +0.230 C 
BRANCH  16  17
ATOM     17  C   LIG    1       -0.017   1.393   0.010  0.00  0.00    -0.040 A 
ATOM     18  C   LIG    1        1.126   2.123   0.003  0.00  0.00    +0.050 A 
ATOM     19  C   LIG    1        2.374   1.465  -0.013  0.00  0.00    +0.100 A 
ATOM     20  N   LIG    1        3.634   1.862  -0.023  0.00  0.00    -0.300 NA
ATOM     21  N   LIG    1        4.465   0.737  -0.037  0.00  0.00    -0.420 N 
ATOM     22  H   LIG    1        5.435   0.761  -0.046  0.00  0.00    +0.440 HD
ATOM     23  C   LIG    1        3.724  -0.380  -0.036  0.00  0.00    +0.270 A 
ATOM     24  C   LIG    1        2.393  -0.006  -0.021  0.00  0.00    -0.210 A 
ATOM     25  C   LIG    1        1.165  -0.702  -0.013  0.00  0.00    +0.080 A 
ATOM     26  C   LIG    1        0.002  -0.004   0.002  0.00  0.00    -0.030 A 
ENDBRANCH  16  17
ENDBRANCH   4  16
TORSDOF 7
