REMARK  Name = ZINCpk00000KfKpf.0
REMARK                            x       y       z     vdW  Elec       q    Type
REMARK                         _______ _______ _______ _____ _____    ______ ____
ROOT
ATOM      1  N   LIG    1       -0.479   1.585   5.963  0.00  0.00    -0.470 N 
ATOM      2  C   LIG    1       -0.261   3.043   6.072  0.00  0.00    +0.210 C 
ATOM      3  C   LIG    1       -0.035   3.520   4.616  0.00  0.00    +0.030 C 
ATOM      4  C   LIG    1       -1.027   2.619   3.834  0.00  0.00    +0.230 C 
ATOM      5  C   LIG    1       -0.971   1.283   4.603  0.00  0.00    +0.180 C 
ATOM      6  C   LIG    1       -2.368   0.664   4.675  0.00  0.00    +0.030 C 
ENDROOT
BRANCH   1  11
ATOM      7  C   LIG    1       -3.404   1.340   8.001  0.00  0.00    +0.520 A 
ATOM      8  N   LIG    1       -3.139   0.304   8.780  0.00  0.00    -0.570 NA
ATOM      9  C   LIG    1       -1.996  -0.356   8.671  0.00  0.00    +0.220 A 
ATOM     10  C   LIG    1       -1.070   0.047   7.729  0.00  0.00    -0.080 A 
ATOM     11  C   LIG    1       -1.377   1.144   6.921  0.00  0.00    +0.380 A 
ATOM     12  C   LIG    1       -1.709  -1.535   9.565  0.00  0.00    +0.150 C 
ATOM     13  N   LIG    1       -2.542   1.762   7.089  0.00  0.00    -0.550 NA
BRANCH   7  15
ATOM     14  C   LIG    1       -5.477   1.498   9.145  0.00  0.00    +0.270 C 
ATOM     15  O   LIG    1       -4.584   1.989   8.143  0.00  0.00    -0.290 OA
ENDBRANCH   7  15
ENDBRANCH   1  11
BRANCH   4  16
ATOM     16  N   LIG    1       -0.583   2.440   2.449  0.00  0.00    -0.720 N 
ATOM     17  H   LIG    1       -0.013   1.690   2.216  0.00  0.00    +0.400 HD
ATOM     18  C   LIG    1       -0.966   3.316   1.499  0.00  0.00    +0.520 C 
ATOM     19  O   LIG    1       -1.679   4.253   1.791  0.00  0.00    -0.520 OA
BRANCH  18  20
ATOM     20  C   LIG    1       -0.509   3.131   0.075  0.00  0.00    +0.170 C 
BRANCH  20  21
ATOM     21  C   LIG    1       -1.072   4.236  -0.780  0.00  0.00    +0.020 A 
ATOM     22  N   LIG    1       -2.326   4.566  -0.903  0.00  0.00    -0.340 NA
ATOM     23  O   LIG    1       -2.469   5.496  -1.663  0.00  0.00    +0.110 OA
ATOM     24  C   LIG    1       -1.295   5.915  -2.156  0.00  0.00    -0.030 A 
ATOM     25  C   LIG    1       -1.076   7.046  -3.127  0.00  0.00    +0.180 C 
ATOM     26  C   LIG    1       -0.343   5.125  -1.604  0.00  0.00    -0.060 A 
ENDBRANCH  20  21
ENDBRANCH  18  20
ENDBRANCH   4  16
TORSDOF 5
