REMARK  Name = ZINCpk00000y6uOf.0
REMARK                            x       y       z     vdW  Elec       q    Type
REMARK                         _______ _______ _______ _____ _____    ______ ____
ROOT
ATOM      1  C   LIG    1       -0.652   4.395   1.473  0.00  0.00    -0.030 C 
ATOM      2  C   LIG    1       -2.054   5.011   1.491  0.00  0.00    +0.050 C 
ATOM      3  C   LIG    1       -2.581   5.026   2.932  0.00  0.00    +0.170 C 
ATOM      4  C   LIG    1       -1.509   5.610   3.821  0.00  0.00    +0.230 A 
ATOM      5  N   LIG    1       -1.647   6.059   5.034  0.00  0.00    -0.450 NA
ATOM      6  C   LIG    1       -0.458   6.496   5.481  0.00  0.00    -0.100 A 
ATOM      7  C   LIG    1        0.452   6.308   4.503  0.00  0.00    +0.210 A 
ATOM      8  N   LIG    1       -0.213   5.747   3.453  0.00  0.00    -0.450 N 
ATOM      9  C   LIG    1        0.335   5.350   2.154  0.00  0.00    +0.290 C 
ENDROOT
BRANCH   6  10
ATOM     10  C   LIG    1       -0.188   7.093   6.838  0.00  0.00    +0.560 C 
ATOM     11  F   LIG    1        1.128   6.808   7.219  0.00  0.00    -0.170 F 
ATOM     12  F   LIG    1       -1.073   6.545   7.773  0.00  0.00    -0.170 F 
ATOM     13  F   LIG    1       -0.367   8.479   6.782  0.00  0.00    -0.170 F 
ENDBRANCH   6  10
BRANCH   1  14
ATOM     14  C   LIG    1       -0.217   4.159   0.025  0.00  0.00    +0.320 C 
BRANCH  14  16
ATOM     15  C   LIG    1        2.319   4.227   0.002  0.00  0.00    +0.310 C 
ATOM     16  N   LIG    1        1.071   3.461   0.010  0.00  0.00    -0.590 N 
BRANCH  16  17
ATOM     17  C   LIG    1        1.108   2.071   0.003  0.00  0.00    +0.410 A 
ATOM     18  N   LIG    1       -0.017   1.391   0.010  0.00  0.00    -0.290 NA
ATOM     19  N   LIG    1        0.002  -0.004   0.002  0.00  0.00    -0.170 N 
ATOM     20  N   LIG    1       -0.986  -0.997   0.006  0.00  0.00    -0.040 NA
ATOM     21  N   LIG    1       -0.378  -2.135  -0.006  0.00  0.00    -0.020 NA
ATOM     22  N   LIG    1        0.897  -1.971  -0.017  0.00  0.00    -0.290 NA
ATOM     23  C   LIG    1        1.192  -0.678  -0.013  0.00  0.00    +0.180 A 
ATOM     24  C   LIG    1        2.396   0.049  -0.020  0.00  0.00    +0.180 A 
ATOM     25  C   LIG    1        2.349   1.408  -0.012  0.00  0.00    +0.020 A 
ENDBRANCH  16  17
ENDBRANCH  14  16
ENDBRANCH   1  14
TORSDOF 4
