REMARK  Name = ZINCqH0000008rha.1
REMARK                            x       y       z     vdW  Elec       q    Type
REMARK                         _______ _______ _______ _____ _____    ______ ____
ROOT
ATOM      1  C   LIG    1        0.311  -0.614   4.090  0.00  0.00    -0.010 C 
ATOM      2  C   LIG    1        1.793  -0.429   3.751  0.00  0.00    +0.020 C 
ATOM      3  C   LIG    1        2.195  -1.458   2.688  0.00  0.00    +0.210 C 
ATOM      4  O   LIG    1        1.924  -2.774   3.172  0.00  0.00    -0.380 OA
ATOM      5  C   LIG    1        0.546  -3.018   3.462  0.00  0.00    +0.200 C 
ATOM      6  C   LIG    1        0.078  -2.054   4.556  0.00  0.00    +0.010 C 
ENDROOT
BRANCH   1   7
ATOM      7  C   LIG    1       -0.077   0.341   5.191  0.00  0.00    -0.050 A 
ATOM      8  C   LIG    1       -1.076   1.272   4.978  0.00  0.00    +0.090 A 
ATOM      9  C   LIG    1       -1.432   2.147   5.987  0.00  0.00    +0.030 A 
ATOM     10  C   LIG    1       -0.789   2.091   7.210  0.00  0.00    -0.030 A 
ATOM     11  C   LIG    1        0.211   1.159   7.424  0.00  0.00    +0.030 A 
ATOM     12 CL   LIG    1       -1.236   3.191   8.477  0.00  0.00    -0.060 Cl
ATOM     13  C   LIG    1        0.563   0.280   6.416  0.00  0.00    -0.020 A 
ATOM     14 CL   LIG    1        1.813  -0.894   6.686  0.00  0.00    -0.050 Cl
ENDBRANCH   1   7
BRANCH   1  15
ATOM     15  C   LIG    1       -0.537  -0.334   2.848  0.00  0.00    +0.200 C 
BRANCH  15  16
ATOM     16  N   LIG    1       -1.947  -0.627   3.141  0.00  0.00    -0.670 NA
ATOM     17  H   LIG    1       -2.062  -1.583   3.443  0.00  0.00    +0.350 HD
BRANCH  16  19
ATOM     18  C   LIG    1       -3.174   1.147   1.982  0.00  0.00    +0.060 C 
ATOM     19  C   LIG    1       -2.798  -0.336   1.980  0.00  0.00    +0.240 C 
BRANCH  19  20
ATOM     20  C   LIG    1       -4.049  -1.172   2.052  0.00  0.00    +0.170 A 
ATOM     21  N   LIG    1       -4.796  -1.373   3.110  0.00  0.00    -0.280 NA
ATOM     22  N   LIG    1       -5.774  -2.140   2.767  0.00  0.00    -0.070 NA
ATOM     23  N   LIG    1       -5.665  -2.439   1.520  0.00  0.00    -0.090 NA
ATOM     24  N   LIG    1       -4.614  -1.862   1.043  0.00  0.00    -0.280 N 
BRANCH  24  25
ATOM     25  C   LIG    1       -4.128  -1.941  -0.336  0.00  0.00    +0.200 C 
ATOM     26  C   LIG    1       -5.035  -2.615  -1.368  0.00  0.00    +0.090 C 
ATOM     27  C   LIG    1       -3.770  -3.325  -0.881  0.00  0.00    +0.070 C 
ENDBRANCH  24  25
ENDBRANCH  19  20
ENDBRANCH  16  19
ENDBRANCH  15  16
ENDBRANCH   1  15
TORSDOF 6
