REMARK  Name = ZINCrD000000C8lu.0
REMARK                            x       y       z     vdW  Elec       q    Type
REMARK                         _______ _______ _______ _____ _____    ______ ____
ROOT
ATOM      1  C   LIG    1       -2.721   3.652  -5.334  0.00  0.00    +0.160 A 
ATOM      2  C   LIG    1       -2.455   4.690  -4.452  0.00  0.00    +0.000 A 
ATOM      3  C   LIG    1       -2.064   4.415  -3.156  0.00  0.00    +0.050 A 
ATOM      4  C   LIG    1       -1.934   3.106  -2.738  0.00  0.00    +0.010 A 
ATOM      5  C   LIG    1       -2.198   2.061  -3.617  0.00  0.00    +0.170 A 
ATOM      6  N   LIG    1       -2.055   0.740  -3.170  0.00  0.00    -0.550 N 
ATOM      7  C   LIG    1       -1.417   0.474  -2.013  0.00  0.00    +0.530 C 
ATOM      8  O   LIG    1       -1.004   1.384  -1.325  0.00  0.00    -0.510 OA
ATOM      9  C   LIG    1       -2.607  -0.350  -3.986  0.00  0.00    +0.280 C 
ATOM     10  C   LIG    1       -2.240  -0.080  -5.447  0.00  0.00    +0.040 C 
ATOM     11  C   LIG    1       -2.900   1.225  -5.892  0.00  0.00    +0.080 C 
ATOM     12  C   LIG    1       -2.595   2.330  -4.916  0.00  0.00    -0.140 A 
ENDROOT
BRANCH   7  13
ATOM     13  C   LIG    1       -1.217  -0.954  -1.573  0.00  0.00    -0.040 C 
ATOM     14  C   LIG    1       -0.792  -1.009  -0.089  0.00  0.00    +0.030 C 
ATOM     15  C   LIG    1        0.600  -1.677  -0.119  0.00  0.00    +0.210 C 
ATOM     16  O   LIG    1        0.617  -2.437  -1.350  0.00  0.00    -0.370 OA
ATOM     17  C   LIG    1       -0.031  -1.594  -2.328  0.00  0.00    +0.230 C 
ENDBRANCH   7  13
BRANCH   1  20
ATOM     18  O   LIG    1       -1.944   5.820  -6.668  0.00  0.00    -0.510 OA
ATOM     19  C   LIG    1       -2.644   5.029  -7.271  0.00  0.00    +0.560 C 
ATOM     20  N   LIG    1       -3.117   3.934  -6.645  0.00  0.00    -0.670 N 
ATOM     21  H   LIG    1       -3.733   3.341  -7.104  0.00  0.00    +0.410 HD
BRANCH  19  22
ATOM     22  C   LIG    1       -2.975   5.269  -8.691  0.00  0.00    -0.150 A 
ATOM     23  C   LIG    1       -3.773   4.360  -9.388  0.00  0.00    +0.080 A 
ATOM     24  C   LIG    1       -4.084   4.592 -10.710  0.00  0.00    -0.010 A 
ATOM     25  C   LIG    1       -3.595   5.720 -11.352  0.00  0.00    +0.130 A 
ATOM     26  C   LIG    1       -2.797   6.623 -10.667  0.00  0.00    -0.010 A 
ATOM     27  F   LIG    1       -3.898   5.939 -12.651  0.00  0.00    -0.130 F 
ATOM     28  C   LIG    1       -2.485   6.404  -9.342  0.00  0.00    +0.120 A 
ENDBRANCH  19  22
ENDBRANCH   1  20
TORSDOF 3
