REMARK  Name = ZINCtV00000L6jR2.0
REMARK                            x       y       z     vdW  Elec       q    Type
REMARK                         _______ _______ _______ _____ _____    ______ ____
ROOT
ATOM      1  C   LIG    1        4.844   1.632  -2.234  0.00  0.00    +0.280 A 
ATOM      2  N   LIG    1        4.984   2.148  -3.420  0.00  0.00    -0.460 NA
ATOM      3  C   LIG    1        4.350   3.347  -3.474  0.00  0.00    +0.040 A 
ATOM      4  C   LIG    1        4.188   4.308  -4.476  0.00  0.00    +0.070 A 
ATOM      5  C   LIG    1        3.475   5.445  -4.220  0.00  0.00    +0.000 A 
ATOM      6  C   LIG    1        2.909   5.660  -2.971  0.00  0.00    +0.030 A 
ATOM      7  C   LIG    1        3.056   4.726  -1.968  0.00  0.00    +0.010 A 
ATOM      8  C   LIG    1        3.776   3.564  -2.209  0.00  0.00    +0.060 A 
ATOM      9  N   LIG    1        4.103   2.459  -1.448  0.00  0.00    -0.470 N 
ENDROOT
BRANCH   1  10
ATOM     10  C   LIG    1        5.417   0.309  -1.795  0.00  0.00    +0.320 C 
BRANCH  10  11
ATOM     11  O   LIG    1        4.530  -0.744  -2.179  0.00  0.00    -0.300 OA
BRANCH  11  17
ATOM     12  C   LIG    1        7.835  -3.791  -0.276  0.00  0.00    +0.090 C 
ATOM     13  C   LIG    1        6.551  -3.541  -1.024  0.00  0.00    -0.050 A 
ATOM     14  C   LIG    1        5.796  -4.607  -1.476  0.00  0.00    -0.030 A 
ATOM     15  C   LIG    1        4.618  -4.381  -2.163  0.00  0.00    +0.060 A 
ATOM     16  C   LIG    1        4.192  -3.089  -2.400  0.00  0.00    -0.100 A 
ATOM     17  C   LIG    1        4.947  -2.017  -1.948  0.00  0.00    +0.130 A 
ATOM     18  C   LIG    1        6.132  -2.246  -1.263  0.00  0.00    -0.080 A 
BRANCH  16  19
ATOM     19  C   LIG    1        2.908  -2.843  -3.151  0.00  0.00    +0.030 C 
ATOM     20  C   LIG    1        1.730  -3.381  -2.335  0.00  0.00    +0.030 C 
ATOM     21  C   LIG    1        2.962  -3.559  -4.502  0.00  0.00    +0.040 C 
ENDBRANCH  16  19
ENDBRANCH  11  17
ENDBRANCH  10  11
ENDBRANCH   1  10
BRANCH   9  22
ATOM     22  C   LIG    1        3.728   2.225  -0.052  0.00  0.00    +0.370 C 
BRANCH  22  23
ATOM     23  C   LIG    1        4.855   2.654   0.851  0.00  0.00    -0.110 A 
ATOM     24  C   LIG    1        5.817   1.740   1.238  0.00  0.00    +0.030 A 
ATOM     25  C   LIG    1        6.852   2.134   2.065  0.00  0.00    +0.030 A 
ATOM     26  C   LIG    1        6.926   3.442   2.506  0.00  0.00    +0.050 A 
ATOM     27  C   LIG    1        5.965   4.357   2.120  0.00  0.00    +0.030 A 
ATOM     28  C   LIG    1        4.929   3.964   1.292  0.00  0.00    -0.020 A 
ATOM     29 CL   LIG    1        3.722   5.113   0.806  0.00  0.00    -0.050 Cl
ENDBRANCH  22  23
ENDBRANCH   9  22
TORSDOF 6
