REMARK  Name = ZINCpe000000THnY.0
REMARK                            x       y       z     vdW  Elec       q    Type
REMARK                         _______ _______ _______ _____ _____    ______ ____
ROOT
ATOM      1  C   LIG    1       -0.443   3.432   1.450  0.00  0.00    +0.180 C 
ATOM      2  C   LIG    1       -1.633   4.367   1.747  0.00  0.00    +0.040 C 
ATOM      3  C   LIG    1       -2.785   3.377   2.065  0.00  0.00    +0.030 C 
ATOM      4  C   LIG    1       -2.476   2.215   1.088  0.00  0.00    +0.180 C 
ATOM      5  N   LIG    1       -1.001   2.123   1.065  0.00  0.00    -0.490 NA
ENDROOT
BRANCH   1   8
ATOM      6  N   LIG    1        1.633   4.436   0.553  0.00  0.00    -0.520 N 
ATOM      7  H   LIG    1        2.002   4.397   1.449  0.00  0.00    +0.430 HD
ATOM      8  C   LIG    1        0.382   3.990   0.319  0.00  0.00    +0.500 C 
ATOM      9  O   LIG    1       -0.079   4.038  -0.802  0.00  0.00    -0.530 OA
BRANCH   6  11
ATOM     10  C   LIG    1        3.650   5.400  -0.265  0.00  0.00    +0.660 C 
ATOM     11  N   LIG    1        2.399   4.955  -0.499  0.00  0.00    -0.500 N 
ATOM     12  H   LIG    1        2.030   4.993  -1.395  0.00  0.00    +0.450 HD
ATOM     13  O   LIG    1        4.315   5.850  -1.177  0.00  0.00    -0.550 OA
BRANCH  10  14
ATOM     14  O   LIG    1        4.162   5.346   0.979  0.00  0.00    -0.370 OA
BRANCH  14  16
ATOM     15  C   LIG    1        5.921   5.702   2.625  0.00  0.00    +0.080 C 
ATOM     16  C   LIG    1        5.514   5.844   1.157  0.00  0.00    +0.240 C 
ENDBRANCH  14  16
ENDBRANCH  10  14
ENDBRANCH   6  11
ENDBRANCH   1   8
BRANCH   5  17
ATOM     17  C   LIG    1       -0.520   1.714  -0.262  0.00  0.00    +0.160 C 
BRANCH  17  18
ATOM     18  C   LIG    1       -0.782   0.221  -0.462  0.00  0.00    +0.230 C 
BRANCH  18  19
ATOM     19  O   LIG    1       -0.093  -0.524   0.544  0.00  0.00    -0.540 OA
ATOM     20  H   LIG    1        0.866  -0.399   0.538  0.00  0.00    +0.370 HD
ENDBRANCH  18  19
BRANCH  18  21
ATOM     21  C   LIG    1       -0.281  -0.204  -1.844  0.00  0.00    +0.140 C 
BRANCH  21  22
ATOM     22  O   LIG    1       -0.630  -1.570  -2.078  0.00  0.00    -0.370 OA
BRANCH  22  23
ATOM     23  C   LIG    1       -0.206  -2.069  -3.348  0.00  0.00    +0.260 C 
BRANCH  23  24
ATOM     24  C   LIG    1       -0.625  -3.510  -3.487  0.00  0.00    -0.190 A 
ATOM     25  C   LIG    1       -1.786  -3.928  -3.994  0.00  0.00    +0.030 A 
ATOM     26  C   LIG    1       -1.948  -5.302  -4.023  0.00  0.00    +0.000 A 
ATOM     27  C   LIG    1       -0.923  -6.000  -3.533  0.00  0.00    -0.040 A 
ATOM     28  S   LIG    1        0.340  -4.898  -2.999  0.00  0.00    +0.120 S 
ENDBRANCH  23  24
ENDBRANCH  22  23
ENDBRANCH  21  22
ENDBRANCH  18  21
ENDBRANCH  17  18
ENDBRANCH   5  17
TORSDOF 11
