REMARK  Name = ZINCrD00000F5LpG.0
REMARK                            x       y       z     vdW  Elec       q    Type
REMARK                         _______ _______ _______ _____ _____    ______ ____
ROOT
ATOM      1  N   LIG    1        0.046  -1.215   2.540  0.00  0.00    -0.990 NA
ENDROOT
BRANCH   1   2
ATOM      2  S   LIG    1        1.281  -1.641   1.522  0.00  0.00    +2.670 S 
ATOM      3  O   LIG    1        0.693  -1.854   0.246  0.00  0.00    -0.960 OA
ATOM      4  O   LIG    1        2.039  -2.630   2.204  0.00  0.00    -0.950 OA
BRANCH   2   6
ATOM      5  C   LIG    1        2.450   0.361   0.198  0.00  0.00    +0.240 C 
ATOM      6  C   LIG    1        2.330  -0.235   1.358  0.00  0.00    -0.590 C 
ENDBRANCH   2   6
ENDBRANCH   1   2
BRANCH   1   7
ATOM      7  C   LIG    1       -1.223  -0.731   1.990  0.00  0.00    +0.380 C 
BRANCH   7   8
ATOM      8  C   LIG    1       -1.236   0.776   2.004  0.00  0.00    -0.260 A 
ATOM      9  C   LIG    1       -0.210   1.577   2.377  0.00  0.00    +0.230 A 
ATOM     10  N   LIG    1       -0.622   2.856   2.254  0.00  0.00    -0.370 N 
ATOM     11  N   LIG    1       -1.942   2.841   1.785  0.00  0.00    -0.280 NA
ATOM     12  C   LIG    1        0.171   4.050   2.557  0.00  0.00    +0.360 C 
ATOM     13  C   LIG    1       -2.308   1.594   1.633  0.00  0.00    +0.100 A 
BRANCH  13  14
ATOM     14  C   LIG    1       -3.653   1.120   1.147  0.00  0.00    +0.070 C 
ATOM     15  C   LIG    1       -4.753   1.724   2.024  0.00  0.00    +0.030 C 
ATOM     16  C   LIG    1       -3.857   1.563  -0.303  0.00  0.00    +0.040 C 
ENDBRANCH  13  14
ENDBRANCH   7   8
ENDBRANCH   1   7
BRANCH   1  17
ATOM     17  C   LIG    1        0.222  -1.321   3.990  0.00  0.00    +0.350 C 
BRANCH  17  18
ATOM     18  C   LIG    1       -0.322  -2.643   4.467  0.00  0.00    -0.150 A 
ATOM     19  C   LIG    1       -1.644  -2.749   4.858  0.00  0.00    +0.070 A 
ATOM     20  C   LIG    1       -2.147  -3.957   5.294  0.00  0.00    -0.010 A 
ATOM     21  C   LIG    1       -1.325  -5.079   5.354  0.00  0.00    +0.110 A 
ATOM     22  O   LIG    1       -1.606  -6.347   5.763  0.00  0.00    -0.300 OA
ATOM     23  C   LIG    1       -0.605  -7.243   5.250  0.00  0.00    +0.170 C 
ATOM     24  C   LIG    1        0.635  -6.329   5.113  0.00  0.00    +0.070 C 
ATOM     25  C   LIG    1       -0.335  -8.381   6.236  0.00  0.00    +0.070 C 
ATOM     26  C   LIG    1        0.001  -4.961   4.957  0.00  0.00    -0.180 A 
ATOM     27  C   LIG    1        0.501  -3.755   4.519  0.00  0.00    +0.090 A 
ENDBRANCH  17  18
ENDBRANCH   1  17
TORSDOF 7
