REMARK  Name = ZINCrD000000gRVj.0
REMARK                            x       y       z     vdW  Elec       q    Type
REMARK                         _______ _______ _______ _____ _____    ______ ____
ROOT
ATOM      1  C   LIG    1       -4.537  -0.271   5.231  0.00  0.00    +0.110 A 
ATOM      2  N   LIG    1       -5.598  -0.900   4.794  0.00  0.00    -0.280 NA
ATOM      3  N   LIG    1       -5.583  -0.873   3.394  0.00  0.00    -0.380 N 
ATOM      4  C   LIG    1       -4.469  -0.212   3.003  0.00  0.00    +0.310 A 
ATOM      5  C   LIG    1       -3.805   0.175   4.126  0.00  0.00    -0.090 A 
ENDROOT
BRANCH   3   6
ATOM      6  C   LIG    1       -6.592  -1.459   2.509  0.00  0.00    +0.280 C 
ATOM      7  C   LIG    1       -7.978  -0.869   2.826  0.00  0.00    +0.090 C 
ATOM      8  C   LIG    1       -9.053  -1.731   2.136  0.00  0.00    -0.300 C 
ATOM      9  S   LIG    1       -8.319  -3.403   2.020  0.00  0.00    +2.400 S 
ATOM     10  O   LIG    1       -9.018  -4.285   2.888  0.00  0.00    -0.920 OA
ATOM     11  O   LIG    1       -8.142  -3.746   0.653  0.00  0.00    -0.930 OA
ATOM     12  C   LIG    1       -6.694  -2.986   2.758  0.00  0.00    -0.310 C 
ENDBRANCH   3   6
BRANCH   1  14
ATOM     13  C   LIG    1       -4.449   1.389   7.071  0.00  0.00    +0.040 C 
ATOM     14  C   LIG    1       -4.167  -0.062   6.677  0.00  0.00    +0.010 C 
ATOM     15  C   LIG    1       -2.680  -0.364   6.872  0.00  0.00    +0.040 C 
ATOM     16  C   LIG    1       -4.997  -1.000   7.556  0.00  0.00    +0.040 C 
ENDBRANCH   1  14
BRANCH   4  17
ATOM     17  N   LIG    1       -4.076   0.034   1.688  0.00  0.00    -0.650 N 
ATOM     18  H   LIG    1       -4.620  -0.285   0.951  0.00  0.00    +0.410 HD
ATOM     19  C   LIG    1       -2.939   0.714   1.440  0.00  0.00    +0.520 C 
ATOM     20  O   LIG    1       -2.257   1.112   2.361  0.00  0.00    -0.490 OA
BRANCH  19  21
ATOM     21  C   LIG    1       -2.514   0.979   0.019  0.00  0.00    +0.120 C 
BRANCH  21  22
ATOM     22  C   LIG    1       -1.219   1.750   0.017  0.00  0.00    -0.070 A 
ATOM     23  C   LIG    1       -0.013   1.076   0.008  0.00  0.00    +0.040 A 
ATOM     24  C   LIG    1        1.175   1.783   0.000  0.00  0.00    +0.030 A 
ATOM     25  C   LIG    1        1.156   3.166   0.008  0.00  0.00    -0.030 A 
ATOM     26  C   LIG    1       -0.052   3.841   0.023  0.00  0.00    +0.030 A 
ATOM     27 CL   LIG    1        2.647   4.055  -0.002  0.00  0.00    -0.070 Cl
ATOM     28  C   LIG    1       -1.239   3.133   0.031  0.00  0.00    +0.040 A 
ENDBRANCH  21  22
ENDBRANCH  19  21
ENDBRANCH   4  17
TORSDOF 5
