REMARK  Name = ZINCrD00000hQ5jP.0
REMARK                            x       y       z     vdW  Elec       q    Type
REMARK                         _______ _______ _______ _____ _____    ______ ____
ROOT
ATOM      1  C   LIG    1       -5.679   3.474  -1.367  0.00  0.00    +0.520 C 
ATOM      2  N   LIG    1       -6.354   3.361  -2.528  0.00  0.00    -0.720 N 
ATOM      3  H   LIG    1       -5.885   3.452  -3.372  0.00  0.00    +0.410 HD
ATOM      4  O   LIG    1       -6.265   3.360  -0.311  0.00  0.00    -0.540 OA
ENDROOT
BRANCH   1   5
ATOM      5  C   LIG    1       -4.196   3.740  -1.380  0.00  0.00    +0.040 C 
BRANCH   5   6
ATOM      6  C   LIG    1       -3.679   3.822   0.058  0.00  0.00    +0.330 C 
BRANCH   6  16
ATOM      7  C   LIG    1       -2.366   6.622   0.060  0.00  0.00    +0.190 C 
ATOM      8  C   LIG    1       -1.638   5.303   0.046  0.00  0.00    +0.280 A 
ATOM      9  N   LIG    1       -0.344   5.166   0.033  0.00  0.00    -0.490 NA
ATOM     10  C   LIG    1       -0.025   3.846   0.023  0.00  0.00    +0.050 A 
ATOM     11  C   LIG    1        1.185   3.147   0.008  0.00  0.00    +0.070 A 
ATOM     12  C   LIG    1        1.182   1.781   0.000  0.00  0.00    +0.000 A 
ATOM     13  C   LIG    1       -0.013   1.076   0.008  0.00  0.00    +0.030 A 
ATOM     14  C   LIG    1       -1.219   1.744   0.017  0.00  0.00    +0.010 A 
ATOM     15  C   LIG    1       -1.235   3.132   0.031  0.00  0.00    +0.050 A 
ATOM     16  N   LIG    1       -2.237   4.082   0.045  0.00  0.00    -0.490 N 
ENDBRANCH   6  16
ENDBRANCH   5   6
ENDBRANCH   1   5
BRANCH   2  17
ATOM     17  C   LIG    1       -7.795   3.102  -2.515  0.00  0.00    +0.290 C 
BRANCH  17  18
ATOM     18  C   LIG    1       -8.312   3.020  -3.953  0.00  0.00    +0.130 C 
ATOM     19  C   LIG    1       -9.853   2.871  -3.974  0.00  0.00    +0.210 C 
ATOM     20  O   LIG    1      -10.064   2.208  -5.241  0.00  0.00    -0.370 OA
ATOM     21  C   LIG    1       -8.951   1.295  -5.377  0.00  0.00    +0.270 C 
ATOM     22  C   LIG    1       -8.506   1.352  -6.859  0.00  0.00    +0.030 C 
ATOM     23  C   LIG    1       -7.096   0.849  -6.972  0.00  0.00    +0.020 C 
ATOM     24  C   LIG    1       -7.021  -0.654  -7.311  0.00  0.00    +0.000 C 
ATOM     25  C   LIG    1       -8.047  -1.494  -6.528  0.00  0.00    +0.000 C 
ATOM     26  C   LIG    1       -8.155  -1.059  -5.091  0.00  0.00    +0.040 C 
ATOM     27  C   LIG    1       -9.318  -0.060  -4.975  0.00  0.00    +0.010 C 
ATOM     28  O   LIG    1       -7.859   1.810  -4.588  0.00  0.00    -0.370 OA
ENDBRANCH  17  18
ENDBRANCH   2  17
TORSDOF 5
