REMARK  Name = ZINCqH00000054RW.0
REMARK                            x       y       z     vdW  Elec       q    Type
REMARK                         _______ _______ _______ _____ _____    ______ ____
ROOT
ATOM      1  N   LIG    1        3.801   2.320  -0.425  0.00  0.00    -0.710 N 
ATOM      2  H   LIG    1        3.347   3.096  -0.061  0.00  0.00    +0.400 HD
ATOM      3  C   LIG    1        3.085   1.271  -0.876  0.00  0.00    +0.590 C 
ATOM      4  O   LIG    1        3.653   0.298  -1.333  0.00  0.00    -0.520 OA
ENDROOT
BRANCH   3   5
ATOM      5  C   LIG    1        1.614   1.304  -0.816  0.00  0.00    -0.040 A 
ATOM      6  C   LIG    1        0.747   0.313  -1.236  0.00  0.00    +0.030 A 
ATOM      7  C   LIG    1       -0.542   0.812  -0.973  0.00  0.00    +0.070 A 
ATOM      8  N   LIG    1       -0.404   2.007  -0.438  0.00  0.00    -0.250 NA
ATOM      9  N   LIG    1        0.837   2.320  -0.335  0.00  0.00    -0.370 N 
ATOM     10  H   LIG    1        1.173   3.153   0.031  0.00  0.00    +0.450 HD
BRANCH   7  11
ATOM     11  C   LIG    1       -1.824   0.116  -1.248  0.00  0.00    -0.010 A 
ATOM     12  C   LIG    1       -1.822  -1.151  -1.826  0.00  0.00    +0.030 A 
ATOM     13  C   LIG    1       -3.017  -1.795  -2.075  0.00  0.00    +0.010 A 
ATOM     14  C   LIG    1       -4.215  -1.180  -1.761  0.00  0.00    +0.010 A 
ATOM     15  C   LIG    1       -4.223   0.080  -1.192  0.00  0.00    +0.010 A 
ATOM     16  C   LIG    1       -3.034   0.731  -0.933  0.00  0.00    +0.040 A 
ENDBRANCH   7  11
ENDBRANCH   3   5
BRANCH   1  17
ATOM     17  C   LIG    1        5.264   2.288  -0.484  0.00  0.00    +0.290 C 
BRANCH  17  18
ATOM     18  C   LIG    1        5.827   3.591   0.086  0.00  0.00    +0.210 C 
BRANCH  18  19
ATOM     19  C   LIG    1        7.324   3.611  -0.087  0.00  0.00    -0.110 A 
ATOM     20  C   LIG    1        7.907   2.922  -1.133  0.00  0.00    +0.040 A 
ATOM     21  C   LIG    1        9.281   2.940  -1.292  0.00  0.00    +0.020 A 
ATOM     22  C   LIG    1       10.071   3.646  -0.404  0.00  0.00    +0.030 A 
ATOM     23  C   LIG    1        9.488   4.335   0.643  0.00  0.00    +0.030 A 
ATOM     24  C   LIG    1        8.113   4.323   0.799  0.00  0.00    -0.030 A 
ATOM     25 CL   LIG    1        7.380   5.194   2.109  0.00  0.00    -0.060 Cl
ENDBRANCH  18  19
BRANCH  18  27
ATOM     26  C   LIG    1        5.571   5.999   0.040  0.00  0.00    +0.200 C 
ATOM     27  N   LIG    1        5.237   4.733  -0.626  0.00  0.00    -0.530 NA
ATOM     28  C   LIG    1        5.658   4.750  -2.033  0.00  0.00    +0.190 C 
ENDBRANCH  18  27
ENDBRANCH  17  18
ENDBRANCH   1  17
TORSDOF 6
