REMARK  Name = ZINCrD0000073ror.0
REMARK                            x       y       z     vdW  Elec       q    Type
REMARK                         _______ _______ _______ _____ _____    ______ ____
ROOT
ATOM      1  N   LIG    1       -6.304   5.137   4.374  0.00  0.00    -0.610 N 
ATOM      2  C   LIG    1       -5.870   3.896   4.076  0.00  0.00    +0.530 C 
ATOM      3  O   LIG    1       -6.486   2.928   4.468  0.00  0.00    -0.530 OA
ATOM      4  C   LIG    1       -7.452   5.317   5.266  0.00  0.00    +0.290 C 
ENDROOT
BRANCH   2   5
ATOM      5  C   LIG    1       -4.619   3.712   3.257  0.00  0.00    -0.020 C 
ATOM      6  C   LIG    1       -3.399   3.702   4.182  0.00  0.00    +0.030 C 
ATOM      7  C   LIG    1       -2.125   3.547   3.347  0.00  0.00    +0.010 C 
ATOM      8  C   LIG    1       -2.172   2.209   2.595  0.00  0.00    +0.260 C 
ATOM      9  N   LIG    1       -3.415   2.156   1.813  0.00  0.00    -0.610 N 
ATOM     10  C   LIG    1       -3.384   1.899   0.490  0.00  0.00    +0.520 C 
ATOM     11  O   LIG    1       -4.420   1.745  -0.122  0.00  0.00    -0.530 OA
ATOM     12  C   LIG    1       -4.693   2.381   2.502  0.00  0.00    +0.300 C 
BRANCH  10  13
ATOM     13  C   LIG    1       -2.063   1.805  -0.228  0.00  0.00    -0.090 C 
ATOM     14  C   LIG    1       -1.278   3.103  -0.024  0.00  0.00    +0.040 C 
ATOM     15  C   LIG    1       -1.260   0.630   0.333  0.00  0.00    +0.040 C 
ATOM     16  C   LIG    1       -2.309   1.588  -1.722  0.00  0.00    +0.050 C 
ENDBRANCH  10  13
ENDBRANCH   2   5
BRANCH   1  17
ATOM     17  C   LIG    1       -5.627   6.305   3.806  0.00  0.00    +0.230 C 
ATOM     18  C   LIG    1       -5.222   7.258   4.933  0.00  0.00    +0.030 C 
BRANCH  17  19
ATOM     19  C   LIG    1       -6.574   7.026   2.845  0.00  0.00    +0.070 C 
BRANCH  19  23
ATOM     20  C   LIG    1       -7.430   4.486  -0.484  0.00  0.00    +0.140 A 
ATOM     21  C   LIG    1       -8.233   4.445   0.646  0.00  0.00    -0.020 A 
ATOM     22  C   LIG    1       -7.955   5.267   1.721  0.00  0.00    +0.050 A 
ATOM     23  C   LIG    1       -6.876   6.130   1.671  0.00  0.00    -0.130 A 
ATOM     24  C   LIG    1       -6.077   6.177   0.544  0.00  0.00    +0.040 A 
ATOM     25  C   LIG    1       -6.348   5.353  -0.531  0.00  0.00    -0.080 A 
BRANCH  20  27
ATOM     26  C   LIG    1       -6.832   3.773  -2.672  0.00  0.00    +0.240 C 
ATOM     27  O   LIG    1       -7.701   3.678  -1.542  0.00  0.00    -0.310 OA
ENDBRANCH  20  27
ENDBRANCH  19  23
ENDBRANCH  17  19
ENDBRANCH   1  17
TORSDOF 6
