REMARK  Name = ZINCrg00000SjSAp.0
REMARK                            x       y       z     vdW  Elec       q    Type
REMARK                         _______ _______ _______ _____ _____    ______ ____
ROOT
ATOM      1  N   LIG    1       -2.206   1.837   2.557  0.00  0.00    -0.510 NA
ATOM      2  C   LIG    1       -2.052   1.496   1.136  0.00  0.00    +0.170 C 
ATOM      3  C   LIG    1       -3.369   1.771   0.403  0.00  0.00    +0.300 C 
ATOM      4  N   LIG    1       -3.772   3.160   0.669  0.00  0.00    -1.000 NA
ATOM      5  C   LIG    1       -3.816   3.616   2.067  0.00  0.00    +0.300 C 
ATOM      6  C   LIG    1       -2.482   3.269   2.735  0.00  0.00    +0.190 C 
ENDROOT
BRANCH   4   7
ATOM      7  S   LIG    1       -4.164   4.184  -0.572  0.00  0.00    +2.700 S 
ATOM      8  O   LIG    1       -3.446   3.728  -1.710  0.00  0.00    -0.930 OA
ATOM      9  O   LIG    1       -4.047   5.503  -0.056  0.00  0.00    -0.920 OA
BRANCH   7  10
ATOM     10  C   LIG    1       -5.872   3.940  -0.930  0.00  0.00    -0.630 A 
ATOM     11  C   LIG    1       -6.534   2.840  -0.419  0.00  0.00    +0.130 A 
ATOM     12  C   LIG    1       -7.876   2.651  -0.696  0.00  0.00    +0.080 A 
ATOM     13  C   LIG    1       -8.551   3.556  -1.493  0.00  0.00    +0.090 A 
ATOM     14  C   LIG    1       -7.887   4.654  -2.009  0.00  0.00    +0.110 A 
ATOM     15  C   LIG    1       -6.547   4.846  -1.727  0.00  0.00    +0.040 A 
BRANCH  15  16
ATOM     16  N   LIG    1       -5.836   6.020  -2.279  0.00  0.00    +0.010 N 
ATOM     17  O   LIG    1       -4.629   6.119  -2.147  0.00  0.00    -0.160 OA
ATOM     18  O   LIG    1       -6.457   6.888  -2.866  0.00  0.00    -0.110 OA
ENDBRANCH  15  16
ENDBRANCH   7  10
ENDBRANCH   4   7
BRANCH   1  19
ATOM     19  C   LIG    1       -1.024   1.429   3.327  0.00  0.00    +0.130 C 
BRANCH  19  20
ATOM     20  C   LIG    1       -0.851  -0.065   3.228  0.00  0.00    +0.520 C 
ATOM     21  N   LIG    1        0.385  -0.600   3.194  0.00  0.00    -0.620 N 
ATOM     22  C   LIG    1        1.560   0.259   3.359  0.00  0.00    +0.280 C 
ATOM     23  C   LIG    1        0.554  -2.041   2.993  0.00  0.00    +0.280 C 
ATOM     24  O   LIG    1       -1.825  -0.786   3.180  0.00  0.00    -0.510 OA
ENDBRANCH  19  20
BRANCH  19  26
ATOM     25  C   LIG    1       -2.475   1.168   5.344  0.00  0.00    +0.040 C 
ATOM     26  C   LIG    1       -1.208   1.825   4.793  0.00  0.00    -0.010 C 
ATOM     27  C   LIG    1        0.003   1.358   5.604  0.00  0.00    +0.020 C 
ENDBRANCH  19  26
ENDBRANCH   1  19
TORSDOF 6
