REMARK  Name = ZINCtj00000vegfs.1
REMARK                            x       y       z     vdW  Elec       q    Type
REMARK                         _______ _______ _______ _____ _____    ______ ____
ROOT
ATOM      1  C   LIG    1       -8.105  -2.410   0.548  0.00  0.00    +0.040 C 
ATOM      2  C   LIG    1       -8.204  -2.520   2.059  0.00  0.00    +0.100 C 
ATOM      3  C   LIG    1       -8.743  -1.240   2.686  0.00  0.00    +0.260 C 
ATOM      4  N   LIG    1       -7.854  -0.125   2.330  0.00  0.00    -0.390 N 
ATOM      5  C   LIG    1       -7.959   0.123   0.893  0.00  0.00    +0.290 C 
ATOM      6  C   LIG    1       -8.257   1.080   3.068  0.00  0.00    +0.330 C 
ATOM      7  H   LIG    1       -6.902  -0.364   2.564  0.00  0.00    +0.430 HD
ATOM      8  C   LIG    1       -7.047  -3.424   0.043  0.00  0.00    +0.320 C 
ATOM      9  N   LIG    1       -5.766  -2.703   0.041  0.00  0.00    -0.610 N 
ATOM     10  C   LIG    1       -4.547  -3.276   0.026  0.00  0.00    +0.600 C 
ATOM     11  O   LIG    1       -4.445  -4.488   0.018  0.00  0.00    -0.500 OA
ATOM     12  C   LIG    1       -6.027  -1.256   0.051  0.00  0.00    +0.310 C 
ATOM     13  C   LIG    1       -7.552  -1.072   0.069  0.00  0.00    +0.010 C 
ENDROOT
BRANCH   1  18
ATOM     14  C   LIG    1      -12.467  -4.472  -0.791  0.00  0.00    +0.220 C 
ATOM     15  C   LIG    1      -11.293  -3.538  -0.659  0.00  0.00    +0.180 A 
ATOM     16  N   LIG    1      -11.147  -2.395  -1.261  0.00  0.00    -0.370 NA
ATOM     17  O   LIG    1      -10.093  -1.885  -0.944  0.00  0.00    +0.090 OA
ATOM     18  C   LIG    1       -9.447  -2.677  -0.084  0.00  0.00    +0.160 A 
ATOM     19  N   LIG    1      -10.200  -3.735   0.100  0.00  0.00    -0.450 NA
ENDBRANCH   1  18
BRANCH  10  20
ATOM     20  C   LIG    1       -3.332  -2.432   0.020  0.00  0.00    +0.060 A 
ATOM     21  C   LIG    1       -2.074  -3.033   0.004  0.00  0.00    +0.090 A 
ATOM     22  C   LIG    1       -0.945  -2.233  -0.007  0.00  0.00    +0.060 A 
ATOM     23  C   LIG    1       -1.111  -0.851   0.008  0.00  0.00    +0.130 A 
ATOM     24  C   LIG    1       -2.400  -0.321   0.023  0.00  0.00    +0.260 A 
ATOM     25  N   LIG    1       -3.451  -1.109   0.029  0.00  0.00    -0.440 NA
BRANCH  23  26
ATOM     26  N   LIG    1        0.002  -0.004   0.002  0.00  0.00    -0.420 N 
ATOM     27  C   LIG    1       -0.017   1.367   0.010  0.00  0.00    +0.120 A 
ATOM     28  C   LIG    1        1.267   1.775  -0.001  0.00  0.00    +0.170 A 
ATOM     29  N   LIG    1        2.052   0.687  -0.014  0.00  0.00    -0.470 NA
ATOM     30  C   LIG    1        1.307  -0.384  -0.013  0.00  0.00    +0.410 A 
ENDBRANCH  23  26
ENDBRANCH  10  20
TORSDOF 3
