REMARK  Name = ZINCpe00000bqeXQ.0
REMARK                            x       y       z     vdW  Elec       q    Type
REMARK                         _______ _______ _______ _____ _____    ______ ____
ROOT
ATOM      1  N   LIG    1        1.265  -0.379   0.198  0.00  0.00    -0.350 N 
ATOM      2  N   LIG    1        2.034   0.794   0.102  0.00  0.00    -0.070 NA
ATOM      3  N   LIG    1        1.214   1.760  -0.134  0.00  0.00    -0.030 NA
ATOM      4  N   LIG    1        0.010   1.317  -0.197  0.00  0.00    -0.340 NA
ATOM      5  C   LIG    1       -0.014   0.017  -0.001  0.00  0.00    +0.400 A 
ENDROOT
BRANCH   5   6
ATOM      6  N   LIG    1       -1.135  -0.794   0.000  0.00  0.00    -0.450 N 
ATOM      7  C   LIG    1       -2.191  -0.231   0.853  0.00  0.00    +0.310 C 
ATOM      8  C   LIG    1       -2.809   0.964   0.183  0.00  0.00    +0.500 C 
ATOM      9  N   LIG    1       -2.669   1.214  -1.123  0.00  0.00    -0.700 N 
ATOM     10  H   LIG    1       -3.115   1.990  -1.497  0.00  0.00    +0.410 HD
ATOM     11  C   LIG    1       -1.875   0.370  -2.012  0.00  0.00    +0.180 C 
ATOM     12  C   LIG    1       -2.622   0.186  -3.335  0.00  0.00    +0.050 C 
ATOM     13  O   LIG    1       -3.461   1.734   0.855  0.00  0.00    -0.540 OA
ATOM     14  C   LIG    1       -1.641  -0.997  -1.367  0.00  0.00    +0.260 C 
ENDBRANCH   5   6
BRANCH   1  15
ATOM     15  C   LIG    1        1.745  -1.739   0.457  0.00  0.00    +0.330 C 
BRANCH  15  16
ATOM     16  C   LIG    1        2.188  -2.382  -0.859  0.00  0.00    +0.290 C 
BRANCH  16  17
ATOM     17  N   LIG    1        2.668  -3.742  -0.600  0.00  0.00    -0.620 N 
BRANCH  17  18
ATOM     18  C   LIG    1        4.016  -3.963  -0.308  0.00  0.00    +0.210 A 
ATOM     19  C   LIG    1        4.903  -2.895  -0.263  0.00  0.00    -0.080 A 
ATOM     20  C   LIG    1        6.235  -3.117   0.026  0.00  0.00    +0.050 A 
ATOM     21  C   LIG    1        6.686  -4.401   0.272  0.00  0.00    -0.050 A 
ATOM     22  C   LIG    1        5.806  -5.467   0.228  0.00  0.00    -0.040 A 
ATOM     23  C   LIG    1        6.302  -6.864   0.496  0.00  0.00    +0.090 C 
ATOM     24  C   LIG    1        4.471  -5.251  -0.056  0.00  0.00    -0.070 A 
ENDBRANCH  17  18
BRANCH  17  26
ATOM     25  C   LIG    1        1.685  -5.433  -2.069  0.00  0.00    +0.020 C 
ATOM     26  C   LIG    1        1.734  -4.870  -0.647  0.00  0.00    +0.280 C 
ENDBRANCH  17  26
ENDBRANCH  16  17
ENDBRANCH  15  16
ENDBRANCH   1  15
TORSDOF 6
