REMARK  Name = ZINCrH000004vEdW.0
REMARK                            x       y       z     vdW  Elec       q    Type
REMARK                         _______ _______ _______ _____ _____    ______ ____
ROOT
ATOM      1  C   LIG    1        4.102   0.796  -3.243  0.00  0.00    -0.270 A 
ATOM      2  C   LIG    1        3.993   1.385  -2.000  0.00  0.00    +0.280 A 
ATOM      3  N   LIG    1        2.865   0.937  -1.429  0.00  0.00    -0.350 N 
ATOM      4  N   LIG    1        2.223   0.043  -2.292  0.00  0.00    -0.260 NA
ATOM      5  C   LIG    1        2.927  -0.068  -3.396  0.00  0.00    +0.160 A 
ENDROOT
BRANCH   1   7
ATOM      6  O   LIG    1        5.764   0.035  -4.691  0.00  0.00    -0.520 OA
ATOM      7  C   LIG    1        5.184   0.995  -4.222  0.00  0.00    +0.600 C 
ATOM      8  N   LIG    1        5.532   2.242  -4.597  0.00  0.00    -0.610 N 
ATOM      9  C   LIG    1        4.907   3.422  -3.978  0.00  0.00    +0.250 C 
ATOM     10  C   LIG    1        6.026   4.373  -3.524  0.00  0.00    +0.220 C 
ATOM     11  O   LIG    1        6.904   4.624  -4.624  0.00  0.00    -0.380 OA
ATOM     12  C   LIG    1        7.578   3.462  -5.111  0.00  0.00    +0.220 C 
ATOM     13  C   LIG    1        6.543   2.464  -5.643  0.00  0.00    +0.260 C 
ENDBRANCH   1   7
BRANCH   5  14
ATOM     14  C   LIG    1        2.600  -0.912  -4.570  0.00  0.00    -0.010 A 
ATOM     15  C   LIG    1        2.913  -0.473  -5.856  0.00  0.00    +0.060 A 
ATOM     16  C   LIG    1        2.610  -1.264  -6.945  0.00  0.00    +0.030 A 
ATOM     17  C   LIG    1        1.987  -2.487  -6.763  0.00  0.00    -0.020 A 
ATOM     18  C   LIG    1        1.669  -2.925  -5.489  0.00  0.00    +0.030 A 
ATOM     19 CL   LIG    1        1.603  -3.475  -8.138  0.00  0.00    -0.070 Cl
ATOM     20  C   LIG    1        1.973  -2.144  -4.393  0.00  0.00    +0.070 A 
ENDBRANCH   5  14
BRANCH   3  21
ATOM     21  C   LIG    1        2.381   1.320  -0.101  0.00  0.00    +0.380 C 
BRANCH  21  22
ATOM     22  C   LIG    1        0.976   1.855  -0.212  0.00  0.00    -0.120 A 
ATOM     23  C   LIG    1       -0.101   0.995  -0.102  0.00  0.00    +0.040 A 
ATOM     24  C   LIG    1       -1.389   1.485  -0.210  0.00  0.00    +0.010 A 
ATOM     25  C   LIG    1       -1.601   2.835  -0.418  0.00  0.00    +0.010 A 
ATOM     26  C   LIG    1       -0.523   3.694  -0.528  0.00  0.00    +0.010 A 
ATOM     27  C   LIG    1        0.765   3.204  -0.425  0.00  0.00    +0.020 A 
ENDBRANCH  21  22
ENDBRANCH   3  21
TORSDOF 4
