REMARK  Name = ZINCrH00000tj11a.0
REMARK                            x       y       z     vdW  Elec       q    Type
REMARK                         _______ _______ _______ _____ _____    ______ ____
ROOT
ATOM      1  C   LIG    1        3.546  -2.443  -1.388  0.00  0.00    +0.050 C 
ATOM      2  C   LIG    1        3.586  -2.123   0.108  0.00  0.00    +0.250 C 
ENDROOT
BRANCH   2   3
ATOM      3  C   LIG    1        4.878  -2.630   0.695  0.00  0.00    +0.510 C 
ATOM      4  N   LIG    1        5.177  -3.943   0.635  0.00  0.00    -0.670 N 
ATOM      5  H   LIG    1        4.528  -4.572   0.283  0.00  0.00    +0.420 HD
ATOM      6  O   LIG    1        5.649  -1.856   1.223  0.00  0.00    -0.500 OA
BRANCH   4   7
ATOM      7  C   LIG    1        6.423  -4.398   1.080  0.00  0.00    +0.150 A 
ATOM      8  C   LIG    1        7.549  -3.600   0.929  0.00  0.00    +0.050 A 
ATOM      9  C   LIG    1        8.777  -4.050   1.375  0.00  0.00    +0.040 A 
ATOM     10  C   LIG    1        8.887  -5.298   1.960  0.00  0.00    +0.060 A 
ATOM     11  C   LIG    1        7.768  -6.097   2.107  0.00  0.00    -0.160 A 
ATOM     12  C   LIG    1        6.536  -5.651   1.668  0.00  0.00    +0.040 A 
BRANCH  11  13
ATOM     13  C   LIG    1        7.892  -7.457   2.744  0.00  0.00    +0.510 C 
ATOM     14  F   LIG    1        6.695  -7.778   3.394  0.00  0.00    -0.180 F 
ATOM     15  F   LIG    1        8.938  -7.442   3.674  0.00  0.00    -0.170 F 
ATOM     16  F   LIG    1        8.158  -8.412   1.758  0.00  0.00    -0.170 F 
ENDBRANCH  11  13
ENDBRANCH   4   7
ENDBRANCH   2   3
BRANCH   2  17
ATOM     17  N   LIG    1        3.497  -0.674   0.300  0.00  0.00    -0.730 N 
ATOM     18  H   LIG    1        4.306  -0.148   0.402  0.00  0.00    +0.410 HD
BRANCH  17  19
ATOM     19  C   LIG    1        2.246  -0.047   0.337  0.00  0.00    +0.240 A 
ATOM     20  C   LIG    1        1.089  -0.797   0.192  0.00  0.00    -0.050 A 
ATOM     21  C   LIG    1       -0.147  -0.176   0.227  0.00  0.00    +0.060 A 
ATOM     22  C   LIG    1       -0.233   1.191   0.408  0.00  0.00    -0.040 A 
ATOM     23  C   LIG    1        0.916   1.947   0.555  0.00  0.00    +0.030 A 
ATOM     24  C   LIG    1        2.159   1.333   0.519  0.00  0.00    -0.170 A 
BRANCH  24  25
ATOM     25  S   LIG    1        3.624   2.294   0.704  0.00  0.00    -0.040 S 
BRANCH  25  26
ATOM     26  C   LIG    1        2.985   3.979   0.907  0.00  0.00    +0.090 C 
BRANCH  26  27
ATOM     27  C   LIG    1        4.136   4.936   1.079  0.00  0.00    +0.540 C 
ATOM     28  O   LIG    1        5.276   4.522   1.067  0.00  0.00    -0.520 OA
ATOM     29  N   LIG    1        3.899   6.253   1.248  0.00  0.00    -0.850 N 
ATOM     30  H   LIG    1        4.640   6.869   1.359  0.00  0.00    +0.410 HD
ATOM     31  H   LIG    1        2.987   6.584   1.257  0.00  0.00    +0.400 HD
ENDBRANCH  26  27
ENDBRANCH  25  26
ENDBRANCH  24  25
ENDBRANCH  17  19
ENDBRANCH   2  17
TORSDOF 8
