REMARK  Name = ZINCpe00000gM0LD.0
REMARK                            x       y       z     vdW  Elec       q    Type
REMARK                         _______ _______ _______ _____ _____    ______ ____
ROOT
ATOM      1  N   LIG    1        5.321  -3.040   1.675  0.00  0.00    -0.530 NA
ATOM      2  C   LIG    1        4.470  -2.754   2.838  0.00  0.00    +0.170 C 
ATOM      3  C   LIG    1        3.000  -2.956   2.454  0.00  0.00    +0.300 C 
ATOM      4  N   LIG    1        2.714  -2.147   1.259  0.00  0.00    -0.610 N 
ATOM      5  C   LIG    1        3.605  -2.283   0.097  0.00  0.00    +0.290 C 
ATOM      6  C   LIG    1        1.660  -1.308   1.229  0.00  0.00    +0.500 C 
ATOM      7  O   LIG    1        0.933  -1.212   2.195  0.00  0.00    -0.520 OA
ATOM      8  C   LIG    1        5.054  -2.103   0.576  0.00  0.00    +0.170 C 
ENDROOT
BRANCH   6   9
ATOM      9  C   LIG    1        1.385  -0.488  -0.005  0.00  0.00    +0.230 C 
ATOM     10  C   LIG    1        2.256   0.780  -0.009  0.00  0.00    +0.120 C 
ATOM     11  C   LIG    1        1.265   1.922  -0.001  0.00  0.00    -0.140 A 
ATOM     12  C   LIG    1        1.459   3.290  -0.000  0.00  0.00    +0.050 A 
ATOM     13  C   LIG    1        0.373   4.145   0.007  0.00  0.00    -0.010 A 
ATOM     14  C   LIG    1       -0.909   3.629   0.013  0.00  0.00    +0.040 A 
ATOM     15  C   LIG    1       -1.108   2.264   0.018  0.00  0.00    +0.010 A 
ATOM     16  C   LIG    1       -0.017   1.394   0.005  0.00  0.00    +0.150 A 
ATOM     17  N   LIG    1        0.002  -0.004   0.003  0.00  0.00    -0.540 N 
ATOM     18  C   LIG    1       -1.092  -0.792   0.009  0.00  0.00    +0.530 C 
ATOM     19  O   LIG    1       -2.194  -0.297   0.113  0.00  0.00    -0.510 OA
ATOM     20  C   LIG    1       -0.945  -2.286  -0.114  0.00  0.00    +0.100 C 
ENDBRANCH   6   9
BRANCH   1  21
ATOM     21  C   LIG    1        6.742  -3.025   2.047  0.00  0.00    +0.140 C 
BRANCH  21  22
ATOM     22  C   LIG    1        7.578  -3.567   0.886  0.00  0.00    +0.210 C 
BRANCH  22  24
ATOM     23  C   LIG    1        9.904  -3.974   0.070  0.00  0.00    +0.010 C 
ATOM     24  C   LIG    1        9.058  -3.551   1.272  0.00  0.00    -0.020 C 
ENDBRANCH  22  24
BRANCH  22  25
ATOM     25  O   LIG    1        7.176  -4.907   0.594  0.00  0.00    -0.550 OA
ATOM     26  H   LIG    1        7.284  -5.520   1.333  0.00  0.00    +0.370 HD
ENDBRANCH  22  25
ENDBRANCH  21  22
ENDBRANCH   1  21
TORSDOF 5
