REMARK  Name = ZINCqH0000038SKJ.2
REMARK                            x       y       z     vdW  Elec       q    Type
REMARK                         _______ _______ _______ _____ _____    ______ ____
ROOT
ATOM      1  N   LIG    1       -3.932   5.490  -1.174  0.00  0.00    -0.530 NA
ATOM      2  C   LIG    1       -4.012   6.375  -0.004  0.00  0.00    +0.170 C 
ATOM      3  C   LIG    1       -3.947   5.537   1.275  0.00  0.00    +0.020 C 
ATOM      4  C   LIG    1       -2.635   4.748   1.297  0.00  0.00    +0.020 C 
ATOM      5  C   LIG    1       -2.555   3.872   0.044  0.00  0.00    +0.050 C 
ATOM      6  C   LIG    1       -2.659   4.757  -1.199  0.00  0.00    +0.190 C 
ENDROOT
BRANCH   5   7
ATOM      7  C   LIG    1       -1.239   3.136   0.029  0.00  0.00    -0.080 A 
ATOM      8  C   LIG    1       -0.052   3.843   0.022  0.00  0.00    +0.020 A 
ATOM      9  C   LIG    1        1.156   3.167   0.007  0.00  0.00    +0.090 A 
ATOM     10  C   LIG    1        1.175   1.783   0.000  0.00  0.00    +0.020 A 
ATOM     11  C   LIG    1       -0.013   1.076   0.008  0.00  0.00    +0.030 A 
ATOM     12  F   LIG    1        2.317   3.859   0.001  0.00  0.00    -0.130 F 
ATOM     13  C   LIG    1       -1.221   1.752   0.017  0.00  0.00    +0.100 A 
ATOM     14  F   LIG    1       -2.381   1.060   0.020  0.00  0.00    -0.130 F 
ENDBRANCH   5   7
BRANCH   1  15
ATOM     15  C   LIG    1       -4.129   6.245  -2.419  0.00  0.00    +0.300 C 
BRANCH  15  19
ATOM     16  C   LIG    1       -6.643   8.855  -1.865  0.00  0.00    +0.110 A 
ATOM     17  N   LIG    1       -7.316   7.829  -2.322  0.00  0.00    -0.370 NA
ATOM     18  O   LIG    1       -6.588   6.891  -2.551  0.00  0.00    +0.110 OA
ATOM     19  C   LIG    1       -5.309   7.170  -2.264  0.00  0.00    -0.020 A 
ATOM     20  C   LIG    1       -5.281   8.444  -1.813  0.00  0.00    -0.050 A 
BRANCH  16  24
ATOM     21  C   LIG    1       -9.809  12.591  -0.869  0.00  0.00    +0.360 C 
ATOM     22  N   LIG    1       -8.580  11.813  -1.044  0.00  0.00    -0.370 N 
ATOM     23  C   LIG    1       -8.509  10.531  -1.449  0.00  0.00    +0.280 A 
ATOM     24  C   LIG    1       -7.190  10.180  -1.479  0.00  0.00    -0.180 A 
ATOM     25  C   LIG    1       -6.442  11.306  -1.082  0.00  0.00    +0.270 A 
ATOM     26  N   LIG    1       -7.278  12.277  -0.824  0.00  0.00    -0.290 NA
ENDBRANCH  16  24
ENDBRANCH  15  19
ENDBRANCH   1  15
TORSDOF 4
