REMARK  Name = ZINCvU0000000B0G.0
REMARK                            x       y       z     vdW  Elec       q    Type
REMARK                         _______ _______ _______ _____ _____    ______ ____
ROOT
ATOM      1  S   LIG    1        5.474   5.366  -1.195  0.00  0.00    +0.050 S 
ENDROOT
BRANCH   1   2
ATOM      2  C   LIG    1        4.090   4.550  -0.471  0.00  0.00    +0.200 A 
ATOM      3  N   LIG    1        3.321   5.049   0.467  0.00  0.00    -0.470 NA
ATOM      4  C   LIG    1        2.355   4.161   0.782  0.00  0.00    +0.110 A 
ATOM      5  C   LIG    1        2.546   3.037  -0.006  0.00  0.00    +0.070 A 
ATOM      6  N   LIG    1        3.650   3.303  -0.799  0.00  0.00    -0.540 N 
ATOM      7  H   LIG    1        4.037   2.711  -1.463  0.00  0.00    +0.430 HD
BRANCH   5   8
ATOM      8  C   LIG    1        1.736   1.812  -0.005  0.00  0.00    -0.140 A 
ATOM      9  C   LIG    1        2.229   0.541  -0.016  0.00  0.00    +0.020 A 
ATOM     10  C   LIG    1        1.263  -0.444  -0.012  0.00  0.00    +0.020 A 
ATOM     11  C   LIG    1        0.002  -0.004   0.002  0.00  0.00    -0.040 A 
ATOM     12  S   LIG    1       -0.022   1.754   0.012  0.00  0.00    +0.170 S 
ENDBRANCH   5   8
BRANCH   4  13
ATOM     13  C   LIG    1        1.292   4.350   1.787  0.00  0.00    -0.110 A 
ATOM     14  C   LIG    1        1.427   5.025   2.948  0.00  0.00    +0.030 A 
ATOM     15  C   LIG    1        0.288   5.066   3.726  0.00  0.00    +0.010 A 
ATOM     16  C   LIG    1       -0.771   4.435   3.213  0.00  0.00    -0.060 A 
ATOM     17  S   LIG    1       -0.352   3.738   1.654  0.00  0.00    +0.130 S 
ENDBRANCH   4  13
ENDBRANCH   1   2
BRANCH   1  18
ATOM     18  C   LIG    1        5.433   6.927  -0.279  0.00  0.00    +0.100 C 
BRANCH  18  20
ATOM     19  O   LIG    1        7.318   7.425  -1.610  0.00  0.00    -0.440 OA
ATOM     20  C   LIG    1        6.561   7.812  -0.745  0.00  0.00    +0.440 C 
BRANCH  20  21
ATOM     21  C   LIG    1        6.743   9.140  -0.151  0.00  0.00    -0.260 A 
ATOM     22  C   LIG    1        5.963   9.714   0.841  0.00  0.00    +0.280 A 
ATOM     23  N   LIG    1        6.453  10.933   1.110  0.00  0.00    -0.530 N 
ATOM     24  H   LIG    1        6.093  11.551   1.766  0.00  0.00    +0.420 HD
ATOM     25  C   LIG    1        7.548  11.172   0.307  0.00  0.00    -0.060 A 
ATOM     26  C   LIG    1        7.752  10.077  -0.477  0.00  0.00    +0.120 A 
BRANCH  25  27
ATOM     27  C   LIG    1        8.359  12.396   0.303  0.00  0.00    +0.600 C 
ATOM     28  N   LIG    1        8.054  13.410   1.137  0.00  0.00    -0.620 N 
ATOM     29  C   LIG    1        6.938  13.426   2.093  0.00  0.00    +0.220 C 
ATOM     30  C   LIG    1        6.967  14.793   2.808  0.00  0.00    +0.040 C 
ATOM     31  C   LIG    1        7.746  15.689   1.810  0.00  0.00    +0.040 C 
ATOM     32  C   LIG    1        8.781  14.688   1.236  0.00  0.00    +0.260 C 
ATOM     33  O   LIG    1        9.307  12.494  -0.454  0.00  0.00    -0.520 OA
ENDBRANCH  25  27
ENDBRANCH  20  21
ENDBRANCH  18  20
ENDBRANCH   1  18
TORSDOF 7
