REMARK  Name = ZINCrH000004r6OP.0
REMARK                            x       y       z     vdW  Elec       q    Type
REMARK                         _______ _______ _______ _____ _____    ______ ____
ROOT
ATOM      1  C   LIG    1       -3.429   3.843   2.720  0.00  0.00    +0.560 C 
ATOM      2  N   LIG    1       -2.741   3.703   1.570  0.00  0.00    -0.730 N 
ATOM      3  H   LIG    1       -3.162   3.922   0.724  0.00  0.00    +0.400 HD
ATOM      4  O   LIG    1       -2.902   3.569   3.781  0.00  0.00    -0.520 OA
ENDROOT
BRANCH   1  11
ATOM      5  C   LIG    1       -4.979   3.866   5.160  0.00  0.00    +0.110 C 
ATOM      6  C   LIG    1       -5.584   4.345   3.866  0.00  0.00    +0.010 A 
ATOM      7  C   LIG    1       -6.886   4.804   3.843  0.00  0.00    +0.000 A 
ATOM      8  C   LIG    1       -7.451   5.239   2.660  0.00  0.00    +0.080 A 
ATOM      9  C   LIG    1       -6.705   5.223   1.479  0.00  0.00    -0.160 A 
ATOM     10  C   LIG    1       -5.388   4.767   1.496  0.00  0.00    +0.120 A 
ATOM     11  C   LIG    1       -4.825   4.329   2.693  0.00  0.00    -0.150 A 
BRANCH   9  12
ATOM     12  C   LIG    1       -7.311   5.689   0.214  0.00  0.00    +0.570 C 
ATOM     13  O   LIG    1       -6.661   5.674  -0.813  0.00  0.00    -0.540 OA
ATOM     14  N   LIG    1       -8.584   6.131   0.199  0.00  0.00    -0.850 N 
ATOM     15  H   LIG    1       -8.982   6.436  -0.632  0.00  0.00    +0.410 HD
ATOM     16  H   LIG    1       -9.103   6.143   1.018  0.00  0.00    +0.400 HD
ENDBRANCH   9  12
ENDBRANCH   1  11
BRANCH   2  17
ATOM     17  C   LIG    1       -1.358   3.221   1.597  0.00  0.00    +0.270 C 
BRANCH  17  18
ATOM     18  C   LIG    1       -0.813   3.155   0.169  0.00  0.00    +0.070 C 
BRANCH  18  19
ATOM     19  C   LIG    1        0.610   2.660   0.197  0.00  0.00    -0.080 A 
ATOM     20  C   LIG    1        1.653   3.562   0.301  0.00  0.00    +0.010 A 
ATOM     21  C   LIG    1        2.962   3.114   0.322  0.00  0.00    +0.020 A 
ATOM     22  C   LIG    1        3.233   1.764   0.239  0.00  0.00    +0.020 A 
ATOM     23  C   LIG    1        2.186   0.850   0.134  0.00  0.00    -0.040 A 
ATOM     24  C   LIG    1        0.870   1.306   0.113  0.00  0.00    +0.030 A 
BRANCH  23  25
ATOM     25  C   LIG    1        2.472  -0.603   0.044  0.00  0.00    -0.050 A 
ATOM     26  C   LIG    1        1.425  -1.517  -0.054  0.00  0.00    +0.010 A 
ATOM     27  C   LIG    1        1.696  -2.867  -0.143  0.00  0.00    +0.000 A 
ATOM     28  C   LIG    1        3.005  -3.315  -0.121  0.00  0.00    +0.000 A 
ATOM     29  C   LIG    1        4.048  -2.413  -0.018  0.00  0.00    +0.000 A 
ATOM     30  C   LIG    1        3.788  -1.060   0.065  0.00  0.00    +0.020 A 
ENDBRANCH  23  25
ENDBRANCH  18  19
ENDBRANCH  17  18
ENDBRANCH   2  17
TORSDOF 6
