REMARK  Name = ZINCrH00000No4KV.0
REMARK                            x       y       z     vdW  Elec       q    Type
REMARK                         _______ _______ _______ _____ _____    ______ ____
ROOT
ATOM      1  C   LIG    1        5.955  -1.811  -1.775  0.00  0.00    +0.280 C 
ENDROOT
BRANCH   1   2
ATOM      2  C   LIG    1        6.381  -1.427  -3.168  0.00  0.00    +0.160 A 
ATOM      3  N   LIG    1        5.665  -1.527  -4.261  0.00  0.00    -0.290 NA
ATOM      4  N   LIG    1        6.377  -1.097  -5.245  0.00  0.00    -0.080 NA
ATOM      5  N   LIG    1        7.532  -0.732  -4.809  0.00  0.00    -0.090 NA
ATOM      6  N   LIG    1        7.573  -0.920  -3.533  0.00  0.00    -0.290 N 
BRANCH   6   7
ATOM      7  C   LIG    1        8.705  -0.635  -2.648  0.00  0.00    +0.160 C 
ATOM      8  C   LIG    1        8.293   0.416  -1.616  0.00  0.00    +0.070 C 
ATOM      9  C   LIG    1        9.878  -0.105  -3.475  0.00  0.00    +0.080 C 
ATOM     10  C   LIG    1        9.127  -1.918  -1.930  0.00  0.00    +0.070 C 
ENDBRANCH   6   7
ENDBRANCH   1   2
BRANCH   1  11
ATOM     11  C   LIG    1        5.576  -3.293  -1.748  0.00  0.00    -0.040 C 
ATOM     12  C   LIG    1        4.388  -3.533  -2.682  0.00  0.00    +0.060 C 
ATOM     13  C   LIG    1        5.193  -3.696  -0.322  0.00  0.00    +0.050 C 
BRANCH  11  14
ATOM     14  C   LIG    1        6.768  -4.133  -2.212  0.00  0.00    +0.030 C 
BRANCH  14  15
ATOM     15  C   LIG    1        6.341  -5.597  -2.340  0.00  0.00    +0.210 C 
BRANCH  15  16
ATOM     16  C   LIG    1        7.487  -6.405  -2.787  0.00  0.00    +0.200 C 
ATOM     17  N   LIG    1        8.372  -7.028  -3.132  0.00  0.00    -0.430 NA
ENDBRANCH  15  16
ENDBRANCH  14  15
ENDBRANCH  11  14
ENDBRANCH   1  11
BRANCH   1  18
ATOM     18  N   LIG    1        4.796  -1.002  -1.377  0.00  0.00    -0.500 NA
ATOM     19  C   LIG    1        3.938  -0.707  -2.532  0.00  0.00    +0.210 C 
BRANCH  18  20
ATOM     20  C   LIG    1        5.222   0.235  -0.708  0.00  0.00    +0.210 C 
ATOM     21  C   LIG    1        5.889  -0.110   0.625  0.00  0.00    +0.070 C 
BRANCH  20  25
ATOM     22  C   LIG    1        2.121   4.186   0.116  0.00  0.00    +0.180 C 
ATOM     23  C   LIG    1        2.708   2.816  -0.102  0.00  0.00    -0.030 A 
ATOM     24  C   LIG    1        4.013   2.515  -0.306  0.00  0.00    -0.070 A 
ATOM     25  C   LIG    1        4.021   1.110  -0.457  0.00  0.00    +0.020 A 
ATOM     26  N   LIG    1        2.784   0.720  -0.334  0.00  0.00    -0.330 NA
ATOM     27  O   LIG    1        2.041   1.653  -0.137  0.00  0.00    +0.100 OA
ENDBRANCH  20  25
ENDBRANCH  18  20
ENDBRANCH   1  18
TORSDOF 9
