REMARK  Name = ZINCkj000005jAxy.0
REMARK                            x       y       z     vdW  Elec       q    Type
REMARK                         _______ _______ _______ _____ _____    ______ ____
ROOT
ATOM      1  C   LIG    1       -2.265   6.173   1.494  0.00  0.00    +0.030 C 
ATOM      2  C   LIG    1       -2.411   5.672   0.055  0.00  0.00    +0.250 C 
ENDROOT
BRANCH   2   3
ATOM      3  N   LIG    1       -2.432   4.207   0.047  0.00  0.00    -0.740 N 
ATOM      4  H   LIG    1       -3.278   3.734   0.053  0.00  0.00    +0.400 HD
BRANCH   3   5
ATOM      5  C   LIG    1       -1.236   3.495   0.032  0.00  0.00    +0.250 A 
ATOM      6  C   LIG    1       -0.009   4.157   0.024  0.00  0.00    -0.090 A 
ATOM      7  C   LIG    1        1.159   3.419   0.009  0.00  0.00    +0.320 A 
ATOM      8  N   LIG    1        1.128   2.102   0.003  0.00  0.00    -0.490 NA
ATOM      9  C   LIG    1       -0.017   1.428   0.010  0.00  0.00    +0.240 A 
ATOM     10  C   LIG    1       -1.235   2.101   0.019  0.00  0.00    -0.050 A 
BRANCH   9  11
ATOM     11  C   LIG    1        0.002  -0.004   0.002  0.00  0.00    +0.250 C 
ATOM     12  N   LIG    1        0.018  -1.140  -0.004  0.00  0.00    -0.370 NA
ENDBRANCH   9  11
ENDBRANCH   3   5
ENDBRANCH   2   3
BRANCH   2  13
ATOM     13  C   LIG    1       -3.717   6.203  -0.539  0.00  0.00    +0.040 C 
BRANCH  13  14
ATOM     14  C   LIG    1       -3.804   5.808  -2.015  0.00  0.00    +0.250 C 
BRANCH  14  15
ATOM     15  N   LIG    1       -5.058   6.318  -2.585  0.00  0.00    -0.390 N 
ATOM     16  C   LIG    1       -6.197   5.654  -1.936  0.00  0.00    +0.270 C 
ATOM     17  C   LIG    1       -7.503   6.199  -2.517  0.00  0.00    +0.200 C 
ATOM     18  N   LIG    1       -7.532   5.954  -3.966  0.00  0.00    -0.540 NA
ATOM     19  C   LIG    1       -6.384   6.591  -4.626  0.00  0.00    +0.200 C 
ATOM     20  C   LIG    1       -8.798   6.412  -4.552  0.00  0.00    +0.220 C 
ATOM     21  C   LIG    1       -5.087   6.043  -4.028  0.00  0.00    +0.280 C 
ATOM     22  H   LIG    1       -5.117   7.313  -2.432  0.00  0.00    +0.420 HD
ENDBRANCH  14  15
ENDBRANCH  13  14
ENDBRANCH   2  13
TORSDOF 6
