REMARK  Name = ZINCtV00000L6l8C.0
REMARK                            x       y       z     vdW  Elec       q    Type
REMARK                         _______ _______ _______ _____ _____    ______ ____
ROOT
ATOM      1  C   LIG    1       -0.916   6.337   0.184  0.00  0.00    +0.160 A 
ATOM      2  N   LIG    1       -1.703   5.297   0.036  0.00  0.00    -0.280 NA
ATOM      3  N   LIG    1       -1.004   4.228  -0.110  0.00  0.00    -0.240 NA
ATOM      4  C   LIG    1        0.277   4.518  -0.063  0.00  0.00    +0.250 A 
ATOM      5  N   LIG    1        0.375   5.879   0.133  0.00  0.00    -0.410 N 
ENDROOT
BRANCH   4   6
ATOM      6  C   LIG    1        1.398   3.567  -0.191  0.00  0.00    -0.010 A 
ATOM      7  C   LIG    1        1.513   2.478   0.574  0.00  0.00    -0.090 A 
ATOM      8  S   LIG    1        2.953   1.565   0.168  0.00  0.00    +0.180 S 
ATOM      9  C   LIG    1        3.413   2.707  -1.088  0.00  0.00    -0.140 A 
ATOM     10  C   LIG    1        4.516   2.707  -1.949  0.00  0.00    +0.050 A 
ATOM     11  C   LIG    1        4.679   3.715  -2.869  0.00  0.00    +0.050 A 
ATOM     12  C   LIG    1        3.749   4.742  -2.950  0.00  0.00    +0.020 A 
ATOM     13  C   LIG    1        2.661   4.760  -2.115  0.00  0.00    +0.050 A 
ATOM     14 CL   LIG    1        0.382   2.025   1.811  0.00  0.00    +0.020 Cl
ATOM     15  C   LIG    1        2.475   3.737  -1.165  0.00  0.00    -0.050 A 
ENDBRANCH   4   6
BRANCH   5  16
ATOM     16  C   LIG    1        1.549   6.636   0.251  0.00  0.00    +0.100 A 
ATOM     17  C   LIG    1        2.402   6.434   1.327  0.00  0.00    +0.040 A 
ATOM     18  C   LIG    1        3.559   7.179   1.439  0.00  0.00    +0.040 A 
ATOM     19  C   LIG    1        3.865   8.132   0.485  0.00  0.00    +0.030 A 
ATOM     20  C   LIG    1        3.014   8.340  -0.586  0.00  0.00    +0.040 A 
ATOM     21  C   LIG    1        1.858   7.595  -0.705  0.00  0.00    +0.030 A 
ENDBRANCH   5  16
BRANCH   1  22
ATOM     22  S   LIG    1       -1.425   8.008   0.414  0.00  0.00    +0.070 S 
BRANCH  22  23
ATOM     23  C   LIG    1       -3.222   7.797   0.376  0.00  0.00    +0.080 C 
BRANCH  23  24
ATOM     24  C   LIG    1       -3.889   9.136   0.559  0.00  0.00    +0.380 C 
ATOM     25  O   LIG    1       -3.218  10.130   0.701  0.00  0.00    -0.430 OA
BRANCH  24  27
ATOM     26  C   LIG    1       -5.807  10.694   0.767  0.00  0.00    +0.050 C 
ATOM     27  C   LIG    1       -5.392   9.235   0.566  0.00  0.00    -0.100 C 
ATOM     28  C   LIG    1       -5.955   8.383   1.705  0.00  0.00    +0.060 C 
ATOM     29  C   LIG    1       -5.942   8.728  -0.769  0.00  0.00    +0.060 C 
ENDBRANCH  24  27
ENDBRANCH  23  24
ENDBRANCH  22  23
ENDBRANCH   1  22
TORSDOF 6
