REMARK  Name = ZINCqH0000050wua.0
REMARK                            x       y       z     vdW  Elec       q    Type
REMARK                         _______ _______ _______ _____ _____    ______ ____
ROOT
ATOM      1  N   LIG    1       -1.156  -0.694   0.009  0.00  0.00    -0.640 N 
ATOM      2  H   LIG    1       -2.002  -0.220   0.020  0.00  0.00    +0.430 HD
ATOM      3  C   LIG    1        0.002  -0.004   0.002  0.00  0.00    +0.510 C 
ATOM      4  O   LIG    1        1.060  -0.596  -0.011  0.00  0.00    -0.460 OA
ENDROOT
BRANCH   1  11
ATOM      5  C   LIG    1       -1.248  -8.313  -0.031  0.00  0.00    +0.110 C 
ATOM      6  C   LIG    1       -0.888  -6.850  -0.027  0.00  0.00    -0.070 A 
ATOM      7  C   LIG    1        0.445  -6.464  -0.038  0.00  0.00    +0.040 A 
ATOM      8  C   LIG    1        0.787  -5.135  -0.034  0.00  0.00    +0.080 A 
ATOM      9  C   LIG    1       -0.213  -4.139  -0.018  0.00  0.00    +0.100 A 
ATOM     10  N   LIG    1       -0.070  -2.800  -0.018  0.00  0.00    -0.470 NA
ATOM     11  C   LIG    1       -1.137  -2.079   0.002  0.00  0.00    +0.340 A 
ATOM     12  S   LIG    1       -2.567  -3.102   0.010  0.00  0.00    +0.060 S 
ATOM     13  C   LIG    1       -1.552  -4.543  -0.007  0.00  0.00    -0.170 A 
ATOM     14  C   LIG    1       -1.881  -5.896  -0.012  0.00  0.00    +0.060 A 
ENDBRANCH   1  11
BRANCH   3  15
ATOM     15  C   LIG    1       -0.018   1.503   0.010  0.00  0.00    +0.080 C 
BRANCH  15  16
ATOM     16  C   LIG    1        1.417   2.032  -0.001  0.00  0.00    +0.030 C 
BRANCH  16  17
ATOM     17  C   LIG    1        1.396   3.562   0.008  0.00  0.00    +0.290 C 
BRANCH  17  18
ATOM     18  N   LIG    1        2.771   4.069  -0.003  0.00  0.00    -1.000 NA
ATOM     19  C   LIG    1        3.508   4.212   1.255  0.00  0.00    +0.300 C 
BRANCH  18  20
ATOM     20  S   LIG    1        3.491   4.481  -1.436  0.00  0.00    +2.710 S 
ATOM     21  O   LIG    1        2.812   3.752  -2.450  0.00  0.00    -0.940 OA
ATOM     22  O   LIG    1        4.892   4.392  -1.221  0.00  0.00    -0.940 OA
BRANCH  20  23
ATOM     23  C   LIG    1        3.139   6.183  -1.727  0.00  0.00    -0.800 A 
ATOM     24  C   LIG    1        3.892   7.205  -1.318  0.00  0.00    +0.170 A 
ATOM     25  C   LIG    1        3.414   8.457  -1.665  0.00  0.00    -0.010 A 
ATOM     26  C   LIG    1        2.273   8.452  -2.355  0.00  0.00    +0.010 A 
ATOM     27  S   LIG    1        1.744   6.793  -2.607  0.00  0.00    +0.210 S 
ENDBRANCH  20  23
ENDBRANCH  18  20
ENDBRANCH  17  18
ENDBRANCH  16  17
ENDBRANCH  15  16
ENDBRANCH   3  15
TORSDOF 7
