REMARK  Name = ZINCvU000000075S.0
REMARK                            x       y       z     vdW  Elec       q    Type
REMARK                         _______ _______ _______ _____ _____    ______ ____
ROOT
ATOM      1  C   LIG    1        0.076   1.429  -0.383  0.00  0.00    +0.190 C 
ENDROOT
BRANCH   1   2
ATOM      2  C   LIG    1        1.334   1.736   0.388  0.00  0.00    -0.080 A 
ATOM      3  C   LIG    1        1.367   1.556   1.758  0.00  0.00    +0.070 A 
ATOM      4  C   LIG    1        2.522   1.833   2.464  0.00  0.00    +0.000 A 
ATOM      5  C   LIG    1        3.643   2.299   1.801  0.00  0.00    +0.010 A 
ATOM      6  C   LIG    1        3.608   2.483   0.431  0.00  0.00    +0.000 A 
ATOM      7  C   LIG    1        2.454   2.202  -0.275  0.00  0.00    +0.010 A 
ENDBRANCH   1   2
BRANCH   1  10
ATOM      8  N   LIG    1        0.285  -0.702  -1.621  0.00  0.00    -0.670 N 
ATOM      9  H   LIG    1        0.606  -0.193  -2.382  0.00  0.00    +0.410 HD
ATOM     10  C   LIG    1       -0.093  -0.064  -0.496  0.00  0.00    +0.520 C 
ATOM     11  O   LIG    1       -0.568  -0.692   0.427  0.00  0.00    -0.490 OA
BRANCH   8  16
ATOM     12  C   LIG    1        0.394  -4.246  -0.637  0.00  0.00    +0.150 A 
ATOM     13  C   LIG    1        0.071  -4.860  -1.839  0.00  0.00    -0.090 A 
ATOM     14  C   LIG    1       -0.180  -4.095  -2.963  0.00  0.00    +0.070 A 
ATOM     15  C   LIG    1       -0.116  -2.717  -2.891  0.00  0.00    -0.050 A 
ATOM     16  C   LIG    1        0.213  -2.097  -1.692  0.00  0.00    +0.190 A 
ATOM     17  C   LIG    1        0.466  -2.864  -0.563  0.00  0.00    -0.010 A 
BRANCH  12  19
ATOM     18  C   LIG    1        0.548  -6.418   0.317  0.00  0.00    +0.250 C 
ATOM     19  O   LIG    1        0.640  -5.000   0.466  0.00  0.00    -0.310 OA
ENDBRANCH  12  19
ENDBRANCH   8  16
ENDBRANCH   1  10
BRANCH   1  20
ATOM     20  N   LIG    1       -1.080   2.001   0.320  0.00  0.00    -0.490 NA
ATOM     21  C   LIG    1       -2.332   1.382  -0.135  0.00  0.00    +0.200 C 
BRANCH  20  22
ATOM     22  C   LIG    1       -1.126   3.460   0.158  0.00  0.00    +0.230 C 
ATOM     23  C   LIG    1       -0.015   4.101   0.993  0.00  0.00    +0.080 C 
BRANCH  22  24
ATOM     24  C   LIG    1       -2.463   3.976   0.623  0.00  0.00    +0.090 A 
ATOM     25  N   LIG    1       -3.042   3.606   1.702  0.00  0.00    -0.430 NA
ATOM     26  C   LIG    1       -4.237   4.154   1.996  0.00  0.00    +0.080 A 
ATOM     27  C   LIG    1       -5.080   3.935   3.104  0.00  0.00    +0.080 A 
ATOM     28  C   LIG    1       -6.266   4.596   3.209  0.00  0.00    +0.030 A 
ATOM     29  C   LIG    1       -6.667   5.495   2.231  0.00  0.00    +0.040 A 
ATOM     30  C   LIG    1       -5.863   5.729   1.138  0.00  0.00    +0.060 A 
ATOM     31  C   LIG    1       -4.647   5.062   1.013  0.00  0.00    -0.180 A 
ATOM     32  S   LIG    1       -3.399   5.121  -0.228  0.00  0.00    +0.090 S 
ENDBRANCH  22  24
ENDBRANCH  20  22
ENDBRANCH   1  20
TORSDOF 7
