REMARK  Name = ZINCrH000004jayt.0
REMARK                            x       y       z     vdW  Elec       q    Type
REMARK                         _______ _______ _______ _____ _____    ______ ____
ROOT
ATOM      1  C   LIG    1        4.946   5.156  -0.870  0.00  0.00    +0.010 C 
ATOM      2  C   LIG    1        5.610   5.270  -2.262  0.00  0.00    +0.080 C 
ATOM      3  C   LIG    1        5.168   6.623  -2.775  0.00  0.00    +0.520 C 
ATOM      4  N   LIG    1        4.690   7.367  -1.762  0.00  0.00    -0.600 N 
ATOM      5  O   LIG    1        5.234   6.984  -3.931  0.00  0.00    -0.520 OA
ATOM      6  C   LIG    1        4.757   6.641  -0.489  0.00  0.00    +0.300 C 
ENDROOT
BRANCH   1  15
ATOM      7  C   LIG    1        0.332   0.560  -1.731  0.00  0.00    -0.100 A 
ATOM      8  C   LIG    1        0.050   1.868  -1.382  0.00  0.00    +0.040 A 
ATOM      9  C   LIG    1        1.072   2.779  -1.220  0.00  0.00    +0.020 A 
ATOM     10  C   LIG    1        2.400   2.387  -1.400  0.00  0.00    +0.140 A 
ATOM     11  C   LIG    1        2.672   1.072  -1.745  0.00  0.00    -0.130 A 
ATOM     12  C   LIG    1        4.170   0.911  -1.880  0.00  0.00    +0.090 C 
ATOM     13  C   LIG    1        4.739   2.304  -1.568  0.00  0.00    +0.280 C 
ATOM     14  N   LIG    1        3.571   3.143  -1.286  0.00  0.00    -0.550 N 
ATOM     15  C   LIG    1        3.618   4.450  -0.963  0.00  0.00    +0.530 C 
ATOM     16  O   LIG    1        2.591   5.059  -0.747  0.00  0.00    -0.500 OA
ATOM     17  C   LIG    1        1.645   0.163  -1.907  0.00  0.00    +0.050 A 
BRANCH   7  19
ATOM     18  C   LIG    1       -1.085  -1.117  -0.579  0.00  0.00    +0.030 C 
ATOM     19  C   LIG    1       -0.788  -0.431  -1.914  0.00  0.00    +0.060 C 
ENDBRANCH   7  19
ENDBRANCH   1  15
BRANCH   4  20
ATOM     20  C   LIG    1        4.169   8.729  -1.911  0.00  0.00    +0.290 C 
ATOM     21  C   LIG    1        2.761   8.803  -1.318  0.00  0.00    +0.040 C 
BRANCH  20  22
ATOM     22  C   LIG    1        5.071   9.694  -1.186  0.00  0.00    -0.100 A 
ATOM     23  C   LIG    1        5.375   9.488   0.147  0.00  0.00    +0.010 A 
ATOM     24  C   LIG    1        6.206  10.370   0.810  0.00  0.00    +0.000 A 
ATOM     25  C   LIG    1        6.726  11.464   0.144  0.00  0.00    +0.000 A 
ATOM     26  C   LIG    1        6.418  11.673  -1.187  0.00  0.00    +0.000 A 
ATOM     27  C   LIG    1        5.591  10.788  -1.852  0.00  0.00    +0.010 A 
ENDBRANCH  20  22
ENDBRANCH   4  20
TORSDOF 4
