REMARK  Name = ZINCvU00000009Vi.0
REMARK                            x       y       z     vdW  Elec       q    Type
REMARK                         _______ _______ _______ _____ _____    ______ ____
ROOT
ATOM      1  O   LIG    1        3.691   7.425   3.169  0.00  0.00    -0.520 OA
ATOM      2  C   LIG    1        3.337   8.047   2.190  0.00  0.00    +0.540 C 
ATOM      3  N   LIG    1        2.699   7.416   1.185  0.00  0.00    -0.600 N 
ATOM      4  C   LIG    1        2.264   8.156  -0.007  0.00  0.00    +0.270 C 
ATOM      5  C   LIG    1        2.822   7.458  -1.252  0.00  0.00    +0.030 C 
ATOM      6  C   LIG    1        2.402   5.986  -1.238  0.00  0.00    +0.040 C 
ATOM      7  C   LIG    1        2.982   5.300   0.002  0.00  0.00    +0.070 C 
ATOM      8  C   LIG    1        2.427   5.974   1.261  0.00  0.00    +0.320 C 
ENDROOT
BRANCH   7   9
ATOM      9  C   LIG    1        2.595   3.844  -0.002  0.00  0.00    +0.100 A 
ATOM     10  N   LIG    1        1.388   3.420   0.008  0.00  0.00    -0.460 NA
ATOM     11  C   LIG    1        1.189   2.088   0.002  0.00  0.00    +0.080 A 
ATOM     12  C   LIG    1       -0.016   1.358   0.009  0.00  0.00    +0.080 A 
ATOM     13  C   LIG    1        0.002  -0.004   0.002  0.00  0.00    +0.030 A 
ATOM     14  C   LIG    1        1.204  -0.698  -0.014  0.00  0.00    +0.040 A 
ATOM     15  C   LIG    1        2.397  -0.011  -0.021  0.00  0.00    +0.060 A 
ATOM     16  C   LIG    1        2.397   1.382  -0.013  0.00  0.00    -0.180 A 
ATOM     17  S   LIG    1        3.712   2.554  -0.020  0.00  0.00    +0.110 S 
ENDBRANCH   7   9
BRANCH   2  18
ATOM     18  C   LIG    1        3.610   9.526   2.098  0.00  0.00    +0.110 C 
BRANCH  18  19
ATOM     19  S   LIG    1        4.473  10.075   3.592  0.00  0.00    +0.090 S 
BRANCH  19  20
ATOM     20  C   LIG    1        4.660  11.788   3.225  0.00  0.00    +0.150 A 
ATOM     21  N   LIG    1        4.250  12.404   2.140  0.00  0.00    -0.290 NA
ATOM     22  N   LIG    1        4.551  13.652   2.205  0.00  0.00    -0.280 NA
ATOM     23  C   LIG    1        5.165  13.908   3.326  0.00  0.00    +0.400 A 
ATOM     24  N   LIG    1        5.253  12.730   4.020  0.00  0.00    -0.420 N 
BRANCH  24  25
ATOM     25  C   LIG    1        5.832  12.532   5.282  0.00  0.00    +0.120 A 
ATOM     26  C   LIG    1        5.128  11.861   6.272  0.00  0.00    +0.040 A 
ATOM     27  C   LIG    1        5.702  11.662   7.513  0.00  0.00    +0.070 A 
ATOM     28  C   LIG    1        6.973  12.140   7.772  0.00  0.00    +0.050 A 
ATOM     29  C   LIG    1        7.676  12.813   6.789  0.00  0.00    -0.020 A 
ATOM     30 CL   LIG    1        9.273  13.411   7.118  0.00  0.00    -0.050 Cl
ATOM     31  C   LIG    1        7.108  13.010   5.544  0.00  0.00    +0.040 A 
ENDBRANCH  24  25
ENDBRANCH  19  20
ENDBRANCH  18  19
ENDBRANCH   2  18
TORSDOF 5
