REMARK  Name = ZINCrg00000bvCaJ.0
REMARK                            x       y       z     vdW  Elec       q    Type
REMARK                         _______ _______ _______ _____ _____    ______ ____
ROOT
ATOM      1  C   LIG    1       -1.240   7.099  -0.877  0.00  0.00    +0.520 C 
ATOM      2  N   LIG    1       -2.346   7.803  -1.190  0.00  0.00    -0.610 N 
ATOM      3  C   LIG    1       -3.658   7.413  -0.656  0.00  0.00    +0.270 C 
ATOM      4  C   LIG    1       -4.637   7.255  -1.824  0.00  0.00    +0.030 C 
ATOM      5  C   LIG    1       -4.653   8.543  -2.650  0.00  0.00    -0.010 C 
ATOM      6  C   LIG    1       -3.257   8.801  -3.222  0.00  0.00    +0.240 C 
ATOM      7  C   LIG    1       -5.655   8.401  -3.797  0.00  0.00    +0.030 C 
ATOM      8  C   LIG    1       -2.261   8.980  -2.066  0.00  0.00    +0.280 C 
ATOM      9  O   LIG    1       -0.151   7.482  -1.250  0.00  0.00    -0.510 OA
ENDROOT
BRANCH   6  10
ATOM     10  N   LIG    1       -2.850   7.663  -4.050  0.00  0.00    -0.720 N 
ATOM     11  H   LIG    1       -3.232   6.786  -3.891  0.00  0.00    +0.400 HD
ATOM     12  C   LIG    1       -1.946   7.835  -5.034  0.00  0.00    +0.500 C 
ATOM     13  O   LIG    1       -1.468   8.932  -5.234  0.00  0.00    -0.520 OA
BRANCH  12  14
ATOM     14  C   LIG    1       -1.527   6.665  -5.886  0.00  0.00    +0.230 C 
ATOM     15  C   LIG    1       -0.434   5.843  -5.167  0.00  0.00    +0.070 C 
ATOM     16  C   LIG    1        0.859   6.468  -5.740  0.00  0.00    +0.060 C 
ATOM     17  C   LIG    1        0.433   7.044  -7.073  0.00  0.00    +0.530 C 
ATOM     18  O   LIG    1        1.190   7.373  -7.961  0.00  0.00    -0.530 OA
ATOM     19  N   LIG    1       -0.907   7.138  -7.130  0.00  0.00    -0.710 N 
ATOM     20  H   LIG    1       -1.400   7.474  -7.894  0.00  0.00    +0.410 HD
ENDBRANCH  12  14
ENDBRANCH   6  10
BRANCH   1  22
ATOM     21  C   LIG    1       -1.673   6.193   1.391  0.00  0.00    +0.060 C 
ATOM     22  C   LIG    1       -1.356   5.836  -0.063  0.00  0.00    +0.170 C 
BRANCH  22  23
ATOM     23  O   LIG    1       -0.122   5.118  -0.119  0.00  0.00    -0.280 OA
BRANCH  23  24
ATOM     24  C   LIG    1       -0.178   3.777   0.092  0.00  0.00    +0.130 A 
ATOM     25  C   LIG    1       -1.377   3.181   0.458  0.00  0.00    -0.080 A 
ATOM     26  C   LIG    1       -1.431   1.817   0.672  0.00  0.00    +0.050 A 
ATOM     27  C   LIG    1       -0.293   1.046   0.522  0.00  0.00    -0.040 A 
ATOM     28  C   LIG    1        0.903   1.639   0.164  0.00  0.00    +0.050 A 
ATOM     29  C   LIG    1        0.962   3.001  -0.057  0.00  0.00    -0.020 A 
ENDBRANCH  23  24
ENDBRANCH  22  23
ENDBRANCH   1  22
TORSDOF 5
