REMARK  Name = ZINCpk00000KfKIS.0
REMARK                            x       y       z     vdW  Elec       q    Type
REMARK                         _______ _______ _______ _____ _____    ______ ____
ROOT
ATOM      1  C   LIG    1        1.274   1.687  -0.001  0.00  0.00    +0.160 A 
ATOM      2  N   LIG    1        1.998   0.607  -0.014  0.00  0.00    -0.350 NA
ATOM      3  O   LIG    1        1.286  -0.375  -0.012  0.00  0.00    +0.090 OA
ATOM      4  C   LIG    1        0.002  -0.004   0.002  0.00  0.00    +0.180 A 
ATOM      5  N   LIG    1       -0.016   1.307   0.009  0.00  0.00    -0.440 NA
ENDROOT
BRANCH   1   6
ATOM      6  C   LIG    1        1.787   3.104   0.002  0.00  0.00    +0.350 C 
BRANCH   6   7
ATOM      7  O   LIG    1        1.962   3.544   1.350  0.00  0.00    -0.310 OA
BRANCH   7  12
ATOM      8  F   LIG    1        3.817   8.647   2.077  0.00  0.00    -0.140 F 
ATOM      9  C   LIG    1        3.360   7.388   1.898  0.00  0.00    +0.060 A 
ATOM     10  C   LIG    1        3.083   6.590   2.995  0.00  0.00    +0.040 A 
ATOM     11  C   LIG    1        2.615   5.303   2.813  0.00  0.00    +0.020 A 
ATOM     12  C   LIG    1        2.423   4.811   1.530  0.00  0.00    +0.120 A 
ATOM     13  C   LIG    1        2.705   5.610   0.432  0.00  0.00    -0.040 A 
ATOM     14  C   LIG    1        3.168   6.898   0.617  0.00  0.00    +0.030 A 
ENDBRANCH   7  12
ENDBRANCH   6   7
ENDBRANCH   1   6
BRANCH   4  15
ATOM     15  C   LIG    1       -1.196  -0.918   0.008  0.00  0.00    +0.360 C 
BRANCH  15  16
ATOM     16  N   LIG    1       -1.598  -1.207  -1.375  0.00  0.00    -0.660 NA
ATOM     17  H   LIG    1       -0.830  -1.598  -1.901  0.00  0.00    +0.350 HD
BRANCH  16  18
ATOM     18  C   LIG    1       -2.766  -2.098  -1.409  0.00  0.00    +0.180 C 
ATOM     19  C   LIG    1       -3.526  -1.894  -2.723  0.00  0.00    +0.060 C 
ATOM     20  C   LIG    1       -4.860  -2.648  -2.658  0.00  0.00    +0.170 C 
ATOM     21  C   LIG    1       -4.585  -4.051  -2.175  0.00  0.00    +0.280 A 
ATOM     22  N   LIG    1       -5.369  -5.090  -2.245  0.00  0.00    -0.540 NA
ATOM     23  C   LIG    1       -4.761  -6.150  -1.708  0.00  0.00    +0.420 A 
ATOM     24  N   LIG    1       -3.574  -5.793  -1.286  0.00  0.00    -0.320 NA
ATOM     25  N   LIG    1       -3.440  -4.433  -1.578  0.00  0.00    -0.380 N 
ATOM     26  C   LIG    1       -2.301  -3.555  -1.308  0.00  0.00    +0.290 C 
ENDBRANCH  16  18
ENDBRANCH  15  16
ENDBRANCH   4  15
TORSDOF 6
