REMARK  Name = ZINCrD00000hQ6Rq.0
REMARK                            x       y       z     vdW  Elec       q    Type
REMARK                         _______ _______ _______ _____ _____    ______ ____
ROOT
ATOM      1  C   LIG    1        1.005   6.259   0.025  0.00  0.00    +0.350 C 
ATOM      2  N   LIG    1        1.514   4.886   0.013  0.00  0.00    -0.510 N 
ATOM      3  C   LIG    1        2.846   4.673  -0.001  0.00  0.00    +0.570 A 
ATOM      4  C   LIG    1        3.347   3.286  -0.012  0.00  0.00    -0.160 A 
ATOM      5  C   LIG    1        4.713   3.012  -0.027  0.00  0.00    +0.120 A 
ATOM      6  C   LIG    1        5.145   1.701  -0.035  0.00  0.00    +0.020 A 
ATOM      7  C   LIG    1        4.229   0.662  -0.032  0.00  0.00    +0.090 A 
ATOM      8  C   LIG    1        2.872   0.921  -0.019  0.00  0.00    +0.060 A 
ATOM      9  C   LIG    1        2.421   2.232  -0.008  0.00  0.00    +0.160 A 
ATOM     10  N   LIG    1        1.057   2.520   0.005  0.00  0.00    -0.450 N 
ATOM     11  C   LIG    1       -0.021   1.708   0.011  0.00  0.00    +0.470 A 
ATOM     12  N   LIG    1       -1.120   2.489   0.020  0.00  0.00    -0.360 N 
ATOM     13  N   LIG    1       -0.687   3.821   0.028  0.00  0.00    -0.280 NA
ATOM     14  S   LIG    1        0.002  -0.004   0.002  0.00  0.00    -0.510 S 
ATOM     15  O   LIG    1        3.621   5.610  -0.004  0.00  0.00    -0.480 OA
ATOM     16  C   LIG    1        0.619   3.825   0.016  0.00  0.00    +0.500 A 
ENDROOT
BRANCH  12  17
ATOM     17  C   LIG    1       -2.511   2.030   0.023  0.00  0.00    +0.530 C 
BRANCH  17  18
ATOM     18  N   LIG    1       -3.083   2.209   1.364  0.00  0.00    -0.540 NA
ATOM     19  C   LIG    1       -2.478   3.361   2.045  0.00  0.00    +0.170 C 
ATOM     20  C   LIG    1       -2.989   3.429   3.487  0.00  0.00    +0.020 C 
ATOM     21  C   LIG    1       -4.514   3.560   3.477  0.00  0.00    +0.020 C 
ATOM     22  C   LIG    1       -5.115   2.373   2.720  0.00  0.00    +0.010 C 
ATOM     23  C   LIG    1       -6.636   2.520   2.659  0.00  0.00    +0.030 C 
ATOM     24  C   LIG    1       -6.996   3.816   1.930  0.00  0.00    +0.000 C 
ATOM     25  C   LIG    1       -6.430   3.775   0.509  0.00  0.00    +0.010 C 
ATOM     26  C   LIG    1       -4.908   3.633   0.570  0.00  0.00    -0.030 C 
ATOM     27  C   LIG    1       -4.545   2.338   1.300  0.00  0.00    +0.180 C 
ENDBRANCH  17  18
ENDBRANCH  12  17
TORSDOF 2
