REMARK  Name = ZINCrD00000c63FK.0
REMARK                            x       y       z     vdW  Elec       q    Type
REMARK                         _______ _______ _______ _____ _____    ______ ____
ROOT
ATOM      1  C   LIG    1       -3.104  -2.539  -0.443  0.00  0.00    +0.200 C 
ATOM      2  C   LIG    1       -4.427  -3.092  -1.013  0.00  0.00    +0.040 C 
ATOM      3  C   LIG    1       -5.446  -1.972  -0.675  0.00  0.00    +0.040 C 
ATOM      4  C   LIG    1       -4.582  -0.701  -0.845  0.00  0.00    +0.230 C 
ATOM      5  N   LIG    1       -3.247  -1.079  -0.346  0.00  0.00    -0.600 N 
ATOM      6  C   LIG    1       -2.315  -0.228   0.126  0.00  0.00    +0.530 C 
ATOM      7  O   LIG    1       -1.343  -0.656   0.711  0.00  0.00    -0.520 OA
ENDROOT
BRANCH   6   8
ATOM      8  C   LIG    1       -2.481   1.257  -0.071  0.00  0.00    +0.110 C 
ATOM      9  C   LIG    1       -1.619   1.999   0.946  0.00  0.00    +0.090 C 
ATOM     10  C   LIG    1       -1.869   1.440   2.349  0.00  0.00    +0.130 C 
ATOM     11  S   LIG    1       -3.602   1.740   2.804  0.00  0.00    -0.260 S 
ATOM     12  C   LIG    1       -4.498   1.018   1.393  0.00  0.00    +0.100 C 
ATOM     13  C   LIG    1       -3.953   1.625   0.097  0.00  0.00    +0.030 C 
BRANCH   8  14
ATOM     14  O   LIG    1       -2.057   1.605  -1.391  0.00  0.00    -0.340 OA
BRANCH  14  15
ATOM     15  C   LIG    1       -2.894   1.087  -2.426  0.00  0.00    +0.160 C 
ATOM     16  C   LIG    1       -2.305   1.452  -3.790  0.00  0.00    +0.040 C 
ENDBRANCH  14  15
ENDBRANCH   8  14
ENDBRANCH   6   8
BRANCH   1  17
ATOM     17  C   LIG    1       -1.947  -2.887  -1.381  0.00  0.00    +0.280 C 
BRANCH  17  19
ATOM     18  C   LIG    1       -0.132  -1.263  -1.288  0.00  0.00    +0.540 C 
ATOM     19  N   LIG    1       -0.691  -2.394  -0.811  0.00  0.00    -0.610 N 
ATOM     20  C   LIG    1       -0.041  -3.130   0.276  0.00  0.00    +0.280 C 
ATOM     21  O   LIG    1       -0.699  -0.623  -2.148  0.00  0.00    -0.540 OA
BRANCH  18  22
ATOM     22  C   LIG    1        1.196  -0.795  -0.752  0.00  0.00    +0.010 C 
BRANCH  22  23
ATOM     23  C   LIG    1        2.294  -1.764  -1.194  0.00  0.00    +0.000 C 
ATOM     24  C   LIG    1        3.560  -1.509  -0.372  0.00  0.00    +0.010 C 
ENDBRANCH  22  23
BRANCH  22  25
ATOM     25  C   LIG    1        1.500   0.603  -1.294  0.00  0.00    +0.080 C 
BRANCH  25  27
ATOM     26  C   LIG    1        3.748   1.556  -1.312  0.00  0.00    +0.000 C 
ATOM     27  C   LIG    1        2.722   1.154  -0.604  0.00  0.00    -0.030 C 
ENDBRANCH  25  27
ENDBRANCH  22  25
ENDBRANCH  18  22
ENDBRANCH  17  19
ENDBRANCH   1  17
TORSDOF 9
