REMARK  Name = ZINCrD00000lasb5.0
REMARK                            x       y       z     vdW  Elec       q    Type
REMARK                         _______ _______ _______ _____ _____    ______ ____
ROOT
ATOM      1  C   LIG    1       -2.508   0.985   0.019  0.00  0.00    +0.530 C 
ATOM      2  O   LIG    1       -3.571   1.573   0.028  0.00  0.00    -0.510 OA
ENDROOT
BRANCH   1   8
ATOM      3  N   LIG    1        2.186   3.968   0.002  0.00  0.00    -0.380 N 
ATOM      4  N   LIG    1        1.659   5.262   0.013  0.00  0.00    -0.230 NA
ATOM      5  C   LIG    1        0.358   5.216   0.025  0.00  0.00    +0.310 A 
ATOM      6  C   LIG    1       -0.034   3.809   0.022  0.00  0.00    -0.240 A 
ATOM      7  C   LIG    1       -1.260   3.142   0.030  0.00  0.00    +0.240 A 
ATOM      8  C   LIG    1       -1.244   1.746   0.018  0.00  0.00    -0.230 A 
ATOM      9  C   LIG    1       -0.013   1.076   0.008  0.00  0.00    +0.410 A 
ATOM     10  N   LIG    1        1.123   1.734   0.001  0.00  0.00    -0.510 NA
ATOM     11  C   LIG    1        1.163   3.062   0.007  0.00  0.00    +0.340 A 
BRANCH   3  13
ATOM     12  C   LIG    1        4.261   4.227  -1.267  0.00  0.00    +0.050 C 
ATOM     13  C   LIG    1        3.613   3.634  -0.014  0.00  0.00    +0.270 C 
ATOM     14  C   LIG    1        4.286   4.214   1.232  0.00  0.00    +0.050 C 
ENDBRANCH   3  13
ENDBRANCH   1   8
BRANCH   1  15
ATOM     15  O   LIG    1       -2.484  -0.362   0.012  0.00  0.00    -0.320 OA
BRANCH  15  16
ATOM     16  C   LIG    1       -3.765  -1.045   0.015  0.00  0.00    +0.180 C 
ATOM     17  C   LIG    1       -4.222  -1.277  -1.427  0.00  0.00    +0.070 C 
BRANCH  16  18
ATOM     18  C   LIG    1       -3.627  -2.371   0.717  0.00  0.00    +0.520 C 
ATOM     19  N   LIG    1       -4.695  -3.183   0.841  0.00  0.00    -0.730 N 
ATOM     20  H   LIG    1       -5.553  -2.914   0.478  0.00  0.00    +0.400 HD
ATOM     21  O   LIG    1       -2.554  -2.708   1.171  0.00  0.00    -0.510 OA
BRANCH  19  22
ATOM     22  C   LIG    1       -4.560  -4.472   1.524  0.00  0.00    +0.240 C 
ATOM     23  C   LIG    1       -4.022  -5.514   0.522  0.00  0.00    +0.020 C 
ATOM     24  C   LIG    1       -3.410  -6.650   1.298  0.00  0.00    +0.000 C 
ATOM     25  C   LIG    1       -4.401  -7.807   1.527  0.00  0.00    +0.000 C 
ATOM     26  C   LIG    1       -5.814  -7.318   1.899  0.00  0.00    +0.000 C 
ATOM     27  C   LIG    1       -5.789  -6.170   2.872  0.00  0.00    +0.030 C 
ATOM     28  C   LIG    1       -5.853  -4.851   2.075  0.00  0.00    +0.010 C 
ENDBRANCH  19  22
ENDBRANCH  16  18
ENDBRANCH  15  16
ENDBRANCH   1  15
TORSDOF 6
