REMARK  Name = ZINCrH00000No4GS.0
REMARK                            x       y       z     vdW  Elec       q    Type
REMARK                         _______ _______ _______ _____ _____    ______ ____
ROOT
ATOM      1  C   LIG    1       -4.604   4.226  -0.119  0.00  0.00    -0.210 A 
ATOM      2  C   LIG    1       -3.635   3.245  -0.081  0.00  0.00    +0.290 A 
ATOM      3  N   LIG    1       -2.449   3.843   0.134  0.00  0.00    -0.310 N 
ATOM      4  N   LIG    1       -2.632   5.226   0.230  0.00  0.00    -0.270 NA
ATOM      5  C   LIG    1       -3.909   5.502   0.084  0.00  0.00    +0.170 A 
ENDROOT
BRANCH   5   6
ATOM      6  C   LIG    1       -4.530   6.847   0.117  0.00  0.00    -0.010 A 
ATOM      7  C   LIG    1       -3.933   7.910  -0.559  0.00  0.00    +0.060 A 
ATOM      8  C   LIG    1       -4.517   9.160  -0.528  0.00  0.00    +0.020 A 
ATOM      9  C   LIG    1       -5.689   9.361   0.181  0.00  0.00    -0.020 A 
ATOM     10  C   LIG    1       -6.283   8.311   0.859  0.00  0.00    +0.020 A 
ATOM     11 CL   LIG    1       -6.415  10.938   0.222  0.00  0.00    -0.070 Cl
ATOM     12  C   LIG    1       -5.709   7.056   0.831  0.00  0.00    +0.110 A 
ENDBRANCH   5   6
BRANCH   3  13
ATOM     13  C   LIG    1       -1.219   3.183   0.240  0.00  0.00    +0.150 A 
ATOM     14  C   LIG    1       -1.159   1.800   0.122  0.00  0.00    -0.010 A 
ATOM     15  C   LIG    1        0.056   1.151   0.232  0.00  0.00    +0.050 A 
ATOM     16  C   LIG    1        1.212   1.877   0.449  0.00  0.00    +0.010 A 
ATOM     17  C   LIG    1        1.157   3.255   0.562  0.00  0.00    +0.040 A 
ATOM     18  C   LIG    1       -0.055   3.909   0.458  0.00  0.00    +0.030 A 
ENDBRANCH   3  13
BRANCH   1  20
ATOM     19  N   LIG    1       -6.829   5.059  -0.442  0.00  0.00    -0.500 NA
ATOM     20  C   LIG    1       -6.048   4.032  -0.328  0.00  0.00    +0.340 C 
BRANCH  19  25
ATOM     21  O   LIG    1      -11.489   4.494   0.097  0.00  0.00    -0.930 OA
ATOM     22  S   LIG    1      -10.747   5.670  -0.199  0.00  0.00    +2.390 S 
ATOM     23  C   LIG    1      -10.251   5.646  -1.960  0.00  0.00    -0.310 C 
ATOM     24  C   LIG    1       -8.712   5.571  -1.943  0.00  0.00    +0.090 C 
ATOM     25  C   LIG    1       -8.267   4.866  -0.650  0.00  0.00    +0.150 C 
ATOM     26  O   LIG    1      -11.282   6.945   0.126  0.00  0.00    -0.930 OA
ATOM     27  C   LIG    1       -9.063   5.519   0.509  0.00  0.00    -0.300 C 
ENDBRANCH  19  25
ENDBRANCH   1  20
TORSDOF 4
