REMARK  Name = ZINCqH0000038ShJ.0
REMARK                            x       y       z     vdW  Elec       q    Type
REMARK                         _______ _______ _______ _____ _____    ______ ____
ROOT
ATOM      1  C   LIG    1        0.008   0.898   2.606  0.00  0.00    +0.360 C 
ENDROOT
BRANCH   1   4
ATOM      2  C   LIG    1        2.731  -0.273   1.581  0.00  0.00    +0.350 C 
ATOM      3  N   LIG    1        2.526   1.050   2.175  0.00  0.00    -0.470 N 
ATOM      4  C   LIG    1        1.354   1.575   2.625  0.00  0.00    +0.140 A 
ATOM      5  N   LIG    1        1.611   2.772   3.081  0.00  0.00    -0.270 NA
ATOM      6  N   LIG    1        2.861   3.037   2.944  0.00  0.00    -0.280 NA
ATOM      7  C   LIG    1        3.473   2.015   2.388  0.00  0.00    +0.220 A 
BRANCH   7   8
ATOM      8  C   LIG    1        4.913   1.922   2.062  0.00  0.00    -0.020 A 
ATOM      9  C   LIG    1        5.824   2.796   2.657  0.00  0.00    +0.070 A 
ATOM     10  C   LIG    1        7.166   2.701   2.352  0.00  0.00    +0.010 A 
ATOM     11  C   LIG    1        7.608   1.749   1.451  0.00  0.00    +0.030 A 
ATOM     12  C   LIG    1        6.710   0.883   0.854  0.00  0.00    +0.010 A 
ATOM     13  C   LIG    1        5.365   0.964   1.154  0.00  0.00    +0.010 A 
ENDBRANCH   7   8
ENDBRANCH   1   4
BRANCH   1  14
ATOM     14  N   LIG    1       -0.680   1.210   1.346  0.00  0.00    -0.520 NA
ATOM     15  C   LIG    1        0.026   0.617   0.201  0.00  0.00    +0.140 C 
ATOM     16  C   LIG    1       -0.754   0.914  -1.083  0.00  0.00    +0.240 C 
ATOM     17  O   LIG    1       -0.915   2.329  -1.220  0.00  0.00    -0.380 OA
ATOM     18  C   LIG    1       -1.600   2.939  -0.122  0.00  0.00    +0.220 C 
ATOM     19  C   LIG    1       -0.829   2.662   1.171  0.00  0.00    +0.190 C 
BRANCH  18  20
ATOM     20  C   LIG    1       -1.687   4.426  -0.347  0.00  0.00    -0.080 A 
ATOM     21  C   LIG    1       -0.648   5.093  -0.969  0.00  0.00    +0.050 A 
ATOM     22  C   LIG    1       -0.729   6.456  -1.181  0.00  0.00    +0.020 A 
ATOM     23  C   LIG    1       -1.846   7.156  -0.760  0.00  0.00    -0.030 A 
ATOM     24  C   LIG    1       -2.884   6.489  -0.133  0.00  0.00    +0.030 A 
ATOM     25 CL   LIG    1       -1.947   8.869  -1.020  0.00  0.00    -0.070 Cl
ATOM     26  C   LIG    1       -2.803   5.125   0.073  0.00  0.00    +0.050 A 
ENDBRANCH  18  20
ENDBRANCH   1  14
TORSDOF 4
