REMARK  Name = ZINCrD000000CPvH.0
REMARK                            x       y       z     vdW  Elec       q    Type
REMARK                         _______ _______ _______ _____ _____    ______ ____
ROOT
ATOM      1  N   LIG    1        2.581   7.282   1.013  0.00  0.00    -0.680 N 
ATOM      2  H   LIG    1        1.997   7.862   1.526  0.00  0.00    +0.410 HD
ATOM      3  C   LIG    1        2.178   6.037   0.688  0.00  0.00    +0.710 C 
ATOM      4  N   LIG    1        0.917   5.646   0.957  0.00  0.00    -0.600 N 
ATOM      5  O   LIG    1        2.952   5.268   0.153  0.00  0.00    -0.560 OA
ENDROOT
BRANCH   1  12
ATOM      6  O   LIG    1        8.926  10.855  -0.905  0.00  0.00    -0.510 OA
ATOM      7  C   LIG    1        7.857  10.423  -0.530  0.00  0.00    +0.490 C 
ATOM      8  C   LIG    1        6.809  11.361   0.013  0.00  0.00    +0.300 C 
ATOM      9  O   LIG    1        5.507  10.855  -0.290  0.00  0.00    -0.300 OA
ATOM     10  C   LIG    1        5.291   9.535  -0.041  0.00  0.00    +0.100 A 
ATOM     11  C   LIG    1        4.043   9.088   0.352  0.00  0.00    +0.000 A 
ATOM     12  C   LIG    1        3.843   7.737   0.610  0.00  0.00    +0.170 A 
ATOM     13  C   LIG    1        4.890   6.838   0.463  0.00  0.00    +0.040 A 
ATOM     14  C   LIG    1        6.136   7.283   0.064  0.00  0.00    +0.040 A 
ATOM     15  C   LIG    1        6.340   8.629  -0.189  0.00  0.00    +0.070 A 
ATOM     16  N   LIG    1        7.599   9.098  -0.596  0.00  0.00    -0.660 N 
ATOM     17  H   LIG    1        8.274   8.481  -0.920  0.00  0.00    +0.420 HD
ENDBRANCH   1  12
BRANCH   4  18
ATOM     18  C   LIG    1       -0.052   6.608   1.489  0.00  0.00    +0.190 C 
ATOM     19  C   LIG    1       -1.501   6.141   1.640  0.00  0.00    +0.040 C 
ATOM     20  C   LIG    1       -1.126   7.130   0.533  0.00  0.00    +0.020 C 
ENDBRANCH   4  18
BRANCH   4  21
ATOM     21  C   LIG    1        0.514   4.258   0.718  0.00  0.00    +0.320 C 
BRANCH  21  22
ATOM     22  C   LIG    1       -0.020   4.120  -0.709  0.00  0.00    +0.070 C 
BRANCH  22  23
ATOM     23  C   LIG    1       -0.434   2.692  -0.955  0.00  0.00    -0.050 A 
ATOM     24  C   LIG    1        0.480   1.784  -1.457  0.00  0.00    +0.010 A 
ATOM     25  C   LIG    1        0.101   0.474  -1.683  0.00  0.00    +0.040 A 
ATOM     26  C   LIG    1       -1.191   0.070  -1.408  0.00  0.00    -0.020 A 
ATOM     27  C   LIG    1       -2.108   0.979  -0.906  0.00  0.00    +0.100 A 
ATOM     28  F   LIG    1       -3.372   0.585  -0.636  0.00  0.00    -0.140 F 
ATOM     29  C   LIG    1       -1.728   2.291  -0.679  0.00  0.00    -0.020 A 
ENDBRANCH  22  23
ENDBRANCH  21  22
ENDBRANCH   4  21
TORSDOF 5
