REMARK  Name = ZINCpe00000MJJRL.0
REMARK                            x       y       z     vdW  Elec       q    Type
REMARK                         _______ _______ _______ _____ _____    ______ ____
ROOT
ATOM      1  C   LIG    1       -0.720   3.222  -0.665  0.00  0.00    +0.160 C 
ATOM      2  C   LIG    1       -1.144   2.167   0.382  0.00  0.00    +0.290 C 
ATOM      3  N   LIG    1        0.048   1.295   0.494  0.00  0.00    -0.620 N 
ATOM      4  C   LIG    1        1.215   2.195   0.430  0.00  0.00    +0.230 C 
ATOM      5  C   LIG    1        0.064  -0.046   0.622  0.00  0.00    +0.580 C 
ATOM      6  O   LIG    1       -0.984  -0.666   0.661  0.00  0.00    -0.550 OA
ATOM      7  C   LIG    1        0.772   3.456  -0.335  0.00  0.00    +0.190 C 
ENDROOT
BRANCH   5   8
ATOM      8  C   LIG    1        1.297  -0.735   0.711  0.00  0.00    -0.150 C 
ATOM      9  C   LIG    1        1.313  -2.084   0.840  0.00  0.00    +0.200 C 
BRANCH   9  10
ATOM     10  C   LIG    1        2.547  -2.773   0.929  0.00  0.00    -0.010 A 
ATOM     11  C   LIG    1        2.714  -4.139   1.063  0.00  0.00    +0.020 A 
ATOM     12  C   LIG    1        4.090  -4.383   1.111  0.00  0.00    -0.070 A 
ATOM     13  C   LIG    1        4.727  -3.191   1.010  0.00  0.00    +0.190 A 
ATOM     14  N   LIG    1        3.801  -2.205   0.893  0.00  0.00    -0.540 N 
ATOM     15  H   LIG    1        3.991  -1.259   0.801  0.00  0.00    +0.420 HD
ENDBRANCH   9  10
ENDBRANCH   5   8
BRANCH   7  16
ATOM     16  O   LIG    1        1.532   3.600  -1.536  0.00  0.00    -0.550 OA
ATOM     17  H   LIG    1        2.482   3.705  -1.391  0.00  0.00    +0.380 HD
ENDBRANCH   7  16
BRANCH   1  18
ATOM     18  N   LIG    1       -1.490   4.462  -0.498  0.00  0.00    -0.530 NA
BRANCH  18  20
ATOM     19  C   LIG    1       -1.024   5.165  -2.797  0.00  0.00    +0.010 C 
ATOM     20  C   LIG    1       -0.929   5.544  -1.318  0.00  0.00    +0.210 C 
ENDBRANCH  18  20
BRANCH  18  21
ATOM     21  C   LIG    1       -2.909   4.247  -0.810  0.00  0.00    +0.350 C 
BRANCH  21  22
ATOM     22  C   LIG    1       -3.718   5.413  -0.305  0.00  0.00    +0.170 A 
ATOM     23  N   LIG    1       -4.000   6.500  -0.966  0.00  0.00    -0.280 NA
ATOM     24  N   LIG    1       -4.708   7.279  -0.226  0.00  0.00    -0.290 NA
ATOM     25  C   LIG    1       -4.901   6.716   0.933  0.00  0.00    +0.170 A 
ATOM     26  C   LIG    1       -5.679   7.294   2.087  0.00  0.00    +0.240 C 
ATOM     27  O   LIG    1       -4.285   5.522   0.908  0.00  0.00    -0.220 OA
ENDBRANCH  21  22
ENDBRANCH  18  21
ENDBRANCH   1  18
TORSDOF 7
