REMARK  Name = ZINCpe000000XT1U.0
REMARK                            x       y       z     vdW  Elec       q    Type
REMARK                         _______ _______ _______ _____ _____    ______ ____
ROOT
ATOM      1  N   LIG    1       -6.091   3.431   0.075  0.00  0.00    -0.730 N 
ATOM      2  H   LIG    1       -6.101   2.461   0.071  0.00  0.00    +0.400 HD
ATOM      3  C   LIG    1       -7.251   4.117   0.089  0.00  0.00    +0.520 C 
ATOM      4  O   LIG    1       -7.239   5.330   0.095  0.00  0.00    -0.530 OA
ENDROOT
BRANCH   1   5
ATOM      5  C   LIG    1       -4.815   4.151   0.067  0.00  0.00    +0.270 C 
BRANCH   5   6
ATOM      6  C   LIG    1       -3.662   3.145   0.052  0.00  0.00    +0.260 C 
BRANCH   6   7
ATOM      7  N   LIG    1       -2.386   3.865   0.044  0.00  0.00    -0.720 N 
ATOM      8  H   LIG    1       -2.376   4.835   0.048  0.00  0.00    +0.410 HD
BRANCH   7  14
ATOM      9  C   LIG    1        2.400   3.975   0.001  0.00  0.00    +0.130 C 
ATOM     10  C   LIG    1        1.118   3.181   0.008  0.00  0.00    +0.180 A 
ATOM     11  C   LIG    1        1.171   1.802   0.001  0.00  0.00    -0.100 A 
ATOM     12  C   LIG    1       -0.013   1.076   0.008  0.00  0.00    +0.100 A 
ATOM     13  C   LIG    1       -1.211   1.767   0.017  0.00  0.00    -0.120 A 
ATOM     14  C   LIG    1       -1.189   3.158   0.029  0.00  0.00    +0.410 A 
ATOM     15  N   LIG    1       -0.040   3.814   0.022  0.00  0.00    -0.540 NA
ENDBRANCH   7  14
ENDBRANCH   6   7
ENDBRANCH   5   6
ENDBRANCH   1   5
BRANCH   3  16
ATOM     16  C   LIG    1       -8.564   3.377   0.098  0.00  0.00    +0.160 C 
BRANCH  16  17
ATOM     17  C   LIG    1       -9.699   4.367   0.113  0.00  0.00    -0.260 A 
ATOM     18  C   LIG    1      -10.288   4.742  -1.046  0.00  0.00    +0.230 A 
ATOM     19  N   LIG    1      -11.314   5.637  -1.030  0.00  0.00    -0.600 N 
ATOM     20  H   LIG    1      -11.736   5.905  -1.861  0.00  0.00    +0.440 HD
ATOM     21  C   LIG    1      -11.756   6.164   0.169  0.00  0.00    +0.300 A 
ATOM     22  C   LIG    1      -12.740   7.056   0.473  0.00  0.00    -0.120 A 
ATOM     23  C   LIG    1      -12.749   7.228   1.859  0.00  0.00    +0.290 A 
ATOM     24  N   LIG    1      -11.812   6.476   2.379  0.00  0.00    -0.260 NA
ATOM     25  N   LIG    1      -11.166   5.791   1.342  0.00  0.00    -0.360 N 
ATOM     26  C   LIG    1       -9.808   4.169  -2.355  0.00  0.00    +0.160 C 
ATOM     27  C   LIG    1      -10.154   4.902   1.335  0.00  0.00    +0.580 A 
ATOM     28  O   LIG    1       -9.630   4.564   2.382  0.00  0.00    -0.490 OA
ENDBRANCH  16  17
ENDBRANCH   3  16
TORSDOF 6
