REMARK  Name = ZINCrD000001YLyV.0
REMARK                            x       y       z     vdW  Elec       q    Type
REMARK                         _______ _______ _______ _____ _____    ______ ____
ROOT
ATOM      1  C   LIG    1        4.965  -1.114  -2.408  0.00  0.00    +0.000 C 
ATOM      2  C   LIG    1        4.358   0.305  -2.391  0.00  0.00    +0.300 C 
ATOM      3  N   LIG    1        3.359   0.272  -1.297  0.00  0.00    -0.620 N 
ATOM      4  C   LIG    1        4.012  -0.522  -0.229  0.00  0.00    +0.300 C 
ATOM      5  C   LIG    1        2.137   0.839  -1.275  0.00  0.00    +0.580 C 
ATOM      6  O   LIG    1        1.705   1.386  -2.267  0.00  0.00    -0.520 OA
ATOM      7  C   LIG    1        4.735  -1.663  -0.985  0.00  0.00    -0.020 C 
ENDROOT
BRANCH   7   8
ATOM      8  C   LIG    1        6.073  -1.979  -0.314  0.00  0.00    +0.460 C 
ATOM      9  F   LIG    1        6.758  -2.938  -1.068  0.00  0.00    -0.180 F 
ATOM     10  F   LIG    1        5.844  -2.474   0.974  0.00  0.00    -0.180 F 
ATOM     11  F   LIG    1        6.842  -0.812  -0.235  0.00  0.00    -0.180 F 
ENDBRANCH   7   8
BRANCH   5  12
ATOM     12  C   LIG    1        1.308   0.794  -0.018  0.00  0.00    -0.120 C 
ATOM     13  C   LIG    1        1.934   1.350   1.262  0.00  0.00    +0.060 C 
ATOM     14  C   LIG    1        0.821   2.126   0.556  0.00  0.00    +0.090 C 
BRANCH  12  15
ATOM     15  C   LIG    1        0.393  -0.396   0.116  0.00  0.00    -0.030 A 
ATOM     16  C   LIG    1       -0.121  -1.003  -1.015  0.00  0.00    +0.030 A 
ATOM     17  C   LIG    1       -0.960  -2.095  -0.894  0.00  0.00    +0.040 A 
ATOM     18  C   LIG    1       -1.285  -2.581   0.358  0.00  0.00    +0.030 A 
ATOM     19  C   LIG    1       -0.770  -1.975   1.491  0.00  0.00    -0.030 A 
ATOM     20 CL   LIG    1       -1.179  -2.584   3.064  0.00  0.00    -0.060 Cl
ATOM     21  C   LIG    1        0.073  -0.885   1.368  0.00  0.00    +0.030 A 
ENDBRANCH  12  15
ENDBRANCH   5  12
BRANCH   1  22
ATOM     22  C   LIG    1        4.247  -1.987  -3.439  0.00  0.00    +0.290 C 
BRANCH  22  24
ATOM     23  C   LIG    1        3.986  -2.091  -5.860  0.00  0.00    +0.550 C 
ATOM     24  N   LIG    1        4.518  -1.476  -4.785  0.00  0.00    -0.730 N 
ATOM     25  H   LIG    1        5.081  -0.695  -4.903  0.00  0.00    +0.400 HD
ATOM     26  O   LIG    1        3.280  -3.070  -5.712  0.00  0.00    -0.540 OA
BRANCH  23  28
ATOM     27  C   LIG    1        3.733  -2.185  -8.272  0.00  0.00    +0.140 C 
ATOM     28  C   LIG    1        4.258  -1.578  -7.211  0.00  0.00    -0.090 C 
ENDBRANCH  23  28
ENDBRANCH  22  24
ENDBRANCH   1  22
TORSDOF 6
