REMARK  Name = ZINCrH000004sRks.0
REMARK                            x       y       z     vdW  Elec       q    Type
REMARK                         _______ _______ _______ _____ _____    ______ ____
ROOT
ATOM      1  C   LIG    1       -3.432   7.133   1.595  0.00  0.00    +0.180 A 
ATOM      2  C   LIG    1       -3.701   7.953   0.510  0.00  0.00    -0.080 A 
ATOM      3  C   LIG    1       -4.292   9.187   0.704  0.00  0.00    +0.080 A 
ATOM      4  C   LIG    1       -4.609   9.618   1.981  0.00  0.00    -0.030 A 
ATOM      5  C   LIG    1       -4.344   8.818   3.072  0.00  0.00    +0.090 A 
ATOM      6  C   LIG    1       -3.752   7.566   2.889  0.00  0.00    -0.170 A 
ENDROOT
BRANCH   6   7
ATOM      7  C   LIG    1       -3.466   6.704   4.052  0.00  0.00    +0.570 C 
ATOM      8  N   LIG    1       -4.408   6.513   4.997  0.00  0.00    -0.620 N 
ATOM      9  C   LIG    1       -5.765   7.058   4.835  0.00  0.00    +0.250 C 
ATOM     10  C   LIG    1       -6.770   5.923   5.090  0.00  0.00    +0.220 C 
ATOM     11  O   LIG    1       -6.478   5.312   6.348  0.00  0.00    -0.380 OA
ATOM     12  C   LIG    1       -5.192   4.692   6.413  0.00  0.00    +0.220 C 
ATOM     13  C   LIG    1       -4.107   5.758   6.224  0.00  0.00    +0.260 C 
ATOM     14  O   LIG    1       -2.381   6.167   4.158  0.00  0.00    -0.520 OA
ENDBRANCH   6   7
BRANCH   1  15
ATOM     15  O   LIG    1       -2.857   5.919   1.406  0.00  0.00    -0.290 OA
BRANCH  15  16
ATOM     16  C   LIG    1       -2.559   5.545   0.059  0.00  0.00    +0.310 C 
BRANCH  16  19
ATOM     17  C   LIG    1       -4.073   2.822  -0.171  0.00  0.00    +0.200 C 
ATOM     18  C   LIG    1       -2.582   3.005  -0.054  0.00  0.00    -0.010 A 
ATOM     19  C   LIG    1       -1.929   4.177   0.045  0.00  0.00    -0.020 A 
ATOM     20  N   LIG    1       -0.616   3.910   0.135  0.00  0.00    -0.450 NA
ATOM     21  C   LIG    1       -0.448   2.607   0.085  0.00  0.00    +0.270 A 
ATOM     22  O   LIG    1       -1.656   2.025  -0.029  0.00  0.00    -0.190 OA
BRANCH  21  23
ATOM     23  C   LIG    1        0.842   1.904   0.149  0.00  0.00    -0.140 A 
ATOM     24  C   LIG    1        1.005   0.553   0.102  0.00  0.00    +0.060 A 
ATOM     25  C   LIG    1        2.316   0.135   0.175  0.00  0.00    +0.010 A 
ATOM     26  C   LIG    1        3.220   1.114   0.280  0.00  0.00    -0.040 A 
ATOM     27  S   LIG    1        2.415   2.677   0.291  0.00  0.00    +0.220 S 
ENDBRANCH  21  23
ENDBRANCH  16  19
ENDBRANCH  15  16
ENDBRANCH   1  15
TORSDOF 5
