REMARK  Name = ZINCpk00000FcJOB.1
REMARK                            x       y       z     vdW  Elec       q    Type
REMARK                         _______ _______ _______ _____ _____    ______ ____
ROOT
ATOM      1  C   LIG    1        1.762  -1.785  -0.025  0.00  0.00    +0.280 C 
ATOM      2  C   LIG    1        1.567  -2.384  -1.423  0.00  0.00    +0.280 C 
ATOM      3  N   LIG    1        1.889  -3.819  -1.361  0.00  0.00    -0.610 N 
ATOM      4  C   LIG    1        1.255  -4.626  -0.306  0.00  0.00    +0.250 C 
ATOM      5  C   LIG    1        1.465  -3.917   1.036  0.00  0.00    +0.230 C 
ATOM      6  C   LIG    1        2.740  -4.377  -2.245  0.00  0.00    +0.500 C 
ATOM      7  O   LIG    1        3.252  -3.696  -3.107  0.00  0.00    -0.510 OA
ATOM      8  O   LIG    1        1.028  -2.560   0.926  0.00  0.00    -0.360 OA
ENDROOT
BRANCH   6   9
ATOM      9  C   LIG    1        3.054  -5.849  -2.162  0.00  0.00    +0.210 C 
ATOM     10  C   LIG    1        1.827  -6.696  -2.578  0.00  0.00    +0.110 C 
ATOM     11  C   LIG    1        2.084  -6.913  -4.056  0.00  0.00    -0.150 A 
ATOM     12  C   LIG    1        1.268  -7.332  -5.085  0.00  0.00    +0.050 A 
ATOM     13  C   LIG    1        1.768  -7.426  -6.371  0.00  0.00    +0.030 A 
ATOM     14  C   LIG    1        3.088  -7.098  -6.620  0.00  0.00    +0.030 A 
ATOM     15  C   LIG    1        3.909  -6.681  -5.591  0.00  0.00    +0.090 A 
ATOM     16  F   LIG    1        5.198  -6.362  -5.844  0.00  0.00    -0.130 F 
ATOM     17  C   LIG    1        3.413  -6.589  -4.291  0.00  0.00    +0.070 A 
ATOM     18  O   LIG    1        4.040  -6.215  -3.141  0.00  0.00    -0.260 OA
ENDBRANCH   6   9
BRANCH   1  21
ATOM     19  C   LIG    1        1.268   1.796  -0.000  0.00  0.00    +0.290 A 
ATOM     20  N   LIG    1        2.022   0.727  -0.013  0.00  0.00    -0.530 NA
ATOM     21  C   LIG    1        1.258  -0.365  -0.012  0.00  0.00    +0.230 A 
ATOM     22  N   LIG    1        0.002  -0.004   0.002  0.00  0.00    -0.280 NA
ATOM     23  N   LIG    1       -0.017   1.400   0.010  0.00  0.00    -0.480 N 
ATOM     24  H   LIG    1       -0.801   1.971   0.017  0.00  0.00    +0.440 HD
BRANCH  19  26
ATOM     25  C   LIG    1        1.814   3.737   1.443  0.00  0.00    +0.050 C 
ATOM     26  C   LIG    1        1.754   3.223   0.003  0.00  0.00    +0.150 C 
ENDBRANCH  19  26
ENDBRANCH   1  21
TORSDOF 3
