REMARK  Name = ZINCvU00000004N7.0
REMARK                            x       y       z     vdW  Elec       q    Type
REMARK                         _______ _______ _______ _____ _____    ______ ____
ROOT
ATOM      1  C   LIG    1       -0.927   1.718   3.671  0.00  0.00    +0.160 C 
ENDROOT
BRANCH   1   2
ATOM      2  C   LIG    1       -0.198   1.219   4.892  0.00  0.00    -0.190 A 
ATOM      3  C   LIG    1        0.804   1.859   5.533  0.00  0.00    +0.150 A 
ATOM      4  N   LIG    1        1.295   1.229   6.585  0.00  0.00    -0.450 NA
ATOM      5  C   LIG    1        0.768   0.079   6.886  0.00  0.00    +0.120 A 
ATOM      6  S   LIG    1       -0.512  -0.296   5.735  0.00  0.00    +0.130 S 
BRANCH   5   7
ATOM      7  C   LIG    1        1.175  -0.778   8.020  0.00  0.00    -0.030 A 
ATOM      8  C   LIG    1        0.529  -1.994   8.246  0.00  0.00    +0.020 A 
ATOM      9  C   LIG    1        0.918  -2.792   9.303  0.00  0.00    +0.010 A 
ATOM     10  C   LIG    1        1.937  -2.383  10.144  0.00  0.00    +0.030 A 
ATOM     11  C   LIG    1        2.578  -1.175   9.928  0.00  0.00    +0.010 A 
ATOM     12  C   LIG    1        2.203  -0.371   8.871  0.00  0.00    +0.070 A 
ENDBRANCH   5   7
BRANCH   3  13
ATOM     13  C   LIG    1        1.316   3.173   5.087  0.00  0.00    -0.130 A 
ATOM     14  C   LIG    1        1.759   4.152   5.901  0.00  0.00    +0.050 A 
ATOM     15  C   LIG    1        2.190   5.291   5.250  0.00  0.00    +0.010 A 
ATOM     16  C   LIG    1        2.103   5.249   3.919  0.00  0.00    -0.040 A 
ATOM     17  S   LIG    1        1.449   3.697   3.414  0.00  0.00    +0.130 S 
ENDBRANCH   3  13
ENDBRANCH   1   2
BRANCH   1  20
ATOM     18  N   LIG    1       -0.698   1.558   1.213  0.00  0.00    -0.730 N 
ATOM     19  H   LIG    1       -1.495   2.106   1.135  0.00  0.00    +0.400 HD
ATOM     20  C   LIG    1       -0.222   1.232   2.431  0.00  0.00    +0.520 C 
ATOM     21  O   LIG    1        0.774   0.548   2.529  0.00  0.00    -0.520 OA
BRANCH  18  22
ATOM     22  C   LIG    1       -0.013   1.086   0.008  0.00  0.00    +0.270 C 
BRANCH  22  23
ATOM     23  C   LIG    1       -0.753   1.593  -1.232  0.00  0.00    -0.030 C 
ATOM     24  C   LIG    1       -0.666   3.119  -1.289  0.00  0.00    +0.030 C 
BRANCH  23  25
ATOM     25  C   LIG    1       -0.111   0.998  -2.487  0.00  0.00    +0.340 C 
BRANCH  25  32
ATOM     26  C   LIG    1        0.352   3.548  -4.188  0.00  0.00    +0.140 C 
ATOM     27  C   LIG    1       -0.701   2.493  -4.413  0.00  0.00    +0.090 A 
ATOM     28  C   LIG    1       -1.623   2.485  -5.403  0.00  0.00    -0.120 A 
ATOM     29  C   LIG    1       -2.404   1.335  -5.254  0.00  0.00    +0.070 A 
ATOM     30  N   LIG    1       -1.963   0.673  -4.216  0.00  0.00    -0.300 NA
ATOM     31  C   LIG    1       -3.552   0.925  -6.141  0.00  0.00    +0.160 C 
ATOM     32  N   LIG    1       -0.891   1.387  -3.665  0.00  0.00    -0.370 N 
ENDBRANCH  25  32
ENDBRANCH  23  25
ENDBRANCH  22  23
ENDBRANCH  18  22
ENDBRANCH   1  20
TORSDOF 8
