REMARK  Name = ZINCrH000004qVTh.0
REMARK                            x       y       z     vdW  Elec       q    Type
REMARK                         _______ _______ _______ _____ _____    ______ ____
ROOT
ATOM      1  C   LIG    1       -1.663   7.739   1.494  0.00  0.00    +0.050 C 
ENDROOT
BRANCH   1   2
ATOM      2  C   LIG    1       -2.425   9.039   1.507  0.00  0.00    +0.520 C 
ATOM      3  N   LIG    1       -2.667   9.665   2.675  0.00  0.00    -0.610 N 
ATOM      4  O   LIG    1       -2.821   9.520   0.467  0.00  0.00    -0.510 OA
BRANCH   3   5
ATOM      5  C   LIG    1       -2.189   9.083   3.932  0.00  0.00    +0.330 C 
BRANCH   5   6
ATOM      6  C   LIG    1       -0.785   9.608   4.235  0.00  0.00    +0.430 C 
ATOM      7  F   LIG    1        0.081   9.251   3.196  0.00  0.00    -0.180 F 
ATOM      8  F   LIG    1       -0.328   9.053   5.435  0.00  0.00    -0.180 F 
ATOM      9  F   LIG    1       -0.823  11.002   4.352  0.00  0.00    -0.180 F 
ENDBRANCH   5   6
ENDBRANCH   3   5
BRANCH   3  10
ATOM     10  C   LIG    1       -3.409  10.929   2.689  0.00  0.00    +0.290 C 
BRANCH  10  11
ATOM     11  C   LIG    1       -4.905  10.642   2.828  0.00  0.00    -0.040 C 
ATOM     12  C   LIG    1       -5.607  10.371   1.486  0.00  0.00    +0.020 C 
ATOM     13  C   LIG    1       -6.786  11.200   2.028  0.00  0.00    +0.000 C 
ATOM     14  C   LIG    1       -5.768  11.909   2.937  0.00  0.00    +0.020 C 
ENDBRANCH  10  11
ENDBRANCH   3  10
ENDBRANCH   1   2
BRANCH   1  15
ATOM     15  C   LIG    1       -1.528   7.242   0.053  0.00  0.00    +0.140 C 
BRANCH  15  23
ATOM     16  C   LIG    1        0.002  -0.004   0.002  0.00  0.00    +0.170 C 
ATOM     17  C   LIG    1       -0.018   1.503   0.010  0.00  0.00    +0.120 A 
ATOM     18  N   LIG    1       -1.098   2.251   0.019  0.00  0.00    -0.320 NA
ATOM     19  N   LIG    1       -0.715   3.597   0.027  0.00  0.00    -0.310 N 
ATOM     20  C   LIG    1        0.656   3.639   0.015  0.00  0.00    +0.270 A 
ATOM     21  N   LIG    1        1.301   4.813   0.015  0.00  0.00    -0.470 NA
ATOM     22  C   LIG    1        0.637   5.945   0.026  0.00  0.00    +0.220 A 
ATOM     23  C   LIG    1       -0.765   5.942   0.039  0.00  0.00    -0.200 A 
ATOM     24  C   LIG    1        1.385   7.254   0.025  0.00  0.00    +0.160 C 
ATOM     25  C   LIG    1       -1.429   4.761   0.040  0.00  0.00    +0.200 A 
ATOM     26  C   LIG    1       -2.936   4.732   0.053  0.00  0.00    +0.160 C 
ATOM     27  C   LIG    1        1.099   2.323   0.004  0.00  0.00    -0.110 A 
ENDBRANCH  15  23
ENDBRANCH   1  15
TORSDOF 7
