REMARK  Name = ZINCpe000000WHwh.0
REMARK                            x       y       z     vdW  Elec       q    Type
REMARK                         _______ _______ _______ _____ _____    ______ ____
ROOT
ATOM      1  N   LIG    1       -3.558   4.225  -1.332  0.00  0.00    -0.490 N 
ATOM      2  C   LIG    1       -4.156   4.317  -2.670  0.00  0.00    +0.190 C 
ATOM      3  C   LIG    1       -5.542   4.963  -2.564  0.00  0.00    +0.290 C 
ATOM      4  N   LIG    1       -5.407   6.244  -1.853  0.00  0.00    -0.590 N 
ATOM      5  C   LIG    1       -4.696   6.254  -0.566  0.00  0.00    +0.310 C 
ATOM      6  C   LIG    1       -5.921   7.378  -2.369  0.00  0.00    +0.580 C 
ATOM      7  O   LIG    1       -6.386   7.379  -3.492  0.00  0.00    -0.530 OA
ATOM      8  C   LIG    1       -3.344   5.557  -0.751  0.00  0.00    +0.180 C 
ENDROOT
BRANCH   1  12
ATOM      9  C   LIG    1       -0.004   2.048  -1.430  0.00  0.00    +0.110 A 
ATOM     10  C   LIG    1       -0.015   3.336  -0.911  0.00  0.00    +0.040 A 
ATOM     11  C   LIG    1       -1.191   4.059  -0.882  0.00  0.00    -0.020 A 
ATOM     12  C   LIG    1       -2.365   3.494  -1.365  0.00  0.00    +0.110 A 
ATOM     13  C   LIG    1       -2.354   2.205  -1.879  0.00  0.00    +0.010 A 
ATOM     14  C   LIG    1       -1.177   1.484  -1.912  0.00  0.00    +0.030 A 
BRANCH   9  15
ATOM     15  N   LIG    1        1.190   1.317  -1.463  0.00  0.00    -1.060 N 
ATOM     16  H   LIG    1        1.210   0.406  -1.130  0.00  0.00    +0.430 HD
BRANCH  15  18
ATOM     17  C   LIG    1        2.136   2.429  -3.787  0.00  0.00    -0.280 C 
ATOM     18  S   LIG    1        2.566   2.005  -2.076  0.00  0.00    +2.610 S 
ATOM     19  O   LIG    1        3.524   0.956  -2.048  0.00  0.00    -0.950 OA
ATOM     20  O   LIG    1        2.745   3.182  -1.300  0.00  0.00    -0.950 OA
ENDBRANCH  15  18
ENDBRANCH   9  15
ENDBRANCH   1  12
BRANCH   6  21
ATOM     21  C   LIG    1       -5.920   8.623  -1.566  0.00  0.00    +0.020 A 
ATOM     22  C   LIG    1       -6.296   9.835  -2.150  0.00  0.00    +0.100 A 
ATOM     23  C   LIG    1       -6.277  10.973  -1.354  0.00  0.00    +0.040 A 
ATOM     24  C   LIG    1       -5.888  10.838  -0.032  0.00  0.00    +0.240 A 
ATOM     25  N   LIG    1       -5.546   9.651   0.440  0.00  0.00    -0.240 NA
ATOM     26  N   LIG    1       -5.566   8.593  -0.286  0.00  0.00    -0.210 NA
ENDBRANCH   6  21
TORSDOF 4
