REMARK  Name = ZINCrg00000y7mb7.0
REMARK                            x       y       z     vdW  Elec       q    Type
REMARK                         _______ _______ _______ _____ _____    ______ ____
ROOT
ATOM      1  N   LIG    1        1.180  -1.047   5.498  0.00  0.00    -0.630 N 
ATOM      2  H   LIG    1        1.884  -0.827   6.127  0.00  0.00    +0.430 HD
ATOM      3  C   LIG    1        0.498  -2.203   5.626  0.00  0.00    +0.510 C 
ATOM      4  O   LIG    1       -0.382  -2.479   4.839  0.00  0.00    -0.480 OA
ENDROOT
BRANCH   1   6
ATOM      5  C   LIG    1        1.505   1.024   4.245  0.00  0.00    -0.220 A 
ATOM      6  C   LIG    1        0.875  -0.174   4.465  0.00  0.00    +0.080 A 
ATOM      7  S   LIG    1       -0.336  -0.441   3.296  0.00  0.00    +0.320 S 
ATOM      8  C   LIG    1        0.000   1.080   2.488  0.00  0.00    -0.250 A 
ATOM      9  C   LIG    1        0.985   1.728   3.093  0.00  0.00    +0.080 A 
BRANCH   5  10
ATOM     10  C   LIG    1        2.592   1.535   5.084  0.00  0.00    +0.540 C 
ATOM     11  O   LIG    1        2.982   0.885   6.036  0.00  0.00    -0.530 OA
BRANCH  10  12
ATOM     12  O   LIG    1        3.161   2.724   4.801  0.00  0.00    -0.350 OA
BRANCH  12  14
ATOM     13  C   LIG    1        4.749   4.527   5.199  0.00  0.00    +0.070 C 
ATOM     14  C   LIG    1        4.232   3.167   5.675  0.00  0.00    +0.200 C 
ENDBRANCH  12  14
ENDBRANCH  10  12
ENDBRANCH   5  10
BRANCH   8  15
ATOM     15  C   LIG    1       -0.729   1.579   1.267  0.00  0.00    +0.100 C 
ATOM     16  C   LIG    1       -0.013   1.086   0.008  0.00  0.00    +0.030 C 
ENDBRANCH   8  15
ENDBRANCH   1   6
BRANCH   3  17
ATOM     17  C   LIG    1        0.830  -3.152   6.748  0.00  0.00    +0.240 C 
BRANCH  17  18
ATOM     18  N   LIG    1       -0.047  -4.328   6.670  0.00  0.00    -0.510 NA
ATOM     19  C   LIG    1        0.229  -5.113   5.454  0.00  0.00    +0.190 C 
ATOM     20  C   LIG    1       -0.909  -6.109   5.269  0.00  0.00    +0.070 C 
ATOM     21  C   LIG    1       -1.077  -7.025   6.466  0.00  0.00    +0.010 C 
ATOM     22  C   LIG    1       -2.559  -7.349   6.606  0.00  0.00    +0.530 C 
ATOM     23  N   LIG    1       -3.008  -6.835   7.760  0.00  0.00    -0.680 N 
ATOM     24  H   LIG    1       -3.938  -6.886   8.032  0.00  0.00    +0.420 HD
ATOM     25  C   LIG    1       -2.062  -6.244   8.507  0.00  0.00    +0.540 C 
ATOM     26  O   LIG    1       -2.243  -5.672   9.560  0.00  0.00    -0.470 OA
ATOM     27  O   LIG    1       -3.224  -7.971   5.805  0.00  0.00    -0.470 OA
ATOM     28  C   LIG    1       -0.724  -6.418   7.809  0.00  0.00    +0.010 C 
ATOM     29  C   LIG    1        0.119  -5.186   7.844  0.00  0.00    +0.230 C 
ENDBRANCH  17  18
ENDBRANCH   3  17
TORSDOF 7
