REMARK  Name = ZINCtV00000L6k5L.0
REMARK                            x       y       z     vdW  Elec       q    Type
REMARK                         _______ _______ _______ _____ _____    ______ ____
ROOT
ATOM      1  S   LIG    1       -1.672   6.526   0.028  0.00  0.00    +0.090 S 
ENDROOT
BRANCH   1   8
ATOM      2  C   LIG    1       -2.552  -0.466  -0.049  0.00  0.00    +0.120 C 
ATOM      3  C   LIG    1       -2.528   1.040  -0.031  0.00  0.00    -0.040 A 
ATOM      4  C   LIG    1       -3.683   1.743  -0.015  0.00  0.00    +0.070 A 
ATOM      5  C   LIG    1       -3.660   3.158   0.002  0.00  0.00    +0.220 A 
ATOM      6  N   LIG    1       -4.620   4.064   0.019  0.00  0.00    -0.260 NA
ATOM      7  N   LIG    1       -4.108   5.243   0.030  0.00  0.00    -0.260 NA
ATOM      8  C   LIG    1       -2.796   5.169   0.020  0.00  0.00    +0.130 A 
ATOM      9  N   LIG    1       -2.466   3.845   0.002  0.00  0.00    -0.390 N 
ATOM     10  C   LIG    1       -1.259   3.169  -0.015  0.00  0.00    +0.130 A 
ATOM     11  C   LIG    1       -0.054   3.859  -0.015  0.00  0.00    +0.020 A 
ATOM     12  C   LIG    1        1.138   3.165  -0.032  0.00  0.00    +0.060 A 
ATOM     13  C   LIG    1        1.147   1.779  -0.048  0.00  0.00    +0.030 A 
ATOM     14  C   LIG    1       -0.036   1.074  -0.049  0.00  0.00    +0.070 A 
ATOM     15  C   LIG    1       -1.252   1.763  -0.038  0.00  0.00    -0.060 A 
ENDBRANCH   1   8
BRANCH   1  16
ATOM     16  C   LIG    1       -2.844   7.904   0.053  0.00  0.00    +0.010 C 
ATOM     17  C   LIG    1       -3.648   7.914  -1.249  0.00  0.00    +0.100 C 
BRANCH  16  18
ATOM     18  C   LIG    1       -2.090   9.202   0.187  0.00  0.00    +0.540 C 
ATOM     19  N   LIG    1       -2.696  10.282   0.720  0.00  0.00    -0.660 N 
ATOM     20  H   LIG    1       -3.635  10.242   0.958  0.00  0.00    +0.420 HD
ATOM     21  O   LIG    1       -0.938   9.276  -0.185  0.00  0.00    -0.490 OA
BRANCH  19  22
ATOM     22  C   LIG    1       -1.969  11.460   0.931  0.00  0.00    +0.170 A 
ATOM     23  C   LIG    1       -0.966  11.826   0.044  0.00  0.00    +0.080 A 
ATOM     24  C   LIG    1       -0.250  12.990   0.255  0.00  0.00    -0.010 A 
ATOM     25  C   LIG    1       -0.532  13.789   1.350  0.00  0.00    -0.040 A 
ATOM     26  C   LIG    1       -1.531  13.425   2.236  0.00  0.00    +0.090 A 
ATOM     27 CL   LIG    1        0.369  15.250   1.612  0.00  0.00    -0.030 Cl
ATOM     28 CL   LIG    1        1.004  13.449  -0.854  0.00  0.00    -0.030 Cl
ATOM     29  C   LIG    1       -2.253  12.266   2.027  0.00  0.00    -0.050 A 
ATOM     30 CL   LIG    1       -3.511  11.815   3.135  0.00  0.00    -0.040 Cl
ENDBRANCH  19  22
ENDBRANCH  16  18
ENDBRANCH   1  16
TORSDOF 4
