REMARK  Name = ZINCvU0000000AEf.0
REMARK                            x       y       z     vdW  Elec       q    Type
REMARK                         _______ _______ _______ _____ _____    ______ ____
ROOT
ATOM      1  C   LIG    1        2.038   6.324  -0.076  0.00  0.00    +0.100 C 
ENDROOT
BRANCH   1   3
ATOM      2  O   LIG    1        2.531   7.544   1.878  0.00  0.00    -0.490 OA
ATOM      3  C   LIG    1        2.147   7.590   0.734  0.00  0.00    +0.480 C 
BRANCH   3   4
ATOM      4  O   LIG    1        1.819   8.769   0.182  0.00  0.00    -0.350 OA
BRANCH   4   5
ATOM      5  C   LIG    1        1.950   9.948   1.021  0.00  0.00    +0.410 C 
BRANCH   5   6
ATOM      6  C   LIG    1        1.540  11.169   0.238  0.00  0.00    +0.150 A 
ATOM      7  N   LIG    1        0.338  11.669   0.166  0.00  0.00    -0.250 NA
ATOM      8  N   LIG    1        0.351  12.711  -0.589  0.00  0.00    -0.270 NA
ATOM      9  C   LIG    1        1.571  12.913  -1.028  0.00  0.00    +0.230 A 
ATOM     10  O   LIG    1        2.348  11.942  -0.507  0.00  0.00    -0.210 OA
BRANCH   9  11
ATOM     11  C   LIG    1        2.013  14.005  -1.921  0.00  0.00    -0.040 A 
ATOM     12  C   LIG    1        3.352  14.099  -2.304  0.00  0.00    +0.050 A 
ATOM     13  C   LIG    1        3.756  15.117  -3.143  0.00  0.00    +0.020 A 
ATOM     14  C   LIG    1        2.840  16.050  -3.595  0.00  0.00    +0.040 A 
ATOM     15  C   LIG    1        1.512  15.965  -3.215  0.00  0.00    +0.020 A 
ATOM     16  C   LIG    1        1.093  14.948  -2.382  0.00  0.00    +0.080 A 
ENDBRANCH   9  11
ENDBRANCH   5   6
ENDBRANCH   4   5
ENDBRANCH   3   4
ENDBRANCH   1   3
BRANCH   1  17
ATOM     17  C   LIG    1        2.468   5.132   0.781  0.00  0.00    +0.340 C 
BRANCH  17  18
ATOM     18  N   LIG    1        2.361   3.901  -0.005  0.00  0.00    -0.580 N 
ATOM     19  C   LIG    1        1.160   3.183   0.007  0.00  0.00    +0.190 A 
ATOM     20  C   LIG    1       -0.053   3.852   0.024  0.00  0.00    -0.020 A 
ATOM     21  C   LIG    1       -1.238   3.136   0.032  0.00  0.00    +0.050 A 
ATOM     22  C   LIG    1       -1.220   1.754   0.017  0.00  0.00    +0.000 A 
ATOM     23  C   LIG    1       -0.013   1.076   0.008  0.00  0.00    +0.080 A 
ATOM     24  C   LIG    1        1.174   1.786   0.000  0.00  0.00    -0.150 A 
ATOM     25  S   LIG    1        2.725   0.944  -0.016  0.00  0.00    +0.010 S 
ATOM     26  C   LIG    1        3.756   2.106  -0.853  0.00  0.00    -0.150 A 
ATOM     27  C   LIG    1        4.839   1.678  -1.598  0.00  0.00    +0.080 A 
ATOM     28  C   LIG    1        5.638   2.605  -2.246  0.00  0.00    +0.000 A 
ATOM     29  C   LIG    1        5.353   3.954  -2.148  0.00  0.00    +0.050 A 
ATOM     30  C   LIG    1        4.269   4.388  -1.404  0.00  0.00    -0.020 A 
ATOM     31  C   LIG    1        3.463   3.468  -0.753  0.00  0.00    +0.190 A 
ENDBRANCH  17  18
ENDBRANCH   1  17
TORSDOF 7
