REMARK  Name = ZINCpk000004AOxi.0
REMARK                            x       y       z     vdW  Elec       q    Type
REMARK                         _______ _______ _______ _____ _____    ______ ____
ROOT
ATOM      1  C   LIG    1        1.373   3.341  -0.138  0.00  0.00    +0.520 C 
ATOM      2  N   LIG    1        0.748   4.049   0.824  0.00  0.00    -0.670 N 
ATOM      3  H   LIG    1        0.383   3.596   1.600  0.00  0.00    +0.420 HD
ATOM      4  O   LIG    1        1.916   3.915  -1.058  0.00  0.00    -0.500 OA
ENDROOT
BRANCH   2   5
ATOM      5  C   LIG    1        0.624   5.439   0.701  0.00  0.00    +0.110 A 
ATOM      6  C   LIG    1        0.652   6.029  -0.552  0.00  0.00    +0.130 A 
ATOM      7  C   LIG    1        0.528   7.411  -0.663  0.00  0.00    -0.130 A 
ATOM      8  C   LIG    1        0.375   8.197   0.483  0.00  0.00    -0.040 A 
ATOM      9  C   LIG    1        0.241   9.689   0.338  0.00  0.00    +0.090 C 
ATOM     10  C   LIG    1        1.083  10.175  -0.840  0.00  0.00    +0.270 C 
ATOM     11  N   LIG    1        0.794   9.402  -2.045  0.00  0.00    -0.730 N 
ATOM     12  H   LIG    1        0.774   9.850  -2.905  0.00  0.00    +0.410 HD
ATOM     13  C   LIG    1        0.348   7.602   1.726  0.00  0.00    +0.010 A 
ATOM     14  C   LIG    1        0.555   8.077  -1.983  0.00  0.00    +0.570 C 
ATOM     15  O   LIG    1        0.365   7.437  -2.999  0.00  0.00    -0.530 OA
ATOM     16  C   LIG    1        0.466   6.226   1.839  0.00  0.00    +0.100 A 
ATOM     17  F   LIG    1        0.434   5.647   3.058  0.00  0.00    -0.130 F 
ENDBRANCH   2   5
BRANCH   1  23
ATOM     18  C   LIG    1       -0.658  -0.915   0.749  0.00  0.00    +0.550 C 
ATOM     19  N   LIG    1        0.007  -0.168  -0.154  0.00  0.00    -0.610 N 
ATOM     20  C   LIG    1        0.790  -0.805  -1.221  0.00  0.00    +0.270 C 
ATOM     21  C   LIG    1        2.216  -0.245  -1.188  0.00  0.00    +0.020 C 
ATOM     22  C   LIG    1        2.162   1.282  -1.274  0.00  0.00    +0.060 C 
ATOM     23  C   LIG    1        1.398   1.835  -0.069  0.00  0.00    -0.010 C 
ATOM     24  C   LIG    1       -0.037   1.299  -0.089  0.00  0.00    +0.300 C 
ATOM     25  O   LIG    1       -1.225  -0.380   1.682  0.00  0.00    -0.540 OA
BRANCH  18  27
ATOM     26  C   LIG    1       -1.436  -3.108   1.439  0.00  0.00    +0.140 C 
ATOM     27  C   LIG    1       -0.699  -2.379   0.606  0.00  0.00    -0.090 C 
ENDBRANCH  18  27
ENDBRANCH   1  23
TORSDOF 3
