REMARK  Name = ZINCpk00000KfKmv.0
REMARK                            x       y       z     vdW  Elec       q    Type
REMARK                         _______ _______ _______ _____ _____    ______ ____
ROOT
ATOM      1  C   LIG    1       -3.386   1.652  -1.055  0.00  0.00    +0.520 C 
ATOM      2  N   LIG    1       -2.241   1.190  -0.515  0.00  0.00    -0.620 N 
ATOM      3  C   LIG    1       -2.196  -0.097   0.198  0.00  0.00    +0.300 C 
ATOM      4  C   LIG    1       -1.280  -1.040  -0.581  0.00  0.00    +0.120 C 
ATOM      5  C   LIG    1        0.010  -0.353  -0.943  0.00  0.00    +0.030 A 
ATOM      6  N   LIG    1        1.055  -1.109  -1.251  0.00  0.00    -0.200 NA
ATOM      7  N   LIG    1        2.187  -0.618  -1.594  0.00  0.00    -0.290 NA
ATOM      8  C   LIG    1        2.396   0.689  -1.666  0.00  0.00    +0.340 A 
ATOM      9  C   LIG    1        1.357   1.565  -1.353  0.00  0.00    -0.030 A 
ATOM     10  C   LIG    1        0.136   1.021  -0.978  0.00  0.00    -0.060 A 
ATOM     11  C   LIG    1       -0.989   1.951  -0.614  0.00  0.00    +0.350 C 
ATOM     12  O   LIG    1       -4.384   0.963  -1.042  0.00  0.00    -0.500 OA
ENDROOT
BRANCH   8  13
ATOM     13  N   LIG    1        3.638   1.181  -2.048  0.00  0.00    -0.610 N 
ATOM     14  C   LIG    1        4.691   0.258  -2.480  0.00  0.00    +0.290 C 
ATOM     15  C   LIG    1        3.895   2.623  -2.020  0.00  0.00    +0.290 C 
ENDBRANCH   8  13
BRANCH   1  17
ATOM     16  C   LIG    1       -2.762   2.983  -3.052  0.00  0.00    +0.040 C 
ATOM     17  C   LIG    1       -3.427   3.025  -1.675  0.00  0.00    +0.150 C 
BRANCH  17  18
ATOM     18  O   LIG    1       -4.785   3.444  -1.815  0.00  0.00    -0.350 OA
BRANCH  18  19
ATOM     19  C   LIG    1       -4.969   4.859  -1.731  0.00  0.00    +0.200 C 
BRANCH  19  20
ATOM     20  C   LIG    1       -6.453   5.192  -1.893  0.00  0.00    +0.160 C 
ATOM     21  C   LIG    1       -6.635   6.711  -1.929  0.00  0.00    +0.000 C 
ATOM     22  C   LIG    1       -8.128   7.037  -2.031  0.00  0.00    +0.020 C 
ATOM     23  C   LIG    1       -8.862   6.391  -0.852  0.00  0.00    -0.020 C 
ATOM     24  C   LIG    1       -8.594   4.884  -0.858  0.00  0.00    +0.210 C 
ATOM     25  O   LIG    1       -7.186   4.652  -0.792  0.00  0.00    -0.370 OA
ENDBRANCH  19  20
ENDBRANCH  18  19
ENDBRANCH  17  18
ENDBRANCH   1  17
TORSDOF 5
