REMARK  Name = ZINCqH0000050hjQ.0
REMARK                            x       y       z     vdW  Elec       q    Type
REMARK                         _______ _______ _______ _____ _____    ______ ____
ROOT
ATOM      1  C   LIG    1        3.503   1.000   0.006  0.00  0.00    +0.620 C 
ATOM      2  N   LIG    1        4.019   2.245  -0.003  0.00  0.00    -0.710 N 
ATOM      3  H   LIG    1        3.429   3.015   0.003  0.00  0.00    +0.420 HD
ATOM      4  O   LIG    1        4.243   0.035  -0.002  0.00  0.00    -0.510 OA
ENDROOT
BRANCH   1   8
ATOM      5  C   LIG    1        0.001  -0.002   0.050  0.00  0.00    +0.060 A 
ATOM      6  N   LIG    1       -0.016   1.308   0.047  0.00  0.00    -0.330 NA
ATOM      7  O   LIG    1        1.100   1.771   0.033  0.00  0.00    +0.130 OA
ATOM      8  C   LIG    1        2.040   0.808   0.024  0.00  0.00    -0.090 A 
ATOM      9  C   LIG    1        1.371  -0.383   0.034  0.00  0.00    +0.060 A 
BRANCH   5  14
ATOM     10  C   LIG    1       -4.562  -3.516   0.112  0.00  0.00    +0.090 C 
ATOM     11  C   LIG    1       -3.368  -2.597   0.095  0.00  0.00    -0.070 A 
ATOM     12  C   LIG    1       -3.554  -1.226   0.095  0.00  0.00    +0.010 A 
ATOM     13  C   LIG    1       -2.464  -0.379   0.080  0.00  0.00    +0.050 A 
ATOM     14  C   LIG    1       -1.175  -0.907   0.066  0.00  0.00    -0.040 A 
ATOM     15  C   LIG    1       -0.994  -2.289   0.061  0.00  0.00    +0.040 A 
ATOM     16  C   LIG    1       -2.090  -3.126   0.081  0.00  0.00    +0.010 A 
ENDBRANCH   5  14
ENDBRANCH   1   8
BRANCH   2  17
ATOM     17  C   LIG    1        5.471   2.436  -0.021  0.00  0.00    +0.320 C 
BRANCH  17  18
ATOM     18  C   LIG    1        5.784   3.910  -0.027  0.00  0.00    +0.510 C 
ATOM     19  N   LIG    1        7.066   4.327  -0.044  0.00  0.00    -0.670 N 
ATOM     20  H   LIG    1        7.787   3.680   0.014  0.00  0.00    +0.420 HD
ATOM     21  O   LIG    1        4.883   4.721  -0.018  0.00  0.00    -0.510 OA
BRANCH  19  22
ATOM     22  C   LIG    1        7.357   5.692  -0.145  0.00  0.00    +0.170 A 
ATOM     23  C   LIG    1        6.527   6.627   0.460  0.00  0.00    +0.040 A 
ATOM     24  C   LIG    1        6.816   7.973   0.359  0.00  0.00    +0.060 A 
ATOM     25  C   LIG    1        7.931   8.392  -0.344  0.00  0.00    +0.010 A 
ATOM     26  C   LIG    1        8.760   7.464  -0.948  0.00  0.00    +0.070 A 
ATOM     27  C   LIG    1        8.480   6.115  -0.846  0.00  0.00    -0.120 A 
ATOM     28 BR   LIG    1        9.618   4.847  -1.665  0.00  0.00    -0.040 Br
ENDBRANCH  19  22
ENDBRANCH  17  18
ENDBRANCH   2  17
TORSDOF 5
