REMARK  Name = ZINCkj000005guu8.0
REMARK                            x       y       z     vdW  Elec       q    Type
REMARK                         _______ _______ _______ _____ _____    ______ ____
ROOT
ATOM      1  C   LIG    1       -0.416   3.820   2.205  0.00  0.00    +0.500 C 
ATOM      2  N   LIG    1       -0.858   3.043   1.196  0.00  0.00    -0.580 N 
ATOM      3  C   LIG    1       -0.731   1.581   1.267  0.00  0.00    +0.270 C 
ATOM      4  C   LIG    1       -0.013   1.086   0.008  0.00  0.00    +0.040 C 
ATOM      5  C   LIG    1       -0.754   1.593  -1.231  0.00  0.00    +0.050 C 
ATOM      6  C   LIG    1       -0.747   3.124  -1.240  0.00  0.00    +0.080 C 
ATOM      7  C   LIG    1       -1.474   3.642   0.004  0.00  0.00    +0.320 C 
ATOM      8  O   LIG    1       -0.525   5.026   2.134  0.00  0.00    -0.520 OA
ENDROOT
BRANCH   6   9
ATOM      9  C   LIG    1       -1.449   3.622  -2.477  0.00  0.00    +0.160 A 
ATOM     10  N   LIG    1       -2.690   3.389  -2.809  0.00  0.00    -0.280 NA
ATOM     11  N   LIG    1       -2.955   3.969  -3.926  0.00  0.00    -0.290 NA
ATOM     12  C   LIG    1       -1.896   4.599  -4.357  0.00  0.00    +0.380 A 
ATOM     13  N   LIG    1       -0.911   4.401  -3.447  0.00  0.00    -0.460 N 
BRANCH  13  14
ATOM     14  C   LIG    1        0.457   4.920  -3.502  0.00  0.00    +0.230 C 
ATOM     15  C   LIG    1        0.421   6.450  -3.528  0.00  0.00    +0.050 C 
ATOM     16  C   LIG    1        1.147   4.405  -4.767  0.00  0.00    +0.060 C 
ENDBRANCH  13  14
ENDBRANCH   6   9
BRANCH   1  17
ATOM     17  C   LIG    1        0.215   3.190   3.420  0.00  0.00    +0.180 C 
BRANCH  17  18
ATOM     18  N   LIG    1        0.172   4.139   4.541  0.00  0.00    -0.620 N 
ATOM     19  H   LIG    1        0.681   4.975   4.293  0.00  0.00    +0.440 HD
ATOM     20  H   LIG    1        0.595   3.718   5.354  0.00  0.00    +0.440 HD
ATOM     21  H   LIG    1       -0.787   4.377   4.744  0.00  0.00    +0.440 HD
ENDBRANCH  17  18
BRANCH  17  23
ATOM     22  C   LIG    1        2.272   2.079   4.301  0.00  0.00    +0.060 C 
ATOM     23  C   LIG    1        1.669   2.830   3.111  0.00  0.00    +0.070 C 
ENDBRANCH  17  23
ENDBRANCH   1  17
TORSDOF 5
