REMARK  Name = ZINCvU0000000FBF.0
REMARK                            x       y       z     vdW  Elec       q    Type
REMARK                         _______ _______ _______ _____ _____    ______ ____
ROOT
ATOM      1  C   LIG    1       -4.838  -2.859  -3.361  0.00  0.00    +0.440 A 
ATOM      2  C   LIG    1       -5.934  -3.606  -3.699  0.00  0.00    -0.070 A 
ATOM      3  C   LIG    1       -7.124  -3.435  -2.991  0.00  0.00    +0.220 A 
ATOM      4  N   LIG    1       -7.194  -2.565  -2.008  0.00  0.00    -0.480 NA
ATOM      5  C   LIG    1       -6.129  -1.825  -1.663  0.00  0.00    +0.280 A 
ATOM      6  C   LIG    1       -5.940  -0.858  -0.687  0.00  0.00    -0.090 A 
ATOM      7  C   LIG    1       -4.617  -0.416  -0.781  0.00  0.00    +0.160 A 
ATOM      8  N   LIG    1       -4.023  -1.069  -1.764  0.00  0.00    -0.290 NA
ATOM      9  C   LIG    1       -8.337  -4.252  -3.356  0.00  0.00    +0.160 C 
ATOM     10  N   LIG    1       -4.939  -1.960  -2.332  0.00  0.00    -0.330 N 
ENDROOT
BRANCH   7  11
ATOM     11  C   LIG    1       -3.987   0.619   0.076  0.00  0.00    -0.020 A 
ATOM     12  C   LIG    1       -4.695   1.165   1.144  0.00  0.00    +0.060 A 
ATOM     13  C   LIG    1       -4.109   2.128   1.941  0.00  0.00    -0.040 A 
ATOM     14  C   LIG    1       -2.816   2.554   1.681  0.00  0.00    +0.120 A 
ATOM     15  C   LIG    1       -2.104   2.011   0.614  0.00  0.00    +0.100 A 
ATOM     16  C   LIG    1       -2.689   1.050  -0.191  0.00  0.00    +0.000 A 
BRANCH  15  17
ATOM     17  O   LIG    1       -0.835   2.430   0.359  0.00  0.00    -0.300 OA
ATOM     18  C   LIG    1       -0.164   1.831  -0.751  0.00  0.00    +0.240 C 
ENDBRANCH  15  17
BRANCH  14  19
ATOM     19  O   LIG    1       -2.242   3.502   2.468  0.00  0.00    -0.300 OA
ATOM     20  C   LIG    1       -3.029   4.015   3.544  0.00  0.00    +0.240 C 
ENDBRANCH  14  19
ENDBRANCH   7  11
BRANCH   1  21
ATOM     21  N   LIG    1       -3.650  -3.009  -4.045  0.00  0.00    -0.680 N 
ATOM     22  H   LIG    1       -3.621  -2.866  -5.004  0.00  0.00    +0.420 HD
BRANCH  21  26
ATOM     23  C   LIG    1       -0.185  -4.075  -1.994  0.00  0.00    -0.110 A 
ATOM     24  C   LIG    1       -0.117  -3.730  -3.332  0.00  0.00    +0.050 A 
ATOM     25  C   LIG    1       -1.264  -3.376  -4.015  0.00  0.00    -0.040 A 
ATOM     26  C   LIG    1       -2.487  -3.367  -3.357  0.00  0.00    +0.180 A 
ATOM     27  C   LIG    1       -2.552  -3.709  -2.012  0.00  0.00    -0.040 A 
ATOM     28  C   LIG    1       -1.402  -4.067  -1.336  0.00  0.00    +0.040 A 
BRANCH  23  29
ATOM     29  C   LIG    1        1.068  -4.460  -1.252  0.00  0.00    +0.060 C 
BRANCH  29  30
ATOM     30  C   LIG    1        1.700  -3.211  -0.635  0.00  0.00    +0.010 C 
BRANCH  30  32
ATOM     31  C   LIG    1        3.604  -2.353   0.736  0.00  0.00    +0.000 C 
ATOM     32  C   LIG    1        2.973  -3.602   0.119  0.00  0.00    -0.010 C 
ENDBRANCH  30  32
ENDBRANCH  29  30
ENDBRANCH  23  29
ENDBRANCH  21  26
ENDBRANCH   1  21
TORSDOF 8
