REMARK  Name = ZINC590000006kTY.0
REMARK                            x       y       z     vdW  Elec       q    Type
REMARK                         _______ _______ _______ _____ _____    ______ ____
ROOT
ATOM      1  N   LIG    1        1.360   1.976  -0.000  0.00  0.00    -0.640 N 
ATOM      2  H   LIG    1        1.833   1.651  -0.831  0.00  0.00    +0.440 HD
ATOM      3  H   LIG    1        1.848   1.642   0.817  0.00  0.00    +0.440 HD
ATOM      4  H   LIG    1        1.347   2.985   0.005  0.00  0.00    +0.450 HD
ENDROOT
BRANCH   1   5
ATOM      5  C   LIG    1       -0.018   1.468   0.010  0.00  0.00    +0.460 C 
BRANCH   5   6
ATOM      6  C   LIG    1        0.002  -0.004   0.002  0.00  0.00    -0.220 C 
ATOM      7  C   LIG    1        0.018  -1.178  -0.004  0.00  0.00    -0.070 C 
ATOM      8 BR   LIG    1        0.044  -3.078  -0.015  0.00  0.00    +0.140 Br
ENDBRANCH   5   6
ENDBRANCH   1   5
TORSDOF 2
