REMARK  Name = ZINCpk00000y6wGu.0
REMARK                            x       y       z     vdW  Elec       q    Type
REMARK                         _______ _______ _______ _____ _____    ______ ____
ROOT
ATOM      1  C   LIG    1        0.002  -0.004   0.002  0.00  0.00    +0.260 C 
ATOM      2  C   LIG    1        1.147  -0.613   0.831  0.00  0.00    +0.180 C 
ATOM      3  N   LIG    1        1.314  -1.570  -0.285  0.00  0.00    -0.470 NA
ATOM      4  C   LIG    1        0.704  -0.607  -1.228  0.00  0.00    +0.170 C 
ENDROOT
BRANCH   1   8
ATOM      5  C   LIG    1       -0.792   3.684   0.465  0.00  0.00    +0.140 C 
ATOM      6  C   LIG    1        0.690   3.695   0.025  0.00  0.00    +0.090 C 
ATOM      7  C   LIG    1        1.081   2.234   0.004  0.00  0.00    +0.520 C 
ATOM      8  N   LIG    1       -0.018   1.461   0.010  0.00  0.00    -0.610 N 
ATOM      9  O   LIG    1        2.222   1.821  -0.016  0.00  0.00    -0.520 OA
ATOM     10  C   LIG    1       -1.241   2.272   0.020  0.00  0.00    +0.300 C 
BRANCH   5  15
ATOM     11  C   LIG    1       -1.949   5.351   5.043  0.00  0.00    +0.200 C 
ATOM     12  C   LIG    1       -1.395   4.542   3.899  0.00  0.00    +0.170 A 
ATOM     13  N   LIG    1       -0.669   3.469   3.996  0.00  0.00    -0.380 NA
ATOM     14  O   LIG    1       -0.387   3.052   2.892  0.00  0.00    +0.090 OA
ATOM     15  C   LIG    1       -0.913   3.849   1.958  0.00  0.00    +0.180 A 
ATOM     16  N   LIG    1       -1.560   4.799   2.589  0.00  0.00    -0.470 NA
ENDBRANCH   5  15
ENDBRANCH   1   8
BRANCH   3  17
ATOM     17  C   LIG    1        2.735  -1.780  -0.591  0.00  0.00    +0.290 C 
BRANCH  17  18
ATOM     18  C   LIG    1        3.379  -2.564   0.523  0.00  0.00    -0.030 A 
ATOM     19  C   LIG    1        3.479  -3.912   0.612  0.00  0.00    -0.040 A 
ATOM     20  C   LIG    1        4.161  -4.124   1.833  0.00  0.00    +0.050 A 
ATOM     21  N   LIG    1        4.393  -2.945   2.333  0.00  0.00    -0.360 NA
ATOM     22  O   LIG    1        3.971  -2.066   1.617  0.00  0.00    +0.100 OA
BRANCH  20  23
ATOM     23  C   LIG    1        4.542  -5.451   2.435  0.00  0.00    +0.030 C 
ATOM     24  C   LIG    1        3.851  -6.701   1.887  0.00  0.00    +0.040 C 
ATOM     25  C   LIG    1        3.489  -6.174   3.277  0.00  0.00    +0.040 C 
ENDBRANCH  20  23
ENDBRANCH  17  18
ENDBRANCH   3  17
TORSDOF 5
