REMARK  Name = ZINCqH00000028Lg.1
REMARK                            x       y       z     vdW  Elec       q    Type
REMARK                         _______ _______ _______ _____ _____    ______ ____
ROOT
ATOM      1  N   LIG    1       -3.446   1.285   1.446  0.00  0.00    -1.050 N 
ATOM      2  H   LIG    1       -3.470   0.659   2.187  0.00  0.00    +0.430 HD
ENDROOT
BRANCH   1   6
ATOM      3  C   LIG    1       -4.806   5.191   1.971  0.00  0.00    +0.110 A 
ATOM      4  C   LIG    1       -5.556   4.125   2.449  0.00  0.00    +0.010 A 
ATOM      5  C   LIG    1       -5.106   2.831   2.275  0.00  0.00    +0.030 A 
ATOM      6  C   LIG    1       -3.903   2.596   1.622  0.00  0.00    +0.110 A 
ATOM      7  C   LIG    1       -3.150   3.663   1.148  0.00  0.00    +0.040 A 
ATOM      8  C   LIG    1       -3.603   4.957   1.318  0.00  0.00    -0.010 A 
BRANCH   3  13
ATOM      9  C   LIG    1       -6.667  10.518   1.726  0.00  0.00    +0.030 C 
ATOM     10  C   LIG    1       -6.182   9.119   1.341  0.00  0.00    -0.030 C 
ATOM     11  C   LIG    1       -4.777   8.892   1.905  0.00  0.00    +0.030 C 
ATOM     12  C   LIG    1       -4.321   7.470   1.568  0.00  0.00    +0.180 C 
ATOM     13  N   LIG    1       -5.263   6.503   2.147  0.00  0.00    -0.490 N 
ATOM     14  C   LIG    1       -6.609   6.671   1.585  0.00  0.00    +0.180 C 
ATOM     15  C   LIG    1       -7.133   8.069   1.923  0.00  0.00    +0.020 C 
ENDBRANCH   3  13
ENDBRANCH   1   6
BRANCH   1  16
ATOM     16  S   LIG    1       -2.866   0.801  -0.028  0.00  0.00    +2.690 S 
ATOM     17  O   LIG    1       -1.884   1.757  -0.406  0.00  0.00    -0.940 OA
ATOM     18  O   LIG    1       -2.594  -0.589   0.085  0.00  0.00    -0.940 OA
BRANCH  16  19
ATOM     19  C   LIG    1       -4.185   0.957  -1.185  0.00  0.00    -0.690 A 
ATOM     20  C   LIG    1       -4.091   1.875  -2.216  0.00  0.00    +0.180 A 
ATOM     21  C   LIG    1       -5.118   1.999  -3.129  0.00  0.00    +0.050 A 
ATOM     22  C   LIG    1       -6.257   1.200  -3.009  0.00  0.00    +0.070 A 
ATOM     23  C   LIG    1       -6.349   0.279  -1.964  0.00  0.00    +0.030 A 
ATOM     24  C   LIG    1       -5.314   0.164  -1.055  0.00  0.00    +0.200 A 
ATOM     25  F   LIG    1       -5.401  -0.726  -0.043  0.00  0.00    -0.110 F 
BRANCH  22  26
ATOM     26  C   LIG    1       -7.325   1.324  -3.954  0.00  0.00    +0.240 C 
ATOM     27  N   LIG    1       -8.173   1.422  -4.704  0.00  0.00    -0.380 NA
ENDBRANCH  22  26
ENDBRANCH  16  19
ENDBRANCH   1  16
TORSDOF 5
