REMARK  Name = ZINCrg00000BvZ0L.0
REMARK                            x       y       z     vdW  Elec       q    Type
REMARK                         _______ _______ _______ _____ _____    ______ ____
ROOT
ATOM      1  O   LIG    1        4.612   1.899  -0.181  0.00  0.00    -0.520 OA
ATOM      2  C   LIG    1        3.504   2.390  -0.091  0.00  0.00    +0.560 C 
ATOM      3  N   LIG    1        3.363   3.729  -0.031  0.00  0.00    -0.720 N 
ATOM      4  H   LIG    1        2.478   4.121   0.041  0.00  0.00    +0.400 HD
ENDROOT
BRANCH   2   5
ATOM      5  C   LIG    1        2.311   1.518  -0.047  0.00  0.00    -0.120 A 
ATOM      6  C   LIG    1        1.032   2.079  -0.062  0.00  0.00    +0.040 A 
ATOM      7  C   LIG    1       -0.077   1.260  -0.020  0.00  0.00    +0.020 A 
ATOM      8  C   LIG    1        0.075  -0.114   0.036  0.00  0.00    +0.040 A 
ATOM      9  C   LIG    1        1.340  -0.676   0.050  0.00  0.00    +0.050 A 
ATOM     10  C   LIG    1        2.457   0.131   0.009  0.00  0.00    -0.060 A 
BRANCH  10  11
ATOM     11  C   LIG    1        3.834  -0.482   0.025  0.00  0.00    +0.390 C 
BRANCH  11  12
ATOM     12  N   LIG    1        4.342  -0.575  -1.346  0.00  0.00    -0.280 N 
ATOM     13  C   LIG    1        5.511  -0.061  -1.795  0.00  0.00    +0.180 A 
ATOM     14  C   LIG    1        5.583  -0.378  -3.108  0.00  0.00    +0.120 A 
ATOM     15  N   LIG    1        4.466  -1.055  -3.397  0.00  0.00    -0.270 NA
ATOM     16  N   LIG    1        3.752  -1.155  -2.332  0.00  0.00    -0.100 NA
ENDBRANCH  11  12
ENDBRANCH  10  11
ENDBRANCH   2   5
BRANCH   3  17
ATOM     17  C   LIG    1        4.545   4.593  -0.074  0.00  0.00    +0.260 C 
ATOM     18  C   LIG    1        4.230   5.954   0.580  0.00  0.00    +0.050 C 
ATOM     19  C   LIG    1        5.004   6.980  -0.285  0.00  0.00    -0.010 C 
ATOM     20  C   LIG    1        4.836   6.415  -1.717  0.00  0.00    +0.010 C 
ATOM     21  C   LIG    1        4.930   4.886  -1.535  0.00  0.00    +0.150 C 
BRANCH  21  22
ATOM     22  O   LIG    1        6.266   4.445  -1.787  0.00  0.00    -0.550 OA
ATOM     23  H   LIG    1        6.568   4.603  -2.692  0.00  0.00    +0.380 HD
ENDBRANCH  21  22
BRANCH  19  24
ATOM     24  C   LIG    1        4.374   8.369  -0.172  0.00  0.00    +0.310 C 
BRANCH  24  25
ATOM     25  N   LIG    1        5.123   9.314  -1.003  0.00  0.00    -0.460 N 
ATOM     26  C   LIG    1        6.193  10.072  -0.609  0.00  0.00    +0.110 A 
ATOM     27  C   LIG    1        6.577  10.792  -1.680  0.00  0.00    +0.140 A 
ATOM     28  N   LIG    1        5.757  10.490  -2.698  0.00  0.00    -0.490 NA
ATOM     29  C   LIG    1        4.884   9.606  -2.300  0.00  0.00    +0.380 A 
ENDBRANCH  24  25
ENDBRANCH  19  24
ENDBRANCH   3  17
TORSDOF 7
