REMARK  Name = ZINCrD000000BgxT.0
REMARK                            x       y       z     vdW  Elec       q    Type
REMARK                         _______ _______ _______ _____ _____    ______ ____
ROOT
ATOM      1  O   LIG    1       -0.572   7.470  -3.685  0.00  0.00    -0.510 OA
ATOM      2  C   LIG    1        0.282   6.757  -3.191  0.00  0.00    +0.580 C 
ATOM      3  N   LIG    1       -0.034   5.514  -2.778  0.00  0.00    -0.710 N 
ATOM      4  H   LIG    1        0.646   4.946  -2.384  0.00  0.00    +0.400 HD
ENDROOT
BRANCH   2   5
ATOM      5  C   LIG    1        1.651   7.248  -3.047  0.00  0.00    -0.290 A 
ATOM      6  C   LIG    1        2.096   8.491  -3.428  0.00  0.00    +0.190 A 
ATOM      7  C   LIG    1        3.439   8.685  -3.171  0.00  0.00    +0.000 A 
ATOM      8  C   LIG    1        4.064   7.649  -2.606  0.00  0.00    -0.030 A 
ATOM      9  S   LIG    1        2.990   6.348  -2.350  0.00  0.00    +0.250 S 
BRANCH   6  10
ATOM     10  N   LIG    1        1.275   9.458  -4.015  0.00  0.00    -0.390 N 
ATOM     11  C   LIG    1        0.448   9.259  -5.084  0.00  0.00    +0.210 A 
ATOM     12  C   LIG    1       -0.179  10.422  -5.355  0.00  0.00    -0.070 A 
ATOM     13  C   LIG    1        0.283  11.377  -4.426  0.00  0.00    -0.040 A 
ATOM     14  C   LIG    1        1.170  10.761  -3.619  0.00  0.00    +0.140 A 
ENDBRANCH   6  10
ENDBRANCH   2   5
BRANCH   3  15
ATOM     15  C   LIG    1       -1.406   5.021  -2.922  0.00  0.00    +0.280 C 
BRANCH  15  16
ATOM     16  C   LIG    1       -1.496   3.594  -2.379  0.00  0.00    +0.210 C 
BRANCH  16  17
ATOM     17  N   LIG    1       -1.006   3.565  -0.995  0.00  0.00    -0.520 NA
ATOM     18  C   LIG    1       -0.948   2.188  -0.485  0.00  0.00    +0.160 C 
ATOM     19  C   LIG    1       -0.378   2.199   0.936  0.00  0.00    +0.220 C 
ATOM     20  O   LIG    1       -1.181   3.047   1.761  0.00  0.00    -0.380 OA
ATOM     21  C   LIG    1       -1.260   4.397   1.293  0.00  0.00    +0.220 C 
ATOM     22  C   LIG    1       -1.839   4.408  -0.124  0.00  0.00    +0.150 C 
ENDBRANCH  16  17
BRANCH  16  23
ATOM     23  C   LIG    1       -2.929   3.131  -2.415  0.00  0.00    -0.120 A 
ATOM     24  C   LIG    1       -3.245   1.900  -2.957  0.00  0.00    +0.020 A 
ATOM     25  C   LIG    1       -4.560   1.474  -2.985  0.00  0.00    +0.000 A 
ATOM     26  C   LIG    1       -5.560   2.284  -2.481  0.00  0.00    +0.010 A 
ATOM     27  C   LIG    1       -5.245   3.518  -1.944  0.00  0.00    +0.000 A 
ATOM     28  C   LIG    1       -3.930   3.942  -1.911  0.00  0.00    +0.010 A 
ENDBRANCH  16  23
ENDBRANCH  15  16
ENDBRANCH   3  15
TORSDOF 6
