REMARK  Name = ZINCrH000004nxrZ.0
REMARK                            x       y       z     vdW  Elec       q    Type
REMARK                         _______ _______ _______ _____ _____    ______ ____
ROOT
ATOM      1  C   LIG    1       -0.587   6.267   0.625  0.00  0.00    +0.210 A 
ATOM      2  N   LIG    1        0.004   5.802  -0.451  0.00  0.00    -0.240 NA
ATOM      3  N   LIG    1        0.035   4.518  -0.415  0.00  0.00    -0.290 NA
ATOM      4  C   LIG    1       -0.534   4.083   0.687  0.00  0.00    +0.160 A 
ATOM      5  N   LIG    1       -0.955   5.180   1.384  0.00  0.00    -0.300 N 
ENDROOT
BRANCH   1  11
ATOM      6  C   LIG    1       -1.383   8.549   0.005  0.00  0.00    +0.180 A 
ATOM      7  C   LIG    1       -1.596   9.879   0.324  0.00  0.00    -0.070 A 
ATOM      8  C   LIG    1       -1.253  10.356   1.575  0.00  0.00    +0.070 A 
ATOM      9  C   LIG    1       -0.695   9.509   2.517  0.00  0.00    -0.020 A 
ATOM     10  C   LIG    1       -0.482   8.179   2.217  0.00  0.00    +0.060 A 
ATOM     11  C   LIG    1       -0.819   7.688   0.955  0.00  0.00    -0.070 A 
BRANCH   6  13
ATOM     12  C   LIG    1       -2.290   9.015  -2.142  0.00  0.00    +0.240 C 
ATOM     13  O   LIG    1       -1.719   8.080  -1.225  0.00  0.00    -0.300 OA
ENDBRANCH   6  13
ENDBRANCH   1  11
BRANCH   5  14
ATOM     14  N   LIG    1       -1.604   5.195   2.586  0.00  0.00    -0.580 N 
ATOM     15  H   LIG    1       -2.200   6.005   2.666  0.00  0.00    +0.380 HD
ATOM     16  H   LIG    1       -0.948   5.152   3.352  0.00  0.00    +0.370 HD
ENDBRANCH   5  14
BRANCH   4  17
ATOM     17  S   LIG    1       -0.726   2.400   1.171  0.00  0.00    +0.120 S 
BRANCH  17  18
ATOM     18  C   LIG    1        0.057   1.577  -0.238  0.00  0.00    +0.100 C 
BRANCH  18  19
ATOM     19  C   LIG    1        0.009   0.084  -0.038  0.00  0.00    +0.540 C 
ATOM     20  N   LIG    1        0.536  -0.738  -0.967  0.00  0.00    -0.660 N 
ATOM     21  H   LIG    1        0.893  -0.372  -1.792  0.00  0.00    +0.420 HD
ATOM     22  O   LIG    1       -0.505  -0.378   0.959  0.00  0.00    -0.500 OA
BRANCH  20  23
ATOM     23  C   LIG    1        0.569  -2.119  -0.742  0.00  0.00    +0.170 A 
ATOM     24  C   LIG    1       -0.460  -2.734  -0.042  0.00  0.00    +0.060 A 
ATOM     25  C   LIG    1       -0.427  -4.099   0.175  0.00  0.00    -0.010 A 
ATOM     26  C   LIG    1        0.635  -4.851  -0.297  0.00  0.00    +0.040 A 
ATOM     27  C   LIG    1        1.664  -4.240  -0.991  0.00  0.00    +0.070 A 
ATOM     28 CL   LIG    1       -1.715  -4.870   1.046  0.00  0.00    -0.050 Cl
ATOM     29  C   LIG    1        1.634  -2.877  -1.215  0.00  0.00    -0.060 A 
ATOM     30 CL   LIG    1        2.926  -2.111  -2.085  0.00  0.00    -0.050 Cl
ENDBRANCH  20  23
ENDBRANCH  18  19
ENDBRANCH  17  18
ENDBRANCH   4  17
TORSDOF 7
