REMARK  Name = ZINCbu0000000GKF.0
REMARK                            x       y       z     vdW  Elec       q    Type
REMARK                         _______ _______ _______ _____ _____    ______ ____
ROOT
ATOM      1  C   LIG    1       -2.204   5.301   0.051  0.00  0.00    +0.420 C 
ATOM      2  N   LIG    1       -2.389   3.951   0.045  0.00  0.00    -0.590 N 
ATOM      3  H   LIG    1       -3.281   3.568   0.052  0.00  0.00    +0.440 HD
ATOM      4  C   LIG    1       -1.266   3.141   0.030  0.00  0.00    +0.120 A 
ATOM      5  C   LIG    1       -1.218   1.739   0.017  0.00  0.00    +0.070 A 
ATOM      6  C   LIG    1       -0.013   1.076   0.008  0.00  0.00    +0.130 A 
ATOM      7  C   LIG    1        1.181   1.776   0.000  0.00  0.00    -0.090 A 
ATOM      8  C   LIG    1        1.158   3.158   0.007  0.00  0.00    +0.160 A 
ATOM      9  I   LIG    1        3.008   0.750  -0.023  0.00  0.00    +0.020 I 
ATOM     10  C   LIG    1       -0.052   3.829   0.022  0.00  0.00    -0.170 A 
ATOM     11  S   LIG    1       -0.451   5.552   0.036  0.00  0.00    +0.290 S 
ENDROOT
BRANCH   1  12
ATOM     12  N   LIG    1       -3.132   6.222   0.066  0.00  0.00    -0.700 NA
ATOM     13  H   LIG    1       -2.883   7.160   0.069  0.00  0.00    +0.460 HD
ATOM     14  H   LIG    1       -4.068   5.968   0.074  0.00  0.00    +0.440 HD
ENDBRANCH   1  12
TORSDOF 1
