REMARK  Name = ZINCnE000001TAtN.0
REMARK                            x       y       z     vdW  Elec       q    Type
REMARK                         _______ _______ _______ _____ _____    ______ ____
ROOT
ATOM      1  C   LIG    1       -0.784   2.748   0.696  0.00  0.00    +0.070 C 
ENDROOT
BRANCH   1   8
ATOM      2  C   LIG    1       -4.018   4.316   0.845  0.00  0.00    +0.150 C 
ATOM      3  C   LIG    1       -4.219   4.962  -0.525  0.00  0.00    +0.010 C 
ATOM      4  C   LIG    1       -3.621   6.370  -0.515  0.00  0.00    +0.000 C 
ATOM      5  C   LIG    1       -2.119   6.286  -0.235  0.00  0.00    -0.010 C 
ATOM      6  C   LIG    1       -1.895   5.657   1.143  0.00  0.00    +0.250 C 
ATOM      7  N   LIG    1       -2.590   4.363   1.191  0.00  0.00    -0.680 N 
ATOM      8  C   LIG    1       -1.931   3.241   1.540  0.00  0.00    +0.590 C 
ATOM      9  O   LIG    1       -2.260   2.628   2.534  0.00  0.00    -0.490 OA
BRANCH   2  11
ATOM     10  O   LIG    1       -5.588   2.585   1.206  0.00  0.00    -0.700 OA
ATOM     11  C   LIG    1       -4.479   2.882   0.798  0.00  0.00    +0.490 C 
ATOM     12  O   LIG    1       -3.742   2.019   0.352  0.00  0.00    -0.650 OA
ENDBRANCH   2  11
ENDBRANCH   1   8
BRANCH   1  13
ATOM     13  C   LIG    1       -0.114   1.560   1.390  0.00  0.00    -0.080 C 
ATOM     14  C   LIG    1        1.411   1.462   1.307  0.00  0.00    +0.010 C 
ATOM     15  C   LIG    1        0.740   1.854   2.625  0.00  0.00    +0.020 C 
BRANCH  13  16
ATOM     16  C   LIG    1       -0.908   0.253   1.375  0.00  0.00    +0.100 C 
BRANCH  16  17
ATOM     17  S   LIG    1       -1.665   0.023  -0.257  0.00  0.00    -0.040 S 
BRANCH  17  18
ATOM     18  C   LIG    1       -2.522  -1.507  -0.085  0.00  0.00    -0.070 A 
ATOM     19  C   LIG    1       -2.477  -2.199   1.119  0.00  0.00    -0.020 A 
ATOM     20  C   LIG    1       -3.155  -3.394   1.253  0.00  0.00    +0.020 A 
ATOM     21  C   LIG    1       -3.869  -3.909   0.186  0.00  0.00    -0.030 A 
ATOM     22  C   LIG    1       -3.912  -3.225  -1.016  0.00  0.00    +0.020 A 
ATOM     23  C   LIG    1       -3.241  -2.027  -1.155  0.00  0.00    +0.010 A 
ENDBRANCH  17  18
ENDBRANCH  16  17
ENDBRANCH  13  16
ENDBRANCH   1  13
TORSDOF 6
