REMARK  Name = ZINCqH0000038PxQ.0
REMARK                            x       y       z     vdW  Elec       q    Type
REMARK                         _______ _______ _______ _____ _____    ______ ____
ROOT
ATOM      1  C   LIG    1       -3.327   4.125  -2.216  0.00  0.00    +0.210 C 
ATOM      2  C   LIG    1       -3.454   4.410  -0.742  0.00  0.00    +0.030 A 
ATOM      3  C   LIG    1       -2.664   3.911   0.262  0.00  0.00    -0.240 A 
ATOM      4  C   LIG    1       -3.251   4.517   1.476  0.00  0.00    +0.090 A 
ATOM      5  N   LIG    1       -4.242   5.255   1.043  0.00  0.00    -0.320 NA
ATOM      6  O   LIG    1       -4.360   5.198  -0.157  0.00  0.00    +0.120 OA
ENDROOT
BRANCH   4   7
ATOM      7  C   LIG    1       -2.811   4.333   2.879  0.00  0.00    -0.060 A 
ATOM      8  C   LIG    1       -1.467   4.498   3.219  0.00  0.00    +0.140 A 
ATOM      9  C   LIG    1       -1.063   4.325   4.530  0.00  0.00    +0.000 A 
ATOM     10  C   LIG    1       -1.987   3.991   5.503  0.00  0.00    +0.090 A 
ATOM     11  C   LIG    1       -3.320   3.827   5.172  0.00  0.00    +0.030 A 
ATOM     12  F   LIG    1       -0.563   4.824   2.269  0.00  0.00    -0.110 F 
ATOM     13  C   LIG    1       -3.738   4.001   3.867  0.00  0.00    +0.020 A 
ATOM     14 CL   LIG    1       -5.413   3.802   3.455  0.00  0.00    -0.040 Cl
ENDBRANCH   4   7
BRANCH   3  15
ATOM     15  C   LIG    1       -1.518   2.993   0.158  0.00  0.00    +0.610 C 
ATOM     16  N   LIG    1       -1.716   1.660   0.196  0.00  0.00    -0.670 N 
ATOM     17  H   LIG    1       -2.618   1.304   0.218  0.00  0.00    +0.420 HD
ATOM     18  O   LIG    1       -0.392   3.437   0.036  0.00  0.00    -0.480 OA
BRANCH  16  19
ATOM     19  C   LIG    1       -0.618   0.788   0.204  0.00  0.00    +0.140 A 
ATOM     20  C   LIG    1       -0.468  -0.100   1.218  0.00  0.00    +0.220 A 
ATOM     21  N   LIG    1        0.594  -0.958   1.233  0.00  0.00    -0.390 N 
ATOM     22  C   LIG    1        1.000  -1.932   2.091  0.00  0.00    +0.350 A 
ATOM     23  N   LIG    1        2.103  -2.446   1.610  0.00  0.00    -0.250 NA
ATOM     24  N   LIG    1        2.421  -1.865   0.507  0.00  0.00    -0.280 NA
ATOM     25  C   LIG    1        1.524  -0.934   0.223  0.00  0.00    +0.190 A 
ATOM     26  C   LIG    1        1.383  -0.018  -0.837  0.00  0.00    +0.110 A 
ATOM     27  C   LIG    1        0.323   0.833  -0.846  0.00  0.00    +0.070 A 
ENDBRANCH  16  19
ENDBRANCH   3  15
TORSDOF 3
