REMARK  Name = ZINCrg00000yUyPF.0
REMARK                            x       y       z     vdW  Elec       q    Type
REMARK                         _______ _______ _______ _____ _____    ______ ____
ROOT
ATOM      1  C   LIG    1       -2.935   1.544   3.701  0.00  0.00    +0.250 C 
ATOM      2  N   LIG    1       -3.248   1.658   2.274  0.00  0.00    -1.170 NA
ATOM      3  S   LIG    1       -2.441   0.901   1.270  0.00  0.00    +2.330 S 
ATOM      4  C   LIG    1       -0.753   1.579   1.283  0.00  0.00    -0.350 C 
ATOM      5  C   LIG    1       -0.030   1.095   0.021  0.00  0.00    +0.060 C 
ATOM      6  C   LIG    1       -0.763   1.597  -1.220  0.00  0.00    +0.030 C 
ATOM      7  C   LIG    1       -2.073   0.846  -1.425  0.00  0.00    +0.170 C 
ATOM      8  C   LIG    1       -2.622   1.131  -2.836  0.00  0.00    +0.060 C 
ATOM      9  C   LIG    1       -3.207  -0.241  -3.265  0.00  0.00    +0.030 C 
ATOM     10  C   LIG    1       -2.203  -1.224  -2.613  0.00  0.00    +0.260 C 
ATOM     11  N   LIG    1       -1.847  -0.602  -1.325  0.00  0.00    -0.620 N 
ATOM     12  C   LIG    1       -1.391  -1.253  -0.236  0.00  0.00    +0.480 C 
ATOM     13  O   LIG    1       -1.035  -0.627   0.740  0.00  0.00    -0.460 OA
ATOM     14  O   LIG    1       -2.511  -0.476   1.615  0.00  0.00    -0.940 OA
ATOM     15  C   LIG    1       -3.107   1.281  -0.382  0.00  0.00    -0.220 C 
ENDROOT
BRANCH  12  16
ATOM     16  C   LIG    1       -1.323  -2.758  -0.232  0.00  0.00    +0.070 C 
BRANCH  16  17
ATOM     17  C   LIG    1       -0.774  -3.241   1.112  0.00  0.00    +0.350 C 
BRANCH  17  18
ATOM     18  N   LIG    1       -0.708  -4.704   1.115  0.00  0.00    -0.470 N 
ATOM     19  C   LIG    1       -1.652  -5.553   1.612  0.00  0.00    +0.470 A 
ATOM     20  N   LIG    1       -1.271  -6.786   1.449  0.00  0.00    -0.460 NA
ATOM     21  C   LIG    1       -0.058  -6.808   0.846  0.00  0.00    -0.110 A 
ATOM     22  C   LIG    1        0.823  -7.822   0.435  0.00  0.00    +0.510 A 
ATOM     23  N   LIG    1        1.968  -7.470  -0.142  0.00  0.00    -0.590 NA
ATOM     24  C   LIG    1        2.278  -6.200  -0.329  0.00  0.00    +0.560 A 
ATOM     25  N   LIG    1        1.484  -5.217   0.040  0.00  0.00    -0.560 NA
ATOM     26  C   LIG    1        0.318  -5.472   0.625  0.00  0.00    +0.300 A 
BRANCH  22  27
ATOM     27  N   LIG    1        0.507  -9.155   0.627  0.00  0.00    -0.820 N 
ATOM     28  H   LIG    1       -0.331  -9.399   1.050  0.00  0.00    +0.420 HD
ATOM     29  H   LIG    1        1.124  -9.846   0.339  0.00  0.00    +0.410 HD
ENDBRANCH  22  27
ENDBRANCH  17  18
ENDBRANCH  16  17
ENDBRANCH  12  16
TORSDOF 4
