REMARK  Name = ZINCqH0000051bqO.0
REMARK                            x       y       z     vdW  Elec       q    Type
REMARK                         _______ _______ _______ _____ _____    ______ ____
ROOT
ATOM      1  C   LIG    1       -1.520   7.379  -0.158  0.00  0.00    +0.240 C 
ENDROOT
BRANCH   1   3
ATOM      2  O   LIG    1       -2.436   5.206  -0.049  0.00  0.00    -0.490 OA
ATOM      3  C   LIG    1       -1.426   5.878  -0.054  0.00  0.00    +0.520 C 
ATOM      4  N   LIG    1       -0.220   5.283   0.033  0.00  0.00    -0.660 N 
ATOM      5  H   LIG    1        0.583   5.823   0.110  0.00  0.00    +0.420 HD
BRANCH   4   6
ATOM      6  C   LIG    1       -0.125   3.890   0.013  0.00  0.00    +0.190 A 
ATOM      7  C   LIG    1       -1.101   3.147  -0.581  0.00  0.00    +0.040 A 
ATOM      8  C   LIG    1       -1.033   1.756  -0.622  0.00  0.00    +0.070 A 
ATOM      9  C   LIG    1       -0.001   1.077  -0.064  0.00  0.00    +0.050 A 
ATOM     10  C   LIG    1        1.053   1.783   0.572  0.00  0.00    +0.100 A 
ATOM     11  N   LIG    1        2.149   1.350   1.173  0.00  0.00    -0.590 NA
ATOM     12  S   LIG    1        2.964   2.565   1.700  0.00  0.00    +0.810 S 
ATOM     13  N   LIG    1        2.046   3.733   1.240  0.00  0.00    -0.600 NA
ATOM     14  C   LIG    1        0.990   3.241   0.613  0.00  0.00    +0.060 A 
ENDBRANCH   4   6
ENDBRANCH   1   3
BRANCH   1  15
ATOM     15  O   LIG    1       -2.894   7.765  -0.238  0.00  0.00    -0.290 OA
BRANCH  15  16
ATOM     16  C   LIG    1       -3.156   9.094  -0.337  0.00  0.00    +0.140 A 
ATOM     17  C   LIG    1       -2.110  10.008  -0.351  0.00  0.00    -0.080 A 
ATOM     18  C   LIG    1       -2.372  11.357  -0.457  0.00  0.00    +0.070 A 
ATOM     19  C   LIG    1       -3.690  11.805  -0.538  0.00  0.00    -0.090 A 
ATOM     20  C   LIG    1       -4.738  10.886  -0.518  0.00  0.00    +0.080 A 
ATOM     21  C   LIG    1       -4.469   9.538  -0.418  0.00  0.00    +0.000 A 
BRANCH  19  22
ATOM     22  C   LIG    1       -3.976  13.256  -0.647  0.00  0.00    +0.010 A 
ATOM     23  C   LIG    1       -5.290  13.725  -0.736  0.00  0.00    -0.030 A 
ATOM     24  C   LIG    1       -5.511  15.083  -0.831  0.00  0.00    +0.270 A 
ATOM     25  N   LIG    1       -4.503  15.934  -0.848  0.00  0.00    -0.490 NA
ATOM     26  C   LIG    1       -3.248  15.533  -0.771  0.00  0.00    +0.260 A 
ATOM     27  C   LIG    1       -2.938  14.193  -0.668  0.00  0.00    -0.030 A 
ENDBRANCH  19  22
ENDBRANCH  15  16
ENDBRANCH   1  15
TORSDOF 5
