REMARK  Name = ZINCrg00000SjSuB.0
REMARK                            x       y       z     vdW  Elec       q    Type
REMARK                         _______ _______ _______ _____ _____    ______ ____
ROOT
ATOM      1  C   LIG    1       -0.061   0.130   0.086  0.00  0.00    +0.190 C 
ATOM      2  C   LIG    1       -0.064   1.646  -0.119  0.00  0.00    +0.070 C 
ENDROOT
BRANCH   1   5
ATOM      3  N   LIG    1       -2.225  -0.290  -1.036  0.00  0.00    -0.670 N 
ATOM      4  H   LIG    1       -1.877   0.170  -1.815  0.00  0.00    +0.420 HD
ATOM      5  C   LIG    1       -1.479  -0.380   0.083  0.00  0.00    +0.520 C 
ATOM      6  O   LIG    1       -1.949  -0.871   1.087  0.00  0.00    -0.490 OA
BRANCH   3  10
ATOM      7  C   LIG    1       -6.021  -1.989  -1.147  0.00  0.00    -0.190 A 
ATOM      8  C   LIG    1       -5.003  -2.593  -0.399  0.00  0.00    +0.100 A 
ATOM      9  C   LIG    1       -3.753  -2.030  -0.365  0.00  0.00    +0.000 A 
ATOM     10  C   LIG    1       -3.496  -0.860  -1.074  0.00  0.00    +0.180 A 
ATOM     11  C   LIG    1       -4.506  -0.253  -1.815  0.00  0.00    -0.020 A 
ATOM     12  C   LIG    1       -5.757  -0.812  -1.858  0.00  0.00    +0.090 A 
BRANCH   7  14
ATOM     13  C   LIG    1       -8.454  -1.938  -1.993  0.00  0.00    +0.080 C 
ATOM     14  C   LIG    1       -7.361  -2.589  -1.187  0.00  0.00    +0.390 C 
ATOM     15  O   LIG    1       -7.587  -3.609  -0.571  0.00  0.00    -0.460 OA
ENDBRANCH   7  14
ENDBRANCH   3  10
ENDBRANCH   1   5
BRANCH   1  16
ATOM     16  O   LIG    1        0.564  -0.185   1.359  0.00  0.00    -0.330 OA
BRANCH  16  17
ATOM     17  C   LIG    1        1.891  -0.389   1.352  0.00  0.00    +0.470 C 
ATOM     18  O   LIG    1        2.510  -0.306   0.318  0.00  0.00    -0.500 OA
BRANCH  17  19
ATOM     19  C   LIG    1        2.608  -0.720   2.635  0.00  0.00    +0.130 C 
BRANCH  19  20
ATOM     20  C   LIG    1        4.101  -0.901   2.353  0.00  0.00    +0.030 C 
BRANCH  20  21
ATOM     21  C   LIG    1        4.830  -1.238   3.655  0.00  0.00    +0.320 C 
BRANCH  21  22
ATOM     22  N   LIG    1        6.259  -1.411   3.385  0.00  0.00    -0.580 N 
ATOM     23  C   LIG    1        6.831  -2.589   3.063  0.00  0.00    +0.520 C 
ATOM     24  C   LIG    1        8.305  -2.290   2.874  0.00  0.00    +0.320 C 
ATOM     25  N   LIG    1        8.402  -0.845   3.143  0.00  0.00    -0.730 N 
ATOM     26  H   LIG    1        9.207  -0.304   3.118  0.00  0.00    +0.440 HD
ATOM     27  O   LIG    1        6.280  -3.663   2.948  0.00  0.00    -0.460 OA
ATOM     28  C   LIG    1        7.158  -0.422   3.432  0.00  0.00    +0.700 C 
ATOM     29  O   LIG    1        6.882   0.730   3.704  0.00  0.00    -0.540 OA
ENDBRANCH  21  22
ENDBRANCH  20  21
ENDBRANCH  19  20
ENDBRANCH  17  19
ENDBRANCH  16  17
ENDBRANCH   1  16
TORSDOF 9
