REMARK  Name = ZINCrD00000F5LGB.0
REMARK                            x       y       z     vdW  Elec       q    Type
REMARK                         _______ _______ _______ _____ _____    ______ ____
ROOT
ATOM      1  N   LIG    1        3.372   3.537   1.103  0.00  0.00    -0.620 N 
ATOM      2  C   LIG    1        3.222   4.321   0.017  0.00  0.00    +0.710 C 
ATOM      3  N   LIG    1        3.380   5.655   0.122  0.00  0.00    -0.680 N 
ATOM      4  H   LIG    1        3.525   6.059   0.992  0.00  0.00    +0.400 HD
ATOM      5  O   LIG    1        2.944   3.824  -1.058  0.00  0.00    -0.550 OA
ENDROOT
BRANCH   3   6
ATOM      6  C   LIG    1        3.333   6.458  -1.024  0.00  0.00    +0.180 A 
ATOM      7  C   LIG    1        3.810   5.971  -2.234  0.00  0.00    +0.030 A 
ATOM      8  C   LIG    1        3.759   6.763  -3.364  0.00  0.00    +0.050 A 
ATOM      9  C   LIG    1        3.243   8.045  -3.289  0.00  0.00    -0.050 A 
ATOM     10  C   LIG    1        2.773   8.535  -2.083  0.00  0.00    +0.050 A 
ATOM     11 CL   LIG    1        3.186   9.040  -4.710  0.00  0.00    -0.070 Cl
ATOM     12  C   LIG    1        2.817   7.745  -0.951  0.00  0.00    -0.010 A 
ENDBRANCH   3   6
BRANCH   1  13
ATOM     13  C   LIG    1        3.707   4.135   2.398  0.00  0.00    +0.370 C 
BRANCH  13  19
ATOM     14  C   LIG    1        5.604   1.870   3.449  0.00  0.00    +0.320 C 
ATOM     15  N   LIG    1        6.022   3.203   3.009  0.00  0.00    -0.450 N 
ATOM     16  C   LIG    1        7.286   3.678   2.981  0.00  0.00    +0.400 A 
ATOM     17  N   LIG    1        7.262   4.904   2.536  0.00  0.00    -0.490 NA
ATOM     18  C   LIG    1        5.996   5.251   2.262  0.00  0.00    +0.170 A 
ATOM     19  C   LIG    1        5.205   4.200   2.549  0.00  0.00    -0.060 A 
ENDBRANCH  13  19
ENDBRANCH   1  13
BRANCH   1  20
ATOM     20  C   LIG    1        3.201   2.086   0.989  0.00  0.00    +0.330 C 
BRANCH  20  21
ATOM     21  C   LIG    1        1.737   1.724   1.246  0.00  0.00    +0.120 C 
ATOM     22  O   LIG    1        0.917   2.277   0.212  0.00  0.00    -0.350 OA
ATOM     23  C   LIG    1       -0.469   1.949   0.343  0.00  0.00    +0.180 C 
ATOM     24  C   LIG    1       -0.626   0.425   0.347  0.00  0.00    +0.190 C 
ATOM     25  O   LIG    1        0.193  -0.128   1.381  0.00  0.00    -0.370 OA
ATOM     26  C   LIG    1        1.580   0.201   1.250  0.00  0.00    +0.080 C 
ATOM     27  C   LIG    1        2.120  -0.374  -0.061  0.00  0.00    +0.030 C 
ATOM     28  C   LIG    1        2.359  -0.391   2.427  0.00  0.00    +0.070 C 
ENDBRANCH  20  21
ENDBRANCH   1  20
TORSDOF 5
