REMARK  Name = ZINCpe00000z4t1f.1
REMARK                            x       y       z     vdW  Elec       q    Type
REMARK                         _______ _______ _______ _____ _____    ______ ____
ROOT
ATOM      1  C   LIG    1       -1.573   2.615  -0.744  0.00  0.00    +0.110 C 
ATOM      2  C   LIG    1       -1.590   2.737   0.800  0.00  0.00    +0.280 C 
ATOM      3  N   LIG    1       -0.478   1.881   1.262  0.00  0.00    -0.610 N 
ATOM      4  C   LIG    1        0.497   1.752   0.169  0.00  0.00    +0.260 C 
ATOM      5  C   LIG    1       -0.374   1.312   2.479  0.00  0.00    +0.580 C 
ATOM      6  O   LIG    1       -1.198   1.558   3.338  0.00  0.00    -0.500 OA
ATOM      7  C   LIG    1       -0.050   2.548  -1.034  0.00  0.00    +0.000 C 
ENDROOT
BRANCH   1  10
ATOM      8  C   LIG    1       -3.856   2.595  -2.882  0.00  0.00    +0.150 C 
ATOM      9  C   LIG    1       -3.181   3.817  -2.315  0.00  0.00    +0.110 A 
ATOM     10  C   LIG    1       -2.194   3.826  -1.390  0.00  0.00    -0.240 A 
ATOM     11  C   LIG    1       -1.855   5.159  -1.135  0.00  0.00    +0.240 A 
ATOM     12  N   LIG    1       -2.605   5.923  -1.887  0.00  0.00    -0.290 NA
ATOM     13  N   LIG    1       -3.454   5.099  -2.638  0.00  0.00    -0.370 N 
ATOM     14  C   LIG    1       -4.459   5.549  -3.604  0.00  0.00    +0.360 C 
ENDBRANCH   1  10
BRANCH   5  15
ATOM     15  C   LIG    1        0.742   0.387   2.770  0.00  0.00    -0.100 A 
ATOM     16  C   LIG    1        2.053   0.701   2.394  0.00  0.00    +0.040 A 
ATOM     17  C   LIG    1        3.067  -0.189   2.690  0.00  0.00    +0.160 A 
ATOM     18  N   LIG    1        2.815  -1.327   3.308  0.00  0.00    -0.440 NA
ATOM     19  C   LIG    1        1.597  -1.669   3.676  0.00  0.00    +0.280 A 
ATOM     20 CL   LIG    1        4.698   0.193   2.235  0.00  0.00    -0.010 Cl
ATOM     21  C   LIG    1        0.517  -0.834   3.425  0.00  0.00    +0.110 A 
BRANCH  21  22
ATOM     22  O   LIG    1       -0.735  -1.191   3.807  0.00  0.00    -0.470 OA
ATOM     23  H   LIG    1       -1.222  -1.691   3.138  0.00  0.00    +0.400 HD
ENDBRANCH  21  22
ENDBRANCH   5  15
BRANCH   7  24
ATOM     24  C   LIG    1        0.215   1.816  -2.324  0.00  0.00    +0.530 C 
ATOM     25  O   LIG    1       -0.711   1.456  -3.018  0.00  0.00    -0.530 OA
ATOM     26  N   LIG    1        1.483   1.560  -2.705  0.00  0.00    -0.850 N 
ATOM     27  H   LIG    1        1.654   1.089  -3.535  0.00  0.00    +0.400 HD
ATOM     28  H   LIG    1        2.224   1.849  -2.150  0.00  0.00    +0.400 HD
ENDBRANCH   7  24
TORSDOF 4
