REMARK  Name = ZINCrD000000fmvg.0
REMARK                            x       y       z     vdW  Elec       q    Type
REMARK                         _______ _______ _______ _____ _____    ______ ____
ROOT
ATOM      1  N   LIG    1        1.181   1.543   0.449  0.00  0.00    -0.560 N 
ATOM      2  C   LIG    1       -0.112   1.189   0.608  0.00  0.00    +0.510 C 
ATOM      3  C   LIG    1       -0.092  -0.288   0.871  0.00  0.00    +0.510 C 
ATOM      4  N   LIG    1        1.211  -0.641   0.837  0.00  0.00    -0.570 N 
ATOM      5  O   LIG    1       -1.045  -1.011   1.071  0.00  0.00    -0.410 OA
ATOM      6  O   LIG    1       -1.085   1.911   0.547  0.00  0.00    -0.410 OA
ATOM      7  C   LIG    1        1.951   0.451   0.587  0.00  0.00    +0.710 C 
ATOM      8  O   LIG    1        3.162   0.451   0.496  0.00  0.00    -0.470 OA
ENDROOT
BRANCH   1   9
ATOM      9  C   LIG    1        1.666   2.897   0.170  0.00  0.00    +0.500 C 
BRANCH   9  10
ATOM     10  N   LIG    1        1.929   3.593   1.437  0.00  0.00    -0.550 NA
BRANCH  10  11
ATOM     11  C   LIG    1        0.688   4.128   2.011  0.00  0.00    +0.210 C 
BRANCH  11  13
ATOM     12  C   LIG    1        0.649   5.699   3.880  0.00  0.00    +0.020 C 
ATOM     13  C   LIG    1        0.918   4.489   3.456  0.00  0.00    -0.040 C 
ENDBRANCH  11  13
ENDBRANCH  10  11
BRANCH  10  14
ATOM     14  C   LIG    1        2.927   4.657   1.255  0.00  0.00    +0.300 C 
BRANCH  14  15
ATOM     15  C   LIG    1        4.300   4.045   1.150  0.00  0.00    -0.170 A 
ATOM     16  C   LIG    1        4.928   3.757   0.009  0.00  0.00    +0.020 A 
ATOM     17  C   LIG    1        6.186   3.199   0.161  0.00  0.00    +0.030 A 
ATOM     18  C   LIG    1        6.579   3.034   1.426  0.00  0.00    -0.150 A 
ATOM     19 CL   LIG    1        8.102   2.363   1.921  0.00  0.00    -0.010 Cl
ATOM     20  S   LIG    1        5.322   3.609   2.513  0.00  0.00    +0.180 S 
ENDBRANCH  14  15
ENDBRANCH  10  14
ENDBRANCH   9  10
ENDBRANCH   1   9
BRANCH   4  21
ATOM     21  C   LIG    1        1.732  -1.995   1.041  0.00  0.00    +0.380 C 
BRANCH  21  22
ATOM     22  C   LIG    1        1.807  -2.709  -0.284  0.00  0.00    -0.130 A 
ATOM     23  C   LIG    1        0.728  -3.447  -0.734  0.00  0.00    +0.030 A 
ATOM     24  C   LIG    1        0.796  -4.098  -1.951  0.00  0.00    +0.010 A 
ATOM     25  C   LIG    1        1.946  -4.020  -2.714  0.00  0.00    +0.010 A 
ATOM     26  C   LIG    1        3.026  -3.286  -2.262  0.00  0.00    +0.010 A 
ATOM     27  C   LIG    1        2.957  -2.631  -1.047  0.00  0.00    +0.040 A 
ENDBRANCH  21  22
ENDBRANCH   4  21
TORSDOF 8
