REMARK  Name = ZINCpk00000KfKYA.0
REMARK                            x       y       z     vdW  Elec       q    Type
REMARK                         _______ _______ _______ _____ _____    ______ ____
ROOT
ATOM      1  N   LIG    1       -0.624   1.599   1.170  0.00  0.00    -0.510 N 
ATOM      2  C   LIG    1       -0.291   2.779   1.734  0.00  0.00    +0.570 C 
ATOM      3  C   LIG    1       -1.014   3.199   2.947  0.00  0.00    -0.430 C 
ATOM      4  C   LIG    1       -2.048   2.284   3.463  0.00  0.00    +0.580 C 
ATOM      5  N   LIG    1       -2.270   1.132   2.797  0.00  0.00    -0.510 N 
ATOM      6  O   LIG    1       -2.684   2.559   4.463  0.00  0.00    -0.490 OA
ATOM      7  C   LIG    1       -0.732   4.397   3.577  0.00  0.00    +0.360 C 
ATOM      8  C   LIG    1       -1.579   4.858   4.734  0.00  0.00    +0.170 C 
ATOM      9  O   LIG    1        0.579   3.479   1.251  0.00  0.00    -0.510 OA
ATOM     10  C   LIG    1       -1.576   0.816   1.694  0.00  0.00    +0.530 C 
ATOM     11  S   LIG    1       -1.926  -0.668   0.914  0.00  0.00    -0.530 S 
ENDROOT
BRANCH   1  13
ATOM     12  C   LIG    1       -0.670   1.670  -1.274  0.00  0.00    +0.050 C 
ATOM     13  C   LIG    1        0.077   1.161  -0.040  0.00  0.00    +0.320 C 
ENDBRANCH   1  13
BRANCH   5  14
ATOM     14  C   LIG    1       -3.292   0.205   3.290  0.00  0.00    +0.320 C 
ATOM     15  C   LIG    1       -2.657  -0.778   4.274  0.00  0.00    +0.050 C 
ENDBRANCH   5  14
BRANCH   7  16
ATOM     16  N   LIG    1        0.302   5.152   3.155  0.00  0.00    -0.440 N 
ATOM     17  H   LIG    1        0.797   4.898   2.361  0.00  0.00    +0.460 HD
BRANCH  16  18
ATOM     18  N   LIG    1        0.662   6.305   3.865  0.00  0.00    -0.540 N 
ATOM     19  H   LIG    1        0.125   6.600   4.617  0.00  0.00    +0.430 HD
ATOM     20  C   LIG    1        1.756   7.005   3.503  0.00  0.00    +0.520 C 
ATOM     21  O   LIG    1        2.428   6.638   2.563  0.00  0.00    -0.510 OA
BRANCH  20  22
ATOM     22  C   LIG    1        2.143   8.245   4.267  0.00  0.00    +0.020 C 
ATOM     23  C   LIG    1        1.007   9.268   4.190  0.00  0.00    +0.020 C 
ATOM     24  C   LIG    1        1.401  10.527   4.965  0.00  0.00    +0.020 C 
ATOM     25  C   LIG    1        2.669  11.126   4.354  0.00  0.00    +0.000 C 
ATOM     26  C   LIG    1        3.805  10.104   4.432  0.00  0.00    +0.020 C 
ATOM     27  C   LIG    1        3.411   8.845   3.657  0.00  0.00    +0.040 C 
ENDBRANCH  20  22
ENDBRANCH  16  18
ENDBRANCH   7  16
TORSDOF 5
