REMARK  Name = ZINCvU00000007UT.0
REMARK                            x       y       z     vdW  Elec       q    Type
REMARK                         _______ _______ _______ _____ _____    ______ ____
ROOT
ATOM      1  C   LIG    1       -0.507   5.634   2.453  0.00  0.00    -0.010 A 
ATOM      2  C   LIG    1       -0.650   4.598   1.501  0.00  0.00    -0.180 A 
ATOM      3  C   LIG    1       -1.229   4.525   0.217  0.00  0.00    +0.300 A 
ATOM      4  N   LIG    1       -1.088   3.312  -0.235  0.00  0.00    -0.230 NA
ATOM      5  N   LIG    1       -0.418   2.529   0.713  0.00  0.00    -0.380 N 
ATOM      6  C   LIG    1       -0.144   3.316   1.801  0.00  0.00    +0.320 A 
ATOM      7  N   LIG    1        0.466   3.091   2.955  0.00  0.00    -0.470 NA
ATOM      8  C   LIG    1        0.615   4.041   3.864  0.00  0.00    +0.240 A 
ATOM      9  C   LIG    1        0.138   5.337   3.648  0.00  0.00    -0.030 A 
ENDROOT
BRANCH   8  10
ATOM     10  C   LIG    1        1.303   3.723   5.138  0.00  0.00    -0.060 A 
ATOM     11  C   LIG    1        2.309   4.560   5.617  0.00  0.00    +0.040 A 
ATOM     12  C   LIG    1        2.946   4.260   6.804  0.00  0.00    +0.000 A 
ATOM     13  C   LIG    1        2.587   3.131   7.518  0.00  0.00    +0.030 A 
ATOM     14  C   LIG    1        1.589   2.296   7.048  0.00  0.00    +0.010 A 
ATOM     15  C   LIG    1        0.942   2.590   5.865  0.00  0.00    -0.040 A 
ATOM     16  C   LIG    1       -0.150   1.683   5.357  0.00  0.00    +0.090 C 
ENDBRANCH   8  10
BRANCH   1  19
ATOM     17  N   LIG    1       -0.879   7.964   3.106  0.00  0.00    -0.660 N 
ATOM     18  H   LIG    1       -0.504   7.755   3.975  0.00  0.00    +0.410 HD
ATOM     19  C   LIG    1       -1.027   6.992   2.184  0.00  0.00    +0.560 C 
ATOM     20  O   LIG    1       -1.588   7.231   1.133  0.00  0.00    -0.490 OA
BRANCH  17  27
ATOM     21  C   LIG    1       -1.395   9.737   5.271  0.00  0.00    +0.090 C 
ATOM     22  C   LIG    1       -1.529  10.173   3.834  0.00  0.00    -0.110 A 
ATOM     23  C   LIG    1       -1.907  11.467   3.537  0.00  0.00    +0.030 A 
ATOM     24  C   LIG    1       -2.035  11.866   2.219  0.00  0.00    +0.010 A 
ATOM     25  C   LIG    1       -1.780  10.973   1.195  0.00  0.00    -0.080 A 
ATOM     26  C   LIG    1       -1.397   9.678   1.486  0.00  0.00    +0.040 A 
ATOM     27  C   LIG    1       -1.267   9.274   2.808  0.00  0.00    +0.140 A 
BRANCH  25  28
ATOM     28  C   LIG    1       -1.922  11.412  -0.240  0.00  0.00    +0.240 C 
BRANCH  28  29
ATOM     29  O   LIG    1       -3.259  11.171  -0.682  0.00  0.00    -0.570 OA
ATOM     30  H   LIG    1       -3.422  11.430  -1.599  0.00  0.00    +0.380 HD
ENDBRANCH  28  29
ENDBRANCH  25  28
ENDBRANCH  17  27
ENDBRANCH   1  19
BRANCH   5  31
ATOM     31  C   LIG    1       -0.074   1.112   0.569  0.00  0.00    +0.270 C 
ATOM     32  C   LIG    1       -1.353   0.294   0.376  0.00  0.00    +0.050 C 
ATOM     33  C   LIG    1        0.836   0.929  -0.647  0.00  0.00    +0.050 C 
ENDBRANCH   5  31
TORSDOF 6
