REMARK  Name = ZINCrH000004jl1N.0
REMARK                            x       y       z     vdW  Elec       q    Type
REMARK                         _______ _______ _______ _____ _____    ______ ____
ROOT
ATOM      1  C   LIG    1       -7.198   5.440   2.531  0.00  0.00    +0.110 A 
ATOM      2  C   LIG    1       -6.450   4.443   3.143  0.00  0.00    +0.030 A 
ATOM      3  C   LIG    1       -5.274   4.007   2.564  0.00  0.00    -0.030 A 
ATOM      4  C   LIG    1       -4.834   4.572   1.376  0.00  0.00    +0.180 A 
ATOM      5  C   LIG    1       -5.583   5.571   0.761  0.00  0.00    +0.040 A 
ATOM      6  F   LIG    1       -5.158   6.117  -0.399  0.00  0.00    -0.140 F 
ATOM      7  C   LIG    1       -6.762   6.003   1.339  0.00  0.00    +0.050 A 
ENDROOT
BRANCH   1   9
ATOM      8  C   LIG    1       -8.753   7.174   3.025  0.00  0.00    +0.510 C 
ATOM      9  N   LIG    1       -8.394   5.878   3.116  0.00  0.00    -0.670 N 
ATOM     10  H   LIG    1       -8.962   5.249   3.587  0.00  0.00    +0.410 HD
ATOM     11  O   LIG    1       -8.086   7.943   2.366  0.00  0.00    -0.510 OA
BRANCH   8  12
ATOM     12  C   LIG    1       -9.984   7.666   3.742  0.00  0.00    +0.160 C 
BRANCH  12  17
ATOM     13  C   LIG    1       -9.654  10.225   4.230  0.00  0.00    +0.040 A 
ATOM     14  N   LIG    1      -10.058  11.307   3.630  0.00  0.00    -0.360 NA
ATOM     15  O   LIG    1      -10.727  11.053   2.655  0.00  0.00    +0.100 OA
ATOM     16  C   LIG    1      -10.852   9.730   2.475  0.00  0.00    -0.010 A 
ATOM     17  C   LIG    1      -10.162   9.139   3.480  0.00  0.00    -0.190 A 
BRANCH  13  19
ATOM     18  C   LIG    1       -7.329  10.118   5.086  0.00  0.00    +0.030 C 
ATOM     19  C   LIG    1       -8.809  10.145   5.475  0.00  0.00    +0.110 C 
ENDBRANCH  13  19
BRANCH  16  20
ATOM     20  C   LIG    1      -11.609   9.038   1.371  0.00  0.00    +0.130 C 
ATOM     21  C   LIG    1      -13.055   8.804   1.814  0.00  0.00    +0.040 C 
ENDBRANCH  16  20
ENDBRANCH  12  17
ENDBRANCH   8  12
ENDBRANCH   1   9
BRANCH   4  22
ATOM     22  N   LIG    1       -3.639   4.133   0.791  0.00  0.00    -0.740 N 
ATOM     23  H   LIG    1       -3.334   4.525  -0.042  0.00  0.00    +0.410 HD
BRANCH  22  24
ATOM     24  C   LIG    1       -2.851   3.081   1.438  0.00  0.00    +0.280 C 
BRANCH  24  25
ATOM     25  C   LIG    1       -1.604   2.791   0.601  0.00  0.00    +0.140 C 
ATOM     26  C   LIG    1       -0.800   1.606   1.202  0.00  0.00    +0.020 C 
ATOM     27  C   LIG    1       -0.033   1.078  -0.034  0.00  0.00    +0.000 C 
ATOM     28  C   LIG    1       -0.837   1.609  -1.237  0.00  0.00    +0.200 C 
ATOM     29  O   LIG    1       -1.972   2.318  -0.713  0.00  0.00    -0.370 OA
ENDBRANCH  24  25
ENDBRANCH  22  24
ENDBRANCH   4  22
TORSDOF 8
