REMARK  Name = ZINCtV00001bB3SA.0
REMARK                            x       y       z     vdW  Elec       q    Type
REMARK                         _______ _______ _______ _____ _____    ______ ____
ROOT
ATOM      1  C   LIG    1       -1.725  10.467  -0.774  0.00  0.00    +0.160 A 
ATOM      2  C   LIG    1       -2.866   9.671  -0.774  0.00  0.00    -0.020 A 
ATOM      3  C   LIG    1       -2.761   8.321  -0.601  0.00  0.00    +0.110 A 
ATOM      4  C   LIG    1       -1.499   7.736  -0.422  0.00  0.00    -0.160 A 
ATOM      5  C   LIG    1       -0.352   8.544  -0.418  0.00  0.00    +0.080 A 
ATOM      6  C   LIG    1       -0.470   9.893  -0.598  0.00  0.00    -0.080 A 
ENDROOT
BRANCH   4   7
ATOM      7  C   LIG    1       -1.379   6.289  -0.235  0.00  0.00    +0.270 C 
ATOM      8  C   LIG    1       -0.294   5.615  -0.753  0.00  0.00    -0.150 C 
BRANCH   8   9
ATOM      9  C   LIG    1       -0.218   4.150  -0.643  0.00  0.00    +0.580 C 
ATOM     10  N   LIG    1        0.843   3.490  -1.150  0.00  0.00    -0.660 N 
ATOM     11  H   LIG    1        1.595   3.986  -1.510  0.00  0.00    +0.410 HD
ATOM     12  O   LIG    1       -1.112   3.533  -0.096  0.00  0.00    -0.510 OA
BRANCH  10  13
ATOM     13  C   LIG    1        0.859   2.091  -1.156  0.00  0.00    +0.120 A 
ATOM     14  C   LIG    1       -0.333   1.381  -1.141  0.00  0.00    +0.060 A 
ATOM     15  C   LIG    1       -0.314  -0.000  -1.148  0.00  0.00    +0.030 A 
ATOM     16  C   LIG    1        0.891  -0.677  -1.169  0.00  0.00    +0.030 A 
ATOM     17  C   LIG    1        2.082   0.025  -1.184  0.00  0.00    +0.010 A 
ATOM     18  C   LIG    1        2.071   1.408  -1.178  0.00  0.00    +0.070 A 
ATOM     19  F   LIG    1        3.235   2.094  -1.192  0.00  0.00    -0.140 F 
ENDBRANCH  10  13
ENDBRANCH   8   9
BRANCH   8  20
ATOM     20  C   LIG    1        0.759   6.340  -1.398  0.00  0.00    +0.240 C 
ATOM     21  N   LIG    1        1.594   6.916  -1.909  0.00  0.00    -0.400 NA
ENDBRANCH   8  20
ENDBRANCH   4   7
BRANCH   1  22
ATOM     22  O   LIG    1       -1.837  11.808  -0.947  0.00  0.00    -0.310 OA
BRANCH  22  23
ATOM     23  C   LIG    1       -0.625  12.566  -0.937  0.00  0.00    +0.200 C 
BRANCH  23  24
ATOM     24  C   LIG    1       -0.949  14.047  -1.144  0.00  0.00    +0.040 C 
BRANCH  24  25
ATOM     25  C   LIG    1        0.348  14.859  -1.133  0.00  0.00    +0.020 C 
BRANCH  25  26
ATOM     26  C   LIG    1        0.025  16.340  -1.341  0.00  0.00    +0.000 C 
BRANCH  26  27
ATOM     27  C   LIG    1        1.321  17.152  -1.330  0.00  0.00    +0.000 C 
BRANCH  27  28
ATOM     28  C   LIG    1        0.998  18.633  -1.537  0.00  0.00    +0.000 C 
BRANCH  28  30
ATOM     29  C   LIG    1        1.971  20.925  -1.733  0.00  0.00    +0.000 C 
ATOM     30  C   LIG    1        2.295  19.444  -1.526  0.00  0.00    -0.010 C 
ENDBRANCH  28  30
ENDBRANCH  27  28
ENDBRANCH  26  27
ENDBRANCH  25  26
ENDBRANCH  24  25
ENDBRANCH  23  24
ENDBRANCH  22  23
ENDBRANCH   1  22
TORSDOF 12
