REMARK  Name = ZINCvU00000008SX.0
REMARK                            x       y       z     vdW  Elec       q    Type
REMARK                         _______ _______ _______ _____ _____    ______ ____
ROOT
ATOM      1  C   LIG    1        4.456  -0.080  -0.191  0.00  0.00    -0.190 C 
ATOM      2  C   LIG    1        3.087   0.083  -0.076  0.00  0.00    +0.210 C 
ENDROOT
BRANCH   1   3
ATOM      3  C   LIG    1        5.329   1.100  -0.321  0.00  0.00    +0.340 A 
ATOM      4  N   LIG    1        6.139   1.333  -1.328  0.00  0.00    -0.480 NA
ATOM      5  C   LIG    1        6.791   2.504  -1.127  0.00  0.00    +0.040 A 
ATOM      6  C   LIG    1        7.743   3.211  -1.867  0.00  0.00    +0.070 A 
ATOM      7  C   LIG    1        8.230   4.407  -1.389  0.00  0.00    +0.000 A 
ATOM      8  C   LIG    1        7.783   4.916  -0.178  0.00  0.00    +0.030 A 
ATOM      9  C   LIG    1        6.843   4.232   0.564  0.00  0.00    +0.010 A 
ATOM     10  C   LIG    1        6.341   3.025   0.100  0.00  0.00    +0.050 A 
ATOM     11  N   LIG    1        5.414   2.123   0.587  0.00  0.00    -0.600 N 
ATOM     12  H   LIG    1        4.918   2.198   1.417  0.00  0.00    +0.420 HD
ENDBRANCH   1   3
BRANCH   2  13
ATOM     13  C   LIG    1        2.506   1.355  -0.283  0.00  0.00    -0.200 A 
ATOM     14  C   LIG    1        3.086   2.439  -0.913  0.00  0.00    +0.300 A 
ATOM     15  N   LIG    1        2.218   3.477  -0.916  0.00  0.00    -0.570 N 
ATOM     16  H   LIG    1        2.399   4.347  -1.303  0.00  0.00    +0.420 HD
ATOM     17  C   LIG    1        1.037   3.125  -0.292  0.00  0.00    +0.080 A 
ATOM     18  C   LIG    1       -0.144   3.815  -0.040  0.00  0.00    +0.000 A 
ATOM     19  C   LIG    1       -1.179   3.189   0.620  0.00  0.00    +0.030 A 
ATOM     20  C   LIG    1       -1.059   1.871   1.034  0.00  0.00    +0.000 A 
ATOM     21  C   LIG    1        0.105   1.172   0.796  0.00  0.00    +0.050 A 
ATOM     22  C   LIG    1        1.158   1.792   0.131  0.00  0.00    -0.070 A 
ENDBRANCH   2  13
BRANCH   1  24
ATOM     23  O   LIG    1        4.804  -2.195  -1.096  0.00  0.00    -0.430 OA
ATOM     24  C   LIG    1        5.038  -1.425  -0.182  0.00  0.00    +0.470 C 
BRANCH  24  25
ATOM     25  C   LIG    1        5.907  -1.847   0.934  0.00  0.00    -0.150 A 
ATOM     26  C   LIG    1        6.093  -1.005   2.033  0.00  0.00    +0.090 A 
ATOM     27  C   LIG    1        6.900  -1.402   3.077  0.00  0.00    +0.030 A 
ATOM     28  C   LIG    1        7.540  -2.634   3.036  0.00  0.00    +0.070 A 
ATOM     29  O   LIG    1        8.378  -3.244   3.922  0.00  0.00    -0.300 OA
ATOM     30  C   LIG    1        9.036  -4.284   3.176  0.00  0.00    +0.440 C 
ATOM     31  O   LIG    1        8.092  -4.614   2.140  0.00  0.00    -0.300 OA
ATOM     32  C   LIG    1        7.363  -3.477   1.938  0.00  0.00    +0.020 A 
ATOM     33  C   LIG    1        6.551  -3.087   0.891  0.00  0.00    +0.110 A 
ENDBRANCH  24  25
ENDBRANCH   1  24
TORSDOF 4
