REMARK  Name = ZINCb70000002mvL.1
REMARK                            x       y       z     vdW  Elec       q    Type
REMARK                         _______ _______ _______ _____ _____    ______ ____
ROOT
ATOM      1  C   LIG    1       -0.019   1.526   0.010  0.00  0.00    +0.170 C 
ATOM      2  C   LIG    1       -0.719   2.022   1.277  0.00  0.00    +0.310 C 
ATOM      3  N   LIG    1       -0.551   3.468   1.404  0.00  0.00    -0.720 N 
ATOM      4  H   LIG    1       -1.141   3.955   2.000  0.00  0.00    +0.430 HD
ATOM      5  C   LIG    1        0.386   4.146   0.731  0.00  0.00    +0.500 C 
ATOM      6  C   LIG    1        1.328   3.487  -0.235  0.00  0.00    +0.320 C 
ATOM      7  O   LIG    1        0.478   5.343   0.909  0.00  0.00    -0.490 OA
ATOM      8  N   LIG    1        1.361   2.038   0.000  0.00  0.00    -0.510 N 
ATOM      9  H   LIG    1        1.883   1.586  -0.736  0.00  0.00    +0.440 HD
ATOM     10  H   LIG    1        1.798   1.849   0.890  0.00  0.00    +0.430 HD
ENDROOT
BRANCH   1  12
ATOM     11  C   LIG    1        0.742  -0.511   1.242  0.00  0.00    +0.050 C 
ATOM     12  C   LIG    1        0.002  -0.004   0.002  0.00  0.00    -0.080 C 
ATOM     13  C   LIG    1        0.718  -0.497  -1.257  0.00  0.00    +0.050 C 
ATOM     14  C   LIG    1       -1.433  -0.534   0.013  0.00  0.00    +0.070 C 
ENDBRANCH   1  12
TORSDOF 1
