REMARK  Name = ZINCqH0000050cQq.0
REMARK                            x       y       z     vdW  Elec       q    Type
REMARK                         _______ _______ _______ _____ _____    ______ ____
ROOT
ATOM      1  C   LIG    1        6.147   6.254  -0.024  0.00  0.00    +0.520 C 
ATOM      2  N   LIG    1        6.306   7.593  -0.018  0.00  0.00    -0.730 N 
ATOM      3  H   LIG    1        5.530   8.173  -0.007  0.00  0.00    +0.410 HD
ATOM      4  O   LIG    1        7.118   5.528  -0.037  0.00  0.00    -0.530 OA
ENDROOT
BRANCH   1   5
ATOM      5  C   LIG    1        4.762   5.660  -0.014  0.00  0.00    +0.060 C 
BRANCH   5   6
ATOM      6  C   LIG    1        4.862   4.134  -0.023  0.00  0.00    +0.060 C 
BRANCH   6   7
ATOM      7  C   LIG    1        3.455   3.531  -0.013  0.00  0.00    +0.200 C 
BRANCH   7   8
ATOM      8  O   LIG    1        3.549   2.105  -0.021  0.00  0.00    -0.310 OA
BRANCH   8  16
ATOM      9  C   LIG    1        3.711  -0.715  -0.039  0.00  0.00    +0.100 C 
ATOM     10  C   LIG    1        2.397   0.023  -0.021  0.00  0.00    -0.100 A 
ATOM     11  C   LIG    1        1.209  -0.681  -0.013  0.00  0.00    +0.070 A 
ATOM     12  C   LIG    1        0.002  -0.004   0.002  0.00  0.00    -0.070 A 
ATOM     13  C   LIG    1       -0.017   1.379   0.010  0.00  0.00    +0.060 A 
ATOM     14  C   LIG    1        1.170   2.087   0.002  0.00  0.00    -0.050 A 
ATOM     15 CL   LIG    1       -1.490  -0.891   0.012  0.00  0.00    -0.070 Cl
ATOM     16  C   LIG    1        2.380   1.410  -0.014  0.00  0.00    +0.140 A 
ENDBRANCH   8  16
ENDBRANCH   7   8
ENDBRANCH   6   7
ENDBRANCH   5   6
ENDBRANCH   1   5
BRANCH   2  17
ATOM     17  C   LIG    1        7.653   8.170  -0.028  0.00  0.00    +0.310 C 
BRANCH  17  18
ATOM     18  C   LIG    1        7.553   9.697  -0.019  0.00  0.00    +0.130 C 
ATOM     19  C   LIG    1        8.961  10.307  -0.044  0.00  0.00    +0.240 C 
ATOM     20  O   LIG    1        8.831  11.733  -0.049  0.00  0.00    -0.300 OA
ATOM     21  C   LIG    1        7.923  12.262  -0.914  0.00  0.00    +0.050 A 
ATOM     22  C   LIG    1        7.992  13.610  -1.232  0.00  0.00    +0.030 A 
ATOM     23  C   LIG    1        7.075  14.162  -2.107  0.00  0.00    +0.020 A 
ATOM     24  C   LIG    1        6.088  13.373  -2.667  0.00  0.00    +0.020 A 
ATOM     25  C   LIG    1        6.016  12.028  -2.355  0.00  0.00    +0.020 A 
ATOM     26  C   LIG    1        6.932  11.467  -1.479  0.00  0.00    +0.050 A 
ATOM     27  O   LIG    1        6.850  10.141  -1.184  0.00  0.00    -0.300 OA
ENDBRANCH  17  18
ENDBRANCH   2  17
TORSDOF 7
