REMARK  Name = ZINCvU0000000G6A.0
REMARK                            x       y       z     vdW  Elec       q    Type
REMARK                         _______ _______ _______ _____ _____    ______ ____
ROOT
ATOM      1  N   LIG    1        2.476   1.330   1.701  0.00  0.00    -0.590 N 
ATOM      2  C   LIG    1        3.308   2.264   2.204  0.00  0.00    +0.560 C 
ATOM      3  O   LIG    1        4.255   2.651   1.547  0.00  0.00    -0.490 OA
ENDROOT
BRANCH   2   4
ATOM      4  C   LIG    1        3.069   2.817   3.553  0.00  0.00    -0.110 A 
ATOM      5  C   LIG    1        2.668   1.977   4.593  0.00  0.00    +0.060 A 
ATOM      6  C   LIG    1        2.446   2.496   5.853  0.00  0.00    +0.040 A 
ATOM      7  C   LIG    1        2.620   3.848   6.089  0.00  0.00    -0.010 A 
ATOM      8  C   LIG    1        3.019   4.693   5.059  0.00  0.00    +0.150 A 
ATOM      9 CL   LIG    1        2.338   4.492   7.677  0.00  0.00    -0.050 Cl
ATOM     10  C   LIG    1        3.250   4.180   3.793  0.00  0.00    +0.100 A 
BRANCH   8  11
ATOM     11  N   LIG    1        3.193   6.061   5.303  0.00  0.00    -0.580 N 
ATOM     12  C   LIG    1        4.455   6.670   5.739  0.00  0.00    +0.260 C 
ATOM     13  C   LIG    1        4.301   8.182   5.452  0.00  0.00    +0.060 C 
ATOM     14  C   LIG    1        2.766   8.356   5.507  0.00  0.00    +0.070 C 
ATOM     15  C   LIG    1        2.224   6.984   5.173  0.00  0.00    +0.520 C 
ATOM     16  O   LIG    1        1.083   6.750   4.838  0.00  0.00    -0.510 OA
ENDBRANCH   8  11
ENDBRANCH   2   4
BRANCH   1  17
ATOM     17  C   LIG    1        2.745   0.739   0.388  0.00  0.00    +0.360 C 
BRANCH  17  23
ATOM     18  C   LIG    1        2.648   2.733  -1.129  0.00  0.00    +0.150 A 
ATOM     19  C   LIG    1        2.020   3.483  -2.113  0.00  0.00    -0.090 A 
ATOM     20  C   LIG    1        0.817   3.057  -2.642  0.00  0.00    +0.050 A 
ATOM     21  C   LIG    1        0.241   1.882  -2.196  0.00  0.00    -0.040 A 
ATOM     22  C   LIG    1        0.863   1.135  -1.212  0.00  0.00    +0.050 A 
ATOM     23  C   LIG    1        2.066   1.557  -0.680  0.00  0.00    -0.150 A 
BRANCH  18  25
ATOM     24  C   LIG    1        4.371   4.371  -1.117  0.00  0.00    +0.230 C 
ATOM     25  O   LIG    1        3.831   3.150  -0.606  0.00  0.00    -0.270 OA
ENDBRANCH  18  25
ENDBRANCH  17  23
ENDBRANCH   1  17
BRANCH   1  26
ATOM     26  C   LIG    1        1.302   0.906   2.469  0.00  0.00    +0.350 C 
BRANCH  26  27
ATOM     27  C   LIG    1        1.276  -0.598   2.557  0.00  0.00    -0.200 A 
ATOM     28  C   LIG    1        1.933  -1.327   3.460  0.00  0.00    +0.020 A 
ATOM     29  C   LIG    1        1.757  -2.695   3.345  0.00  0.00    +0.000 A 
ATOM     30  C   LIG    1        0.957  -3.077   2.349  0.00  0.00    -0.030 A 
ATOM     31  S   LIG    1        0.368  -1.660   1.489  0.00  0.00    +0.110 S 
ENDBRANCH  26  27
ENDBRANCH   1  26
TORSDOF 7
