REMARK  Name = ZINCrD000000CVor.0
REMARK                            x       y       z     vdW  Elec       q    Type
REMARK                         _______ _______ _______ _____ _____    ______ ____
ROOT
ATOM      1  O   LIG    1       -4.601   4.398   3.247  0.00  0.00    -0.520 OA
ATOM      2  C   LIG    1       -4.272   3.423   2.599  0.00  0.00    +0.700 C 
ATOM      3  N   LIG    1       -3.007   3.169   2.220  0.00  0.00    -0.720 N 
ATOM      4  H   LIG    1       -2.226   3.712   2.408  0.00  0.00    +0.440 HD
ATOM      5  C   LIG    1       -3.040   1.906   1.463  0.00  0.00    +0.230 C 
ATOM      6  C   LIG    1       -4.504   1.513   1.488  0.00  0.00    +0.520 C 
ATOM      7  O   LIG    1       -5.007   0.532   0.985  0.00  0.00    -0.470 OA
ATOM      8  N   LIG    1       -5.129   2.482   2.185  0.00  0.00    -0.570 N 
ENDROOT
BRANCH   5   9
ATOM      9  C   LIG    1       -2.567   2.127   0.025  0.00  0.00    +0.140 C 
BRANCH   9  10
ATOM     10  C   LIG    1       -1.084   2.396   0.019  0.00  0.00    -0.180 A 
ATOM     11  C   LIG    1       -0.490   3.599   0.025  0.00  0.00    +0.230 A 
ATOM     12  N   LIG    1        0.870   3.449   0.011  0.00  0.00    -0.590 N 
ATOM     13  H   LIG    1        1.511   4.177   0.009  0.00  0.00    +0.420 HD
ATOM     14  C   LIG    1        1.193   2.110   0.002  0.00  0.00    +0.100 A 
ATOM     15  C   LIG    1        2.398   1.416  -0.014  0.00  0.00    -0.010 A 
ATOM     16  C   LIG    1        2.393   0.038  -0.021  0.00  0.00    +0.030 A 
ATOM     17  C   LIG    1        1.197  -0.666  -0.013  0.00  0.00    -0.020 A 
ATOM     18  C   LIG    1        0.002  -0.004   0.002  0.00  0.00    +0.050 A 
ATOM     19  C   LIG    1       -0.017   1.392   0.010  0.00  0.00    -0.100 A 
ENDBRANCH   9  10
ENDBRANCH   5   9
BRANCH   8  20
ATOM     20  C   LIG    1       -6.568   2.503   2.457  0.00  0.00    +0.350 C 
BRANCH  20  21
ATOM     21  C   LIG    1       -6.850   1.774   3.772  0.00  0.00    +0.200 C 
BRANCH  21  22
ATOM     22  O   LIG    1       -6.251   2.492   4.852  0.00  0.00    -0.290 OA
BRANCH  22  23
ATOM     23  C   LIG    1       -6.409   1.975   6.099  0.00  0.00    +0.140 A 
ATOM     24  C   LIG    1       -7.124   0.801   6.279  0.00  0.00    -0.060 A 
ATOM     25  C   LIG    1       -7.282   0.277   7.548  0.00  0.00    +0.050 A 
ATOM     26  C   LIG    1       -6.728   0.922   8.638  0.00  0.00    -0.020 A 
ATOM     27  C   LIG    1       -6.014   2.093   8.463  0.00  0.00    +0.070 A 
ATOM     28  C   LIG    1       -5.848   2.618   7.195  0.00  0.00    -0.070 A 
ATOM     29 CL   LIG    1       -4.945   4.084   6.974  0.00  0.00    -0.050 Cl
ENDBRANCH  22  23
ENDBRANCH  21  22
ENDBRANCH  20  21
ENDBRANCH   8  20
TORSDOF 6
