REMARK  Name = ZINCtV00000L6kS9.0
REMARK                            x       y       z     vdW  Elec       q    Type
REMARK                         _______ _______ _______ _____ _____    ______ ____
ROOT
ATOM      1  N   LIG    1        2.361   3.882   0.005  0.00  0.00    -0.440 N 
ATOM      2  C   LIG    1        2.777   4.780   0.955  0.00  0.00    +0.410 A 
ATOM      3  N   LIG    1        3.946   5.285   0.644  0.00  0.00    -0.470 NA
ATOM      4  C   LIG    1        4.377   4.769  -0.524  0.00  0.00    +0.260 A 
ATOM      5  N   LIG    1        5.460   4.942  -1.263  0.00  0.00    -0.390 NA
ATOM      6  C   LIG    1        5.596   4.262  -2.406  0.00  0.00    +0.100 A 
ATOM      7  C   LIG    1        6.745   4.436  -3.203  0.00  0.00    +0.060 A 
ATOM      8  C   LIG    1        6.875   3.740  -4.363  0.00  0.00    +0.040 A 
ATOM      9  C   LIG    1        5.885   2.851  -4.781  0.00  0.00    +0.050 A 
ATOM     10  C   LIG    1        4.762   2.656  -4.039  0.00  0.00    +0.050 A 
ATOM     11  C   LIG    1        4.590   3.358  -2.831  0.00  0.00    +0.110 A 
ATOM     12  N   LIG    1        3.487   3.173  -2.094  0.00  0.00    -0.420 NA
ATOM     13  C   LIG    1        3.338   3.833  -0.969  0.00  0.00    +0.240 A 
ENDROOT
BRANCH   2  14
ATOM     14  C   LIG    1        2.011   5.128   2.169  0.00  0.00    -0.050 A 
ATOM     15  C   LIG    1        2.293   6.308   2.861  0.00  0.00    +0.110 A 
ATOM     16  C   LIG    1        1.571   6.631   3.991  0.00  0.00    +0.040 A 
ATOM     17  C   LIG    1        0.575   5.782   4.446  0.00  0.00    -0.010 A 
ATOM     18  C   LIG    1        0.295   4.607   3.767  0.00  0.00    +0.030 A 
ATOM     19 CL   LIG    1       -0.325   6.191   5.873  0.00  0.00    -0.060 Cl
ATOM     20  C   LIG    1        1.006   4.277   2.633  0.00  0.00    +0.060 A 
ENDBRANCH   2  14
BRANCH   1  24
ATOM     21  C   LIG    1       -1.200   1.718   0.038  0.00  0.00    -0.060 A 
ATOM     22  C   LIG    1        0.006   1.063   0.199  0.00  0.00    +0.040 A 
ATOM     23  C   LIG    1        1.189   1.777   0.186  0.00  0.00    +0.040 A 
ATOM     24  C   LIG    1        1.164   3.155   0.018  0.00  0.00    +0.110 A 
ATOM     25  C   LIG    1       -0.050   3.811  -0.138  0.00  0.00    +0.030 A 
ATOM     26  C   LIG    1       -1.229   3.091  -0.124  0.00  0.00    +0.040 A 
BRANCH  21  28
ATOM     27  C   LIG    1       -3.379   1.431   1.188  0.00  0.00    +0.030 C 
ATOM     28  C   LIG    1       -2.488   0.936   0.047  0.00  0.00    +0.020 C 
ATOM     29  C   LIG    1       -3.212   1.131  -1.287  0.00  0.00    +0.030 C 
ENDBRANCH  21  28
ENDBRANCH   1  24
TORSDOF 3
