REMARK  Name = ZINCc70000003XLh.0
REMARK                            x       y       z     vdW  Elec       q    Type
REMARK                         _______ _______ _______ _____ _____    ______ ____
ROOT
ATOM      1  C   LIG    1       -1.222   1.643   0.017  0.00  0.00    +0.300 A 
ATOM      2  C   LIG    1       -2.425   0.934   0.019  0.00  0.00    -0.030 A 
ATOM      3  C   LIG    1       -3.629   1.604   0.028  0.00  0.00    +0.100 A 
ATOM      4  C   LIG    1       -3.666   2.992   0.035  0.00  0.00    +0.040 A 
ATOM      5  C   LIG    1       -2.485   3.714   0.034  0.00  0.00    -0.090 A 
ATOM      6  C   LIG    1       -2.156   5.155   0.039  0.00  0.00    +0.580 C 
ATOM      7  O   LIG    1       -2.958   6.066   0.048  0.00  0.00    -0.460 OA
ATOM      8  N   LIG    1       -0.817   5.286   0.034  0.00  0.00    -0.680 N 
ATOM      9  H   LIG    1       -0.349   6.136   0.036  0.00  0.00    +0.430 HD
ATOM     10  C   LIG    1       -0.212   4.085   0.025  0.00  0.00    +0.590 C 
ATOM     11  O   LIG    1        0.988   3.896   0.019  0.00  0.00    -0.480 OA
ATOM     12  C   LIG    1       -1.247   3.037   0.030  0.00  0.00    -0.250 A 
ENDROOT
BRANCH   1  13
ATOM     13  N   LIG    1       -0.011   0.966   0.007  0.00  0.00    -0.850 N 
ATOM     14  H   LIG    1        0.822   1.462   0.002  0.00  0.00    +0.410 HD
ATOM     15  H   LIG    1        0.002  -0.004   0.002  0.00  0.00    +0.410 HD
ENDBRANCH   1  13
TORSDOF 1
