REMARK  Name = ZINCrD00000hQ4TD.0
REMARK                            x       y       z     vdW  Elec       q    Type
REMARK                         _______ _______ _______ _____ _____    ______ ____
ROOT
ATOM      1  C   LIG    1       -3.164   3.196  -0.702  0.00  0.00    -0.020 C 
ATOM      2  C   LIG    1       -2.750   3.431   0.753  0.00  0.00    +0.030 C 
ATOM      3  C   LIG    1       -1.262   3.796   0.812  0.00  0.00    +0.020 C 
ATOM      4  C   LIG    1       -0.436   2.633   0.254  0.00  0.00    +0.250 C 
ATOM      5  N   LIG    1       -0.926   2.305  -1.092  0.00  0.00    -0.600 N 
ATOM      6  C   LIG    1       -0.078   2.260  -2.139  0.00  0.00    +0.600 C 
ATOM      7  O   LIG    1       -0.482   1.923  -3.235  0.00  0.00    -0.540 OA
ATOM      8  C   LIG    1       -2.357   2.027  -1.275  0.00  0.00    +0.280 C 
ENDROOT
BRANCH   6   9
ATOM      9  C   LIG    1        1.340   2.621  -1.955  0.00  0.00    -0.270 A 
ATOM     10  C   LIG    1        2.105   3.394  -2.805  0.00  0.00    +0.310 A 
ATOM     11  N   LIG    1        3.336   3.481  -2.270  0.00  0.00    -0.310 N 
ATOM     12  N   LIG    1        3.353   2.751  -1.076  0.00  0.00    -0.280 NA
ATOM     13  C   LIG    1        2.171   2.236  -0.879  0.00  0.00    +0.290 A 
BRANCH  11  14
ATOM     14  C   LIG    1        4.421   4.181  -2.818  0.00  0.00    +0.160 A 
ATOM     15  C   LIG    1        4.273   4.863  -4.018  0.00  0.00    +0.020 A 
ATOM     16  C   LIG    1        5.341   5.555  -4.554  0.00  0.00    +0.070 A 
ATOM     17  C   LIG    1        6.561   5.560  -3.901  0.00  0.00    -0.040 A 
ATOM     18  C   LIG    1        6.713   4.876  -2.707  0.00  0.00    +0.070 A 
ATOM     19 CL   LIG    1        7.904   6.426  -4.579  0.00  0.00    -0.060 Cl
ATOM     20  C   LIG    1        5.646   4.187  -2.165  0.00  0.00    +0.050 A 
ENDBRANCH  11  14
ENDBRANCH   6   9
BRANCH   1  21
ATOM     21  C   LIG    1       -4.656   2.863  -0.761  0.00  0.00    +0.180 C 
BRANCH  21  25
ATOM     22  C   LIG    1       -6.345   3.901  -5.359  0.00  0.00    +0.240 C 
ATOM     23  C   LIG    1       -5.804   3.201  -4.139  0.00  0.00    +0.180 A 
ATOM     24  N   LIG    1       -5.557   3.745  -2.972  0.00  0.00    -0.480 NA
ATOM     25  C   LIG    1       -5.088   2.749  -2.200  0.00  0.00    +0.170 A 
ATOM     26  N   LIG    1       -5.082   1.668  -2.921  0.00  0.00    -0.380 NA
ATOM     27  O   LIG    1       -5.490   1.906  -4.038  0.00  0.00    +0.080 OA
ENDBRANCH  21  25
ENDBRANCH   1  21
TORSDOF 4
