REMARK  Name = ZINCrD00000hQ4tD.1
REMARK                            x       y       z     vdW  Elec       q    Type
REMARK                         _______ _______ _______ _____ _____    ______ ____
ROOT
ATOM      1  C   LIG    1       -2.370   3.579   7.049  0.00  0.00    +0.220 A 
ATOM      2  C   LIG    1       -1.752   3.837   8.237  0.00  0.00    -0.080 A 
ATOM      3  C   LIG    1       -2.808   4.261   9.085  0.00  0.00    +0.070 A 
ATOM      4  N   LIG    1       -3.900   4.218   8.360  0.00  0.00    -0.350 NA
ATOM      5  O   LIG    1       -3.672   3.848   7.231  0.00  0.00    +0.130 OA
ENDROOT
BRANCH   3   6
ATOM      6  C   LIG    1       -2.699   4.671  10.507  0.00  0.00    +0.010 A 
ATOM      7  C   LIG    1       -1.460   4.657  11.145  0.00  0.00    +0.050 A 
ATOM      8  C   LIG    1       -1.363   5.044  12.467  0.00  0.00    +0.070 A 
ATOM      9  C   LIG    1       -2.495   5.434  13.161  0.00  0.00    -0.180 A 
ATOM     10  C   LIG    1       -3.728   5.443  12.533  0.00  0.00    +0.070 A 
ATOM     11  C   LIG    1       -3.835   5.064  11.211  0.00  0.00    +0.050 A 
BRANCH   9  12
ATOM     12  C   LIG    1       -2.384   5.849  14.605  0.00  0.00    +0.510 C 
ATOM     13  F   LIG    1       -3.376   6.792  14.896  0.00  0.00    -0.180 F 
ATOM     14  F   LIG    1       -1.124   6.412  14.833  0.00  0.00    -0.180 F 
ATOM     15  F   LIG    1       -2.550   4.729  15.426  0.00  0.00    -0.170 F 
ENDBRANCH   9  12
ENDBRANCH   3   6
BRANCH   1  17
ATOM     16  C   LIG    1       -2.516   2.921   4.779  0.00  0.00    +0.580 C 
ATOM     17  N   LIG    1       -1.770   3.133   5.882  0.00  0.00    -0.610 N 
ATOM     18  H   LIG    1       -0.813   2.973   5.858  0.00  0.00    +0.440 HD
ATOM     19  O   LIG    1       -3.715   3.121   4.809  0.00  0.00    -0.460 OA
BRANCH  16  26
ATOM     20  C   LIG    1        1.488   1.558   2.370  0.00  0.00    +0.150 C 
ATOM     21  C   LIG    1        0.000   1.799   2.382  0.00  0.00    -0.030 A 
ATOM     22  C   LIG    1       -0.718   1.572   1.248  0.00  0.00    +0.180 A 
ATOM     23  N   LIG    1       -2.050   1.781   1.215  0.00  0.00    -0.580 N 
ATOM     24  H   LIG    1       -2.552   1.620   0.401  0.00  0.00    +0.430 HD
ATOM     25  C   LIG    1       -2.679   2.211   2.332  0.00  0.00    +0.500 A 
ATOM     26  C   LIG    1       -1.878   2.446   3.538  0.00  0.00    -0.010 A 
ATOM     27  O   LIG    1       -3.882   2.404   2.335  0.00  0.00    -0.480 OA
ATOM     28  C   LIG    1       -0.013   1.086   0.008  0.00  0.00    +0.170 C 
ATOM     29  N   LIG    1       -0.574   2.225   3.494  0.00  0.00    -0.340 NA
ENDBRANCH  16  26
ENDBRANCH   1  17
TORSDOF 4
