REMARK  Name = ZINCrD0000071snW.0
REMARK                            x       y       z     vdW  Elec       q    Type
REMARK                         _______ _______ _______ _____ _____    ______ ____
ROOT
ATOM      1  C   LIG    1       -2.501   0.973   0.053  0.00  0.00    +0.530 C 
ATOM      2  O   LIG    1       -3.562   1.562   0.066  0.00  0.00    -0.500 OA
ENDROOT
BRANCH   1   8
ATOM      3  N   LIG    1        2.200   3.947   0.059  0.00  0.00    -0.380 N 
ATOM      4  N   LIG    1        1.675   5.242   0.081  0.00  0.00    -0.230 NA
ATOM      5  C   LIG    1        0.373   5.198   0.093  0.00  0.00    +0.310 A 
ATOM      6  C   LIG    1       -0.021   3.792   0.078  0.00  0.00    -0.240 A 
ATOM      7  C   LIG    1       -1.248   3.127   0.081  0.00  0.00    +0.240 A 
ATOM      8  C   LIG    1       -1.235   1.731   0.057  0.00  0.00    -0.230 A 
ATOM      9  C   LIG    1       -0.005   1.059   0.042  0.00  0.00    +0.410 A 
ATOM     10  N   LIG    1        1.132   1.715   0.040  0.00  0.00    -0.510 NA
ATOM     11  C   LIG    1        1.175   3.043   0.057  0.00  0.00    +0.340 A 
BRANCH   3  13
ATOM     12  C   LIG    1        4.275   4.213  -1.208  0.00  0.00    +0.050 C 
ATOM     13  C   LIG    1        3.626   3.611   0.040  0.00  0.00    +0.270 C 
ATOM     14  C   LIG    1        4.300   4.179   1.290  0.00  0.00    +0.050 C 
ENDBRANCH   3  13
ENDBRANCH   1   8
BRANCH   1  15
ATOM     15  O   LIG    1       -2.478  -0.374   0.034  0.00  0.00    -0.320 OA
BRANCH  15  16
ATOM     16  C   LIG    1       -3.761  -1.055   0.031  0.00  0.00    +0.200 C 
ATOM     17  C   LIG    1       -4.205  -1.313   1.473  0.00  0.00    +0.070 C 
BRANCH  16  18
ATOM     18  C   LIG    1       -3.632  -2.367  -0.698  0.00  0.00    +0.520 C 
ATOM     19  N   LIG    1       -4.723  -3.128  -0.915  0.00  0.00    -0.670 N 
ATOM     20  H   LIG    1       -5.580  -2.863  -0.546  0.00  0.00    +0.420 HD
ATOM     21  O   LIG    1       -2.546  -2.739  -1.089  0.00  0.00    -0.490 OA
BRANCH  19  22
ATOM     22  C   LIG    1       -4.620  -4.301  -1.672  0.00  0.00    +0.110 A 
ATOM     23  C   LIG    1       -3.468  -5.072  -1.606  0.00  0.00    +0.060 A 
ATOM     24  C   LIG    1       -3.369  -6.230  -2.354  0.00  0.00    +0.030 A 
ATOM     25  C   LIG    1       -4.415  -6.621  -3.170  0.00  0.00    +0.040 A 
ATOM     26  C   LIG    1       -5.564  -5.855  -3.240  0.00  0.00    +0.000 A 
ATOM     27  C   LIG    1       -5.673  -4.699  -2.489  0.00  0.00    +0.070 A 
ATOM     28  F   LIG    1       -6.798  -3.954  -2.553  0.00  0.00    -0.140 F 
ENDBRANCH  19  22
ENDBRANCH  16  18
ENDBRANCH  15  16
ENDBRANCH   1  15
TORSDOF 6
