REMARK  Name = ZINCpk00000y6x8c.0
REMARK                            x       y       z     vdW  Elec       q    Type
REMARK                         _______ _______ _______ _____ _____    ______ ____
ROOT
ATOM      1  C   LIG    1        0.989   3.018  -0.776  0.00  0.00    +0.600 C 
ATOM      2  N   LIG    1       -0.033   3.896  -0.796  0.00  0.00    -0.710 N 
ATOM      3  H   LIG    1       -0.942   3.586  -0.660  0.00  0.00    +0.400 HD
ATOM      4  O   LIG    1        2.129   3.407  -0.947  0.00  0.00    -0.540 OA
ENDROOT
BRANCH   1   7
ATOM      5  N   LIG    1        1.010  -0.575  -0.273  0.00  0.00    -0.310 N 
ATOM      6  C   LIG    1        1.667   0.577  -0.501  0.00  0.00    +0.330 A 
ATOM      7  C   LIG    1        0.726   1.586  -0.548  0.00  0.00    -0.290 A 
ATOM      8  C   LIG    1       -0.537   0.988  -0.336  0.00  0.00    +0.270 A 
ATOM      9  N   LIG    1       -0.357  -0.293  -0.174  0.00  0.00    -0.280 NA
BRANCH   5  16
ATOM     10  C   LIG    1        0.230  -2.220   1.916  0.00  0.00    +0.100 C 
ATOM     11  C   LIG    1        1.244  -2.676   0.899  0.00  0.00    -0.060 A 
ATOM     12  C   LIG    1        1.820  -3.927   1.010  0.00  0.00    +0.030 A 
ATOM     13  C   LIG    1        2.755  -4.344   0.081  0.00  0.00    +0.030 A 
ATOM     14  C   LIG    1        3.111  -3.514  -0.966  0.00  0.00    +0.030 A 
ATOM     15  C   LIG    1        2.535  -2.265  -1.086  0.00  0.00    +0.020 A 
ATOM     16  C   LIG    1        1.597  -1.843  -0.154  0.00  0.00    +0.130 A 
ENDBRANCH   5  16
ENDBRANCH   1   7
BRANCH   2  17
ATOM     17  C   LIG    1        0.229   5.320  -1.023  0.00  0.00    +0.260 C 
ATOM     18  C   LIG    1       -0.143   5.797  -2.437  0.00  0.00    +0.010 C 
ATOM     19  C   LIG    1       -0.681   7.078  -1.778  0.00  0.00    +0.180 C 
ATOM     20  C   LIG    1       -0.887   6.242  -0.504  0.00  0.00    +0.270 C 
BRANCH  20  21
ATOM     21  N   LIG    1       -0.535   6.953   0.728  0.00  0.00    -0.360 N 
ATOM     22  C   LIG    1        0.144   8.116   0.806  0.00  0.00    +0.220 A 
ATOM     23  C   LIG    1        0.262   8.437   2.116  0.00  0.00    -0.120 A 
ATOM     24  C   LIG    1       -0.367   7.436   2.863  0.00  0.00    +0.230 A 
ATOM     25  N   LIG    1       -0.850   6.548   2.032  0.00  0.00    -0.290 NA
ENDBRANCH  20  21
BRANCH  19  26
ATOM     26  O   LIG    1       -1.899   7.551  -2.357  0.00  0.00    -0.550 OA
ATOM     27  H   LIG    1       -1.778   8.039  -3.183  0.00  0.00    +0.390 HD
ENDBRANCH  19  26
ENDBRANCH   2  17
TORSDOF 5
