REMARK  Name = ZINCrH00000No55o.0
REMARK                            x       y       z     vdW  Elec       q    Type
REMARK                         _______ _______ _______ _____ _____    ______ ____
ROOT
ATOM      1  N   LIG    1        8.538  -5.019   1.179  0.00  0.00    -0.490 N 
ATOM      2  C   LIG    1        8.985  -3.831   0.439  0.00  0.00    +0.190 C 
ATOM      3  C   LIG    1        8.788  -2.586   1.310  0.00  0.00    +0.290 C 
ATOM      4  N   LIG    1        7.388  -2.548   1.760  0.00  0.00    -0.610 N 
ATOM      5  C   LIG    1        6.828  -3.751   2.395  0.00  0.00    +0.300 C 
ATOM      6  C   LIG    1        6.640  -1.438   1.601  0.00  0.00    +0.560 C 
ATOM      7  O   LIG    1        5.513  -1.393   2.060  0.00  0.00    -0.540 OA
ATOM      8  C   LIG    1        7.101  -4.952   1.475  0.00  0.00    +0.190 C 
ENDROOT
BRANCH   1  13
ATOM      9  C   LIG    1        8.826  -8.584   0.323  0.00  0.00    +0.150 A 
ATOM     10  C   LIG    1        9.478  -8.506  -0.900  0.00  0.00    -0.100 A 
ATOM     11  C   LIG    1        9.815  -7.274  -1.428  0.00  0.00    +0.080 A 
ATOM     12  C   LIG    1        9.505  -6.117  -0.742  0.00  0.00    -0.080 A 
ATOM     13  C   LIG    1        8.852  -6.189   0.484  0.00  0.00    +0.150 A 
ATOM     14  C   LIG    1        8.519  -7.425   1.018  0.00  0.00    -0.040 A 
BRANCH   9  16
ATOM     15  C   LIG    1        8.849 -10.948   0.072  0.00  0.00    +0.250 C 
ATOM     16  O   LIG    1        8.496  -9.796   0.840  0.00  0.00    -0.320 OA
ENDBRANCH   9  16
ENDBRANCH   1  13
BRANCH   6  17
ATOM     17  C   LIG    1        7.164  -0.326   0.901  0.00  0.00    -0.090 C 
ATOM     18  C   LIG    1        6.376   0.748   0.645  0.00  0.00    +0.170 C 
BRANCH  18  19
ATOM     19  C   LIG    1        6.900   1.861  -0.056  0.00  0.00    -0.020 A 
ATOM     20  C   LIG    1        8.188   1.987  -0.533  0.00  0.00    +0.010 A 
ATOM     21  C   LIG    1        8.262   3.242  -1.156  0.00  0.00    -0.050 A 
ATOM     22  C   LIG    1        7.046   3.820  -1.037  0.00  0.00    +0.060 A 
ATOM     23  O   LIG    1        6.231   2.990  -0.370  0.00  0.00    -0.160 OA
BRANCH  22  24
ATOM     24  C   LIG    1        6.668   5.180  -1.563  0.00  0.00    +0.050 C 
ATOM     25  C   LIG    1        5.190   5.574  -1.507  0.00  0.00    +0.050 C 
ATOM     26  C   LIG    1        6.192   6.223  -0.549  0.00  0.00    -0.010 C 
ATOM     27  C   LIG    1        6.136   5.804   0.921  0.00  0.00    +0.060 C 
ENDBRANCH  22  24
ENDBRANCH  18  19
ENDBRANCH   6  17
TORSDOF 5
