REMARK  Name = ZINCpe000000ZHVb.0
REMARK                            x       y       z     vdW  Elec       q    Type
REMARK                         _______ _______ _______ _____ _____    ______ ____
ROOT
ATOM      1  C   LIG    1        4.237   2.963  -1.745  0.00  0.00    +0.330 C 
ENDROOT
BRANCH   1   2
ATOM      2  N   LIG    1        5.569   2.756  -1.162  0.00  0.00    -0.530 NA
ATOM      3  C   LIG    1        5.481   2.007   0.099  0.00  0.00    +0.190 C 
ATOM      4  C   LIG    1        6.892   1.743   0.632  0.00  0.00    +0.230 C 
ATOM      5  N   LIG    1        7.586   3.023   0.830  0.00  0.00    -0.460 N 
ATOM      6  C   LIG    1        7.674   3.772  -0.432  0.00  0.00    +0.240 C 
ATOM      7  C   LIG    1        6.263   4.036  -0.964  0.00  0.00    +0.210 C 
BRANCH   5   8
ATOM      8  C   LIG    1        8.841   2.827   1.379  0.00  0.00    +0.490 A 
ATOM      9  N   LIG    1        9.905   3.299   0.745  0.00  0.00    -0.550 NA
ATOM     10  C   LIG    1       11.118   3.134   1.245  0.00  0.00    +0.340 A 
ATOM     11  C   LIG    1       11.269   2.448   2.440  0.00  0.00    -0.110 A 
ATOM     12  C   LIG    1       10.136   1.963   3.074  0.00  0.00    +0.340 A 
ATOM     13  N   LIG    1        8.951   2.167   2.522  0.00  0.00    -0.530 NA
ENDBRANCH   5   8
ENDBRANCH   1   2
BRANCH   1  18
ATOM     14  N   LIG    1        2.903   0.817  -1.403  0.00  0.00    -0.300 N 
ATOM     15  N   LIG    1        2.617  -0.213  -2.126  0.00  0.00    -0.090 NA
ATOM     16  N   LIG    1        3.149  -0.063  -3.289  0.00  0.00    -0.070 NA
ATOM     17  N   LIG    1        3.788   1.054  -3.327  0.00  0.00    -0.280 NA
ATOM     18  C   LIG    1        3.657   1.636  -2.159  0.00  0.00    +0.190 A 
BRANCH  14  19
ATOM     19  C   LIG    1        2.490   1.048  -0.016  0.00  0.00    +0.390 C 
BRANCH  19  23
ATOM     20  C   LIG    1       -1.238   3.133   0.030  0.00  0.00    +0.030 A 
ATOM     21  C   LIG    1       -1.219   1.751   0.017  0.00  0.00    +0.010 A 
ATOM     22  C   LIG    1       -0.013   1.076   0.008  0.00  0.00    +0.040 A 
ATOM     23  C   LIG    1        1.175   1.783   0.000  0.00  0.00    -0.130 A 
ATOM     24  C   LIG    1        1.156   3.165   0.008  0.00  0.00    +0.020 A 
ATOM     25  C   LIG    1       -0.050   3.840   0.022  0.00  0.00    +0.010 A 
ENDBRANCH  19  23
ENDBRANCH  14  19
ENDBRANCH   1  18
TORSDOF 5
