REMARK  Name = ZINCrH000004rnkw.0
REMARK                            x       y       z     vdW  Elec       q    Type
REMARK                         _______ _______ _______ _____ _____    ______ ____
ROOT
ATOM      1  N   LIG    1        3.598   1.897   0.317  0.00  0.00    -0.740 N 
ATOM      2  H   LIG    1        3.409   2.849   0.319  0.00  0.00    +0.410 HD
ENDROOT
BRANCH   1   9
ATOM      3  C   LIG    1        5.643   3.836  -0.067  0.00  0.00    +0.090 C 
ATOM      4  C   LIG    1        5.936   2.357  -0.065  0.00  0.00    -0.170 A 
ATOM      5  C   LIG    1        7.230   1.911  -0.248  0.00  0.00    +0.080 A 
ATOM      6  C   LIG    1        7.503   0.556  -0.252  0.00  0.00    -0.040 A 
ATOM      7  C   LIG    1        6.476  -0.361  -0.067  0.00  0.00    +0.190 A 
ATOM      8  C   LIG    1        5.176   0.084   0.122  0.00  0.00    -0.100 A 
ATOM      9  C   LIG    1        4.905   1.445   0.126  0.00  0.00    +0.240 A 
BRANCH   7  10
ATOM     10  N   LIG    1        6.753  -1.733  -0.071  0.00  0.00    -0.670 N 
ATOM     11  H   LIG    1        6.099  -2.358  -0.419  0.00  0.00    +0.410 HD
ATOM     12  C   LIG    1        7.929  -2.184   0.408  0.00  0.00    +0.540 C 
ATOM     13  O   LIG    1        8.707  -1.414   0.931  0.00  0.00    -0.510 OA
BRANCH  12  14
ATOM     14  C   LIG    1        8.278  -3.646   0.296  0.00  0.00    -0.070 C 
ATOM     15  C   LIG    1        8.333  -4.461   1.589  0.00  0.00    +0.060 C 
ATOM     16  C   LIG    1        9.627  -4.096   0.859  0.00  0.00    +0.080 C 
ENDBRANCH  12  14
ENDBRANCH   7  10
ENDBRANCH   1   9
BRANCH   1  17
ATOM     17  C   LIG    1        2.511   0.935   0.512  0.00  0.00    +0.290 C 
BRANCH  17  18
ATOM     18  C   LIG    1        1.211   1.675   0.693  0.00  0.00    +0.510 C 
ATOM     19  N   LIG    1        0.067   0.990   0.890  0.00  0.00    -0.720 N 
ATOM     20  H   LIG    1        0.080   0.020   0.915  0.00  0.00    +0.400 HD
ATOM     21  O   LIG    1        1.194   2.887   0.662  0.00  0.00    -0.530 OA
BRANCH  19  22
ATOM     22  C   LIG    1       -1.198   1.709   1.060  0.00  0.00    +0.290 C 
ATOM     23  C   LIG    1       -1.364   2.109   2.527  0.00  0.00    +0.040 C 
BRANCH  22  24
ATOM     24  C   LIG    1       -2.342   0.818   0.649  0.00  0.00    -0.110 A 
ATOM     25  C   LIG    1       -2.323  -0.525   0.976  0.00  0.00    +0.040 A 
ATOM     26  C   LIG    1       -3.374  -1.342   0.605  0.00  0.00    -0.010 A 
ATOM     27  C   LIG    1       -4.441  -0.817  -0.104  0.00  0.00    +0.100 A 
ATOM     28  C   LIG    1       -4.457   0.527  -0.436  0.00  0.00    -0.010 A 
ATOM     29  F   LIG    1       -5.467  -1.616  -0.472  0.00  0.00    -0.140 F 
ATOM     30  C   LIG    1       -3.407   1.343  -0.059  0.00  0.00    +0.060 A 
ENDBRANCH  22  24
ENDBRANCH  19  22
ENDBRANCH  17  18
ENDBRANCH   1  17
TORSDOF 7
