REMARK  Name = ZINCkj00000a6fNw.0
REMARK                            x       y       z     vdW  Elec       q    Type
REMARK                         _______ _______ _______ _____ _____    ______ ____
ROOT
ATOM      1  N   LIG    1       -0.931   3.628   0.026  0.00  0.00    -0.740 N 
ATOM      2  H   LIG    1       -0.038   4.007   0.024  0.00  0.00    +0.390 HD
ATOM      3  C   LIG    1       -1.095   2.290   0.020  0.00  0.00    +0.730 C 
ATOM      4  N   LIG    1       -0.018   1.480   0.010  0.00  0.00    -0.640 N 
ATOM      5  C   LIG    1        1.412   1.870  -0.001  0.00  0.00    +0.280 C 
ATOM      6  C   LIG    1        2.105   0.847   0.928  0.00  0.00    +0.180 C 
ATOM      7  C   LIG    1        1.177  -0.374   0.918  0.00  0.00    -0.120 C 
ATOM      8  C   LIG    1        1.848  -1.714   0.622  0.00  0.00    +0.030 C 
ATOM      9  C   LIG    1        0.886  -2.326   1.657  0.00  0.00    +0.060 C 
ATOM     10  C   LIG    1        0.794  -0.926   2.291  0.00  0.00    +0.050 C 
ATOM     11  C   LIG    1        0.002  -0.004   0.002  0.00  0.00    +0.340 C 
ATOM     12  O   LIG    1       -2.214   1.815   0.023  0.00  0.00    -0.560 OA
ENDROOT
BRANCH   6  13
ATOM     13  N   LIG    1        3.429   0.488   0.403  0.00  0.00    -0.630 N 
ATOM     14  H   LIG    1        3.833  -0.237   0.977  0.00  0.00    +0.440 HD
ATOM     15  H   LIG    1        4.027   1.300   0.416  0.00  0.00    +0.440 HD
ATOM     16  H   LIG    1        3.336   0.154  -0.544  0.00  0.00    +0.440 HD
ENDBRANCH   6  13
BRANCH   1  17
ATOM     17  C   LIG    1       -2.101   4.509   0.037  0.00  0.00    +0.300 C 
BRANCH  17  19
ATOM     18  C   LIG    1       -0.802   6.245  -1.206  0.00  0.00    +0.030 C 
ATOM     19  C   LIG    1       -1.641   5.968   0.043  0.00  0.00    -0.070 C 
ATOM     20  C   LIG    1       -0.802   6.236   1.296  0.00  0.00    -0.000 C 
ATOM     21  C   LIG    1       -0.412   7.716   1.333  0.00  0.00    +0.200 C 
ATOM     22  O   LIG    1       -1.594   8.519   1.310  0.00  0.00    -0.380 OA
ATOM     23  C   LIG    1       -2.395   8.346   0.139  0.00  0.00    +0.220 C 
ATOM     24  C   LIG    1       -2.864   6.891   0.054  0.00  0.00    +0.010 C 
ENDBRANCH  17  19
ENDBRANCH   1  17
TORSDOF 3
