REMARK  Name = ZINCrg000000sWfg.0
REMARK                            x       y       z     vdW  Elec       q    Type
REMARK                         _______ _______ _______ _____ _____    ______ ____
ROOT
ATOM      1  CA  TYR A  1       -3.012   4.123  -1.391  0.00  0.00    +0.270 C 
ENDROOT
BRANCH   1   2
ATOM      2  C   TYR A  1       -4.384   4.746  -1.376  0.00  0.00    +0.510 C 
ATOM      3  N   UNK A  2       -5.474   3.973  -1.202  0.00  0.00    -0.620 N 
ATOM      4  C   UNK A  2       -5.468   2.509  -1.014  0.00  0.00    +0.250 C 
ATOM      5  C   UNK A  2       -6.791   2.200  -0.282  0.00  0.00    -0.070 C 
ATOM      6  C   UNK A  2       -7.765   3.216  -0.922  0.00  0.00    +0.060 C 
ATOM      7  C   UNK A  2       -6.651   2.470   1.205  0.00  0.00    +0.050 C 
ATOM      8  C   UNK A  2       -5.470   1.680   1.778  0.00  0.00    +0.100 C 
ATOM      9  S   UNK A  2       -5.792  -0.095   1.562  0.00  0.00    -0.260 S 
ATOM     10  C   UNK A  2       -6.133  -0.212  -0.219  0.00  0.00    +0.100 C 
ATOM     11  C   UNK A  2       -7.243   0.781  -0.576  0.00  0.00    +0.050 C 
ATOM     12  C   UNK A  2       -6.865   4.448  -1.162  0.00  0.00    +0.220 C 
ATOM     13  O   TYR A  1       -4.508   5.944  -1.522  0.00  0.00    -0.450 OA
BRANCH  12  14
ATOM     14  C   UNK A  2       -7.230   5.103  -2.496  0.00  0.00    +0.160 C 
BRANCH  14  15
ATOM     15  O   UNK A  2       -6.463   6.297  -2.666  0.00  0.00    -0.540 OA
ATOM     16  H   UNK A  2       -6.642   6.766  -3.492  0.00  0.00    +0.370 HD
ENDBRANCH  14  15
ENDBRANCH  12  14
ENDBRANCH   1   2
BRANCH   1  21
ATOM     17  N   UNK A  0       -0.996   7.101  -2.155  0.00  0.00    -0.870 N 
ATOM     18  H   UNK A  0       -0.846   7.989  -1.795  0.00  0.00    +0.410 HD
ATOM     19  H   UNK A  0       -0.521   6.814  -2.951  0.00  0.00    +0.390 HD
ATOM     20  C   UNK A  0       -1.862   6.265  -1.549  0.00  0.00    +0.710 C 
ATOM     21  N   TYR A  1       -2.070   5.031  -2.049  0.00  0.00    -0.730 N 
ATOM     22  H   TYR A  1       -1.596   4.745  -2.845  0.00  0.00    +0.400 HD
ATOM     23  O   UNK A  0       -2.456   6.625  -0.551  0.00  0.00    -0.560 OA
ENDBRANCH   1  21
BRANCH   1  24
ATOM     24  CB  TYR A  1       -2.553   3.867   0.046  0.00  0.00    +0.090 C 
BRANCH  24  25
ATOM     25  CG  TYR A  1       -1.237   3.133   0.030  0.00  0.00    -0.090 A 
ATOM     26  CD2 TYR A  1       -1.218   1.751   0.017  0.00  0.00    +0.020 A 
ATOM     27  CE2 TYR A  1       -0.013   1.076   0.008  0.00  0.00    -0.010 A 
ATOM     28  CZ  TYR A  1        1.179   1.786   0.000  0.00  0.00    +0.100 A 
ATOM     29  CE1 TYR A  1        1.157   3.174   0.008  0.00  0.00    -0.010 A 
ATOM     30  CD1 TYR A  1       -0.051   3.844   0.023  0.00  0.00    +0.030 A 
BRANCH  28  31
ATOM     31  OH  TYR A  1        2.366   1.125  -0.015  0.00  0.00    -0.500 OA
ATOM     32  HH  TYR A  1        2.701   0.938  -0.903  0.00  0.00    +0.390 HD
ENDBRANCH  28  31
ENDBRANCH  24  25
ENDBRANCH   1  24
TORSDOF 7
