REMARK  Name = ZINCrH00000No4KB.0
REMARK                            x       y       z     vdW  Elec       q    Type
REMARK                         _______ _______ _______ _____ _____    ______ ____
ROOT
ATOM      1  C   LIG    1       -0.018   1.503   0.010  0.00  0.00    +0.190 C 
ATOM      2  C   LIG    1        0.002  -0.004   0.002  0.00  0.00    +0.140 A 
ATOM      3  N   LIG    1       -0.003  -0.764  -1.057  0.00  0.00    -0.270 NA
ATOM      4  N   LIG    1        0.024  -2.105  -0.660  0.00  0.00    -0.300 N 
ATOM      5  C   LIG    1        0.038  -2.156   0.684  0.00  0.00    +0.190 A 
ATOM      6 CL   LIG    1        0.068  -3.591   1.661  0.00  0.00    +0.070 Cl
ATOM      7  C   LIG    1        0.024  -0.843   1.145  0.00  0.00    -0.220 A 
ENDROOT
BRANCH   4   8
ATOM      8  C   LIG    1        0.032  -3.212  -1.520  0.00  0.00    +0.120 A 
ATOM      9  C   LIG    1        0.746  -4.353  -1.179  0.00  0.00    +0.050 A 
ATOM     10  C   LIG    1        0.748  -5.444  -2.025  0.00  0.00    +0.020 A 
ATOM     11  C   LIG    1        0.048  -5.397  -3.219  0.00  0.00    +0.110 A 
ATOM     12  C   LIG    1       -0.660  -4.258  -3.564  0.00  0.00    +0.010 A 
ATOM     13  F   LIG    1        0.056  -6.464  -4.048  0.00  0.00    -0.130 F 
ATOM     14  C   LIG    1       -0.669  -3.167  -2.718  0.00  0.00    +0.080 A 
ENDBRANCH   4   8
BRANCH   7  15
ATOM     15  C   LIG    1        0.031  -0.424   2.500  0.00  0.00    +0.400 C 
ATOM     16  N   LIG    1        0.052  -1.320   3.467  0.00  0.00    -0.380 NA
BRANCH  16  17
ATOM     17  N   LIG    1        0.059  -0.939   4.699  0.00  0.00    -0.260 NA
ATOM     18  C   LIG    1        0.080  -1.836   5.667  0.00  0.00    +0.150 C 
ATOM     19  C   LIG    1        0.093  -3.305   5.530  0.00  0.00    +0.530 C 
ATOM     20  N   LIG    1        0.117  -3.836   6.764  0.00  0.00    -0.660 N 
ATOM     21  H   LIG    1        0.131  -4.787   6.950  0.00  0.00    +0.420 HD
ATOM     22  C   LIG    1        0.113  -2.847   7.741  0.00  0.00    +0.170 A 
ATOM     23  C   LIG    1        0.127  -2.918   9.129  0.00  0.00    -0.010 A 
ATOM     24  C   LIG    1        0.118  -1.762   9.883  0.00  0.00    +0.080 A 
ATOM     25  C   LIG    1        0.096  -0.520   9.271  0.00  0.00    -0.020 A 
ATOM     26  C   LIG    1        0.081  -0.428   7.894  0.00  0.00    +0.110 A 
ATOM     27  O   LIG    1        0.085  -3.926   4.484  0.00  0.00    -0.460 OA
ATOM     28  C   LIG    1        0.090  -1.587   7.125  0.00  0.00    -0.120 A 
ENDBRANCH  16  17
ENDBRANCH   7  15
TORSDOF 3
