REMARK  Name = ZINCfl000001oywp.0
REMARK                            x       y       z     vdW  Elec       q    Type
REMARK                         _______ _______ _______ _____ _____    ______ ____
ROOT
ATOM      1  C   LIG    1       -0.090   5.866  -1.407  0.00  0.00    -0.110 C 
ATOM      2 BR   LIG    1        1.516   5.238  -2.352  0.00  0.00    -0.200 Br
ENDROOT
BRANCH   1   4
ATOM      3  O   LIG    1       -2.427   5.628  -1.682  0.00  0.00    -0.680 OA
ATOM      4  C   LIG    1       -1.320   5.351  -2.110  0.00  0.00    +0.520 C 
ATOM      5  O   LIG    1       -1.207   4.658  -3.106  0.00  0.00    -0.690 OA
ENDBRANCH   1   4
BRANCH   1   6
ATOM      6  C   LIG    1       -0.111   7.373  -1.398  0.00  0.00    +0.520 C 
ATOM      7  O   LIG    1       -1.028   7.966  -0.858  0.00  0.00    -0.680 OA
ATOM      8  O   LIG    1        0.791   7.998  -1.930  0.00  0.00    -0.690 OA
ENDBRANCH   1   6
BRANCH   1   9
ATOM      9  C   LIG    1       -0.070   5.347   0.032  0.00  0.00    +0.100 C 
BRANCH   9  10
ATOM     10  C   LIG    1       -0.050   3.840   0.023  0.00  0.00    -0.050 A 
ATOM     11  C   LIG    1        1.156   3.165   0.008  0.00  0.00    +0.020 A 
ATOM     12  C   LIG    1        1.175   1.783   0.000  0.00  0.00    -0.030 A 
ATOM     13  C   LIG    1       -0.013   1.076   0.008  0.00  0.00    -0.030 A 
ATOM     14  C   LIG    1       -1.219   1.751   0.017  0.00  0.00    -0.020 A 
ATOM     15  C   LIG    1       -1.238   3.133   0.029  0.00  0.00    +0.040 A 
ENDBRANCH   9  10
ENDBRANCH   1   9
TORSDOF 4
