REMARK  Name = ZINCrD0000074YrF.0
REMARK                            x       y       z     vdW  Elec       q    Type
REMARK                         _______ _______ _______ _____ _____    ______ ____
ROOT
ATOM      1  C   LIG    1       -0.156   1.407  -0.454  0.00  0.00    +0.600 C 
ATOM      2  N   LIG    1        0.897   2.201  -0.176  0.00  0.00    -0.590 N 
ATOM      3  C   LIG    1        2.261   1.690  -0.337  0.00  0.00    +0.300 C 
ATOM      4  O   LIG    1       -1.285   1.862  -0.426  0.00  0.00    -0.550 OA
ENDROOT
BRANCH   1   8
ATOM      5  C   LIG    1        1.015  -1.968  -1.256  0.00  0.00    -0.120 A 
ATOM      6  C   LIG    1       -0.340  -2.122  -1.334  0.00  0.00    +0.220 A 
ATOM      7  N   LIG    1       -0.925  -0.933  -1.050  0.00  0.00    -0.410 N 
ATOM      8  C   LIG    1        0.058  -0.003  -0.797  0.00  0.00    -0.050 A 
ATOM      9  C   LIG    1       -2.367  -0.678  -1.020  0.00  0.00    +0.330 C 
ATOM     10  C   LIG    1        1.269  -0.626  -0.917  0.00  0.00    +0.060 A 
BRANCH   5  14
ATOM     11  C   LIG    1        5.625  -3.739  -1.562  0.00  0.00    +0.180 C 
ATOM     12  C   LIG    1        4.120  -3.798  -1.620  0.00  0.00    +0.050 A 
ATOM     13  N   LIG    1        3.336  -2.801  -1.396  0.00  0.00    -0.470 NA
ATOM     14  C   LIG    1        2.034  -3.024  -1.489  0.00  0.00    +0.160 A 
ATOM     15  C   LIG    1        1.714  -4.293  -1.807  0.00  0.00    -0.100 A 
ATOM     16  S   LIG    1        3.213  -5.199  -1.993  0.00  0.00    +0.120 S 
ENDBRANCH   5  14
ENDBRANCH   1   8
BRANCH   2  17
ATOM     17  C   LIG    1        0.678   3.573   0.286  0.00  0.00    +0.340 C 
BRANCH  17  18
ATOM     18  C   LIG    1        0.591   3.588   1.791  0.00  0.00    +0.500 C 
ATOM     19  N   LIG    1        0.391   4.751   2.443  0.00  0.00    -0.670 N 
ATOM     20  H   LIG    1        0.228   5.566   1.942  0.00  0.00    +0.410 HD
ATOM     21  O   LIG    1        0.701   2.554   2.415  0.00  0.00    -0.500 OA
BRANCH  19  22
ATOM     22  C   LIG    1        0.419   4.783   3.842  0.00  0.00    +0.140 A 
ATOM     23  C   LIG    1       -0.420   5.645   4.535  0.00  0.00    +0.020 A 
ATOM     24  C   LIG    1       -0.395   5.671   5.916  0.00  0.00    +0.010 A 
ATOM     25  C   LIG    1        0.475   4.846   6.609  0.00  0.00    +0.080 A 
ATOM     26  C   LIG    1        1.317   3.990   5.920  0.00  0.00    +0.010 A 
ATOM     27  F   LIG    1        0.503   4.878   7.959  0.00  0.00    -0.140 F 
ATOM     28  C   LIG    1        1.291   3.956   4.539  0.00  0.00    +0.050 A 
ENDBRANCH  19  22
ENDBRANCH  17  18
ENDBRANCH   2  17
TORSDOF 5
