REMARK  Name = ZINCqH0000036yj8.0
REMARK                            x       y       z     vdW  Elec       q    Type
REMARK                         _______ _______ _______ _____ _____    ______ ____
ROOT
ATOM      1  N   LIG    1       -1.213  -0.614  -0.354  0.00  0.00    -0.650 N 
ATOM      2  H   LIG    1       -1.273  -1.542  -0.076  0.00  0.00    +0.410 HD
ATOM      3  C   LIG    1       -2.294   0.005  -0.869  0.00  0.00    +0.550 C 
ATOM      4  O   LIG    1       -2.211   1.158  -1.248  0.00  0.00    -0.460 OA
ENDROOT
BRANCH   3   5
ATOM      5  C   LIG    1       -3.578  -0.715  -0.972  0.00  0.00    -0.160 A 
ATOM      6  C   LIG    1       -3.675  -2.041  -0.542  0.00  0.00    +0.080 A 
ATOM      7  C   LIG    1       -4.876  -2.707  -0.638  0.00  0.00    -0.010 A 
ATOM      8  C   LIG    1       -5.990  -2.067  -1.170  0.00  0.00    +0.170 A 
ATOM      9  O   LIG    1       -7.165  -2.741  -1.266  0.00  0.00    -0.330 OA
ATOM     10  C   LIG    1       -8.346  -1.958  -1.464  0.00  0.00    +0.440 C 
ATOM     11  O   LIG    1       -8.098  -1.015  -2.513  0.00  0.00    -0.380 OA
ATOM     12  C   LIG    1       -7.104  -0.046  -2.171  0.00  0.00    +0.300 C 
ATOM     13  C   LIG    1       -5.897  -0.749  -1.601  0.00  0.00    -0.210 A 
ATOM     14  C   LIG    1       -4.700  -0.074  -1.505  0.00  0.00    +0.140 A 
ENDBRANCH   3   5
BRANCH   1  16
ATOM     15  C   LIG    1        0.136   1.393   0.116  0.00  0.00    -0.230 A 
ATOM     16  C   LIG    1       -0.008   0.079  -0.222  0.00  0.00    +0.330 A 
ATOM     17  N   LIG    1        1.243  -0.434  -0.405  0.00  0.00    -0.330 N 
ATOM     18  N   LIG    1        2.166   0.594  -0.173  0.00  0.00    -0.260 NA
ATOM     19  C   LIG    1        1.506   1.682   0.137  0.00  0.00    +0.260 A 
BRANCH  17  20
ATOM     20  C   LIG    1        1.550  -1.754  -0.762  0.00  0.00    +0.150 A 
ATOM     21  C   LIG    1        0.839  -2.808  -0.206  0.00  0.00    -0.020 A 
ATOM     22  C   LIG    1        1.141  -4.108  -0.563  0.00  0.00    +0.050 A 
ATOM     23  C   LIG    1        2.157  -4.360  -1.466  0.00  0.00    +0.010 A 
ATOM     24  C   LIG    1        2.871  -3.312  -2.018  0.00  0.00    +0.050 A 
ATOM     25  C   LIG    1        2.570  -2.010  -1.669  0.00  0.00    +0.020 A 
ENDBRANCH  17  20
BRANCH  15  27
ATOM     26  C   LIG    1       -0.287   4.067   0.828  0.00  0.00    +0.080 C 
ATOM     27  S   LIG    1       -1.170   2.526   0.457  0.00  0.00    -0.000 S 
ENDBRANCH  15  27
ENDBRANCH   1  16
TORSDOF 4
