REMARK  Name = ZINCpe000000SyRD.0
REMARK                            x       y       z     vdW  Elec       q    Type
REMARK                         _______ _______ _______ _____ _____    ______ ____
ROOT
ATOM      1  C   LIG    1       -0.013   1.503   0.018  0.00  0.00    +0.040 C 
ENDROOT
BRANCH   1  10
ATOM      2  C   LIG    1        4.389  -3.299  -2.464  0.00  0.00    +0.100 C 
ATOM      3  C   LIG    1        3.768  -1.955  -2.742  0.00  0.00    +0.520 C 
ATOM      4  N   LIG    1        3.190  -1.260  -1.742  0.00  0.00    -0.600 N 
ATOM      5  C   LIG    1        3.059  -1.808  -0.437  0.00  0.00    +0.250 C 
ATOM      6  C   LIG    1        1.808  -2.726  -0.238  0.00  0.00    +0.010 C 
ATOM      7  C   LIG    1        0.635  -2.086  -1.040  0.00  0.00    +0.250 C 
ATOM      8  N   LIG    1        0.590  -0.666  -1.007  0.00  0.00    -0.600 N 
ATOM      9  C   LIG    1        1.216   0.056  -2.145  0.00  0.00    +0.280 C 
ATOM     10  C   LIG    1        0.010  -0.004   0.014  0.00  0.00    +0.530 C 
ATOM     11  O   LIG    1       -0.492  -0.621   0.929  0.00  0.00    -0.530 OA
ATOM     12  C   LIG    1        2.661   0.111  -1.955  0.00  0.00    +0.270 C 
ATOM     13  O   LIG    1        3.789  -1.498  -3.865  0.00  0.00    -0.540 OA
ENDBRANCH   1  10
BRANCH   1  14
ATOM     14  C   LIG    1       -0.725   1.998   1.278  0.00  0.00    +0.350 C 
BRANCH  14  15
ATOM     15  N   LIG    1       -0.747   3.463   1.283  0.00  0.00    -0.540 N 
ATOM     16  C   LIG    1        0.190   4.264   1.823  0.00  0.00    +0.680 A 
ATOM     17  N   LIG    1       -0.154   5.553   1.640  0.00  0.00    -0.540 N 
ATOM     18  C   LIG    1       -1.370   5.590   0.960  0.00  0.00    +0.090 A 
ATOM     19  C   LIG    1       -2.182   6.623   0.519  0.00  0.00    +0.030 A 
ATOM     20  C   LIG    1       -3.360   6.337  -0.143  0.00  0.00    +0.020 A 
ATOM     21  C   LIG    1       -3.733   5.023  -0.367  0.00  0.00    +0.020 A 
ATOM     22  C   LIG    1       -2.930   3.987   0.069  0.00  0.00    +0.030 A 
ATOM     23  C   LIG    1        0.616   6.717   2.084  0.00  0.00    +0.340 C 
ATOM     24  O   LIG    1        1.198   3.881   2.388  0.00  0.00    -0.550 OA
ATOM     25  C   LIG    1       -1.746   4.264   0.734  0.00  0.00    +0.090 A 
ENDBRANCH  14  15
ENDBRANCH   1  14
TORSDOF 3
