REMARK  Name = ZINCpe00000yvs1H.0
REMARK                            x       y       z     vdW  Elec       q    Type
REMARK                         _______ _______ _______ _____ _____    ______ ____
ROOT
ATOM      1  C   LIG    1        0.306   2.725  -1.785  0.00  0.00    +0.480 C 
ATOM      2  N   LIG    1       -0.049   2.367  -0.535  0.00  0.00    -0.610 N 
ATOM      3  C   LIG    1        0.971   2.160   0.502  0.00  0.00    +0.260 C 
ATOM      4  C   LIG    1        0.622   3.022   1.720  0.00  0.00    +0.020 C 
ATOM      5  C   LIG    1       -0.809   2.702   2.168  0.00  0.00    +0.050 C 
ATOM      6  C   LIG    1       -1.788   3.035   1.040  0.00  0.00    +0.050 C 
ATOM      7  C   LIG    1       -1.462   2.174  -0.184  0.00  0.00    +0.290 C 
ATOM      8  O   LIG    1       -0.535   2.803  -2.655  0.00  0.00    -0.510 OA
ENDROOT
BRANCH   6   9
ATOM      9  C   LIG    1       -3.196   2.751   1.495  0.00  0.00    +0.230 A 
ATOM     10  C   LIG    1       -3.458   1.683   2.339  0.00  0.00    -0.140 A 
ATOM     11  C   LIG    1       -4.767   1.459   2.738  0.00  0.00    +0.370 A 
ATOM     12  N   LIG    1       -5.722   2.260   2.295  0.00  0.00    -0.570 NA
ATOM     13  C   LIG    1       -5.439   3.269   1.484  0.00  0.00    +0.570 A 
ATOM     14  N   LIG    1       -4.198   3.513   1.089  0.00  0.00    -0.570 NA
BRANCH  13  15
ATOM     15  N   LIG    1       -6.463   4.087   1.040  0.00  0.00    -0.820 N 
ATOM     16  H   LIG    1       -7.375   3.918   1.322  0.00  0.00    +0.420 HD
ATOM     17  H   LIG    1       -6.268   4.829   0.446  0.00  0.00    +0.420 HD
ENDBRANCH  13  15
ENDBRANCH   6   9
BRANCH   1  18
ATOM     18  C   LIG    1        1.748   3.029  -2.101  0.00  0.00    +0.260 C 
BRANCH  18  24
ATOM     19  C   LIG    1        0.634   5.522  -0.558  0.00  0.00    +0.310 C 
ATOM     20  N   LIG    1        1.390   5.557  -1.812  0.00  0.00    -0.460 N 
ATOM     21  C   LIG    1        1.735   6.661  -2.509  0.00  0.00    +0.400 A 
ATOM     22  N   LIG    1        2.397   6.295  -3.572  0.00  0.00    -0.490 NA
ATOM     23  C   LIG    1        2.502   4.958  -3.589  0.00  0.00    +0.200 A 
ATOM     24  C   LIG    1        1.881   4.478  -2.495  0.00  0.00    -0.030 A 
ENDBRANCH  18  24
BRANCH  18  25
ATOM     25  N   LIG    1        2.196   2.177  -3.211  0.00  0.00    -0.510 NA
ATOM     26  C   LIG    1        1.297   2.301  -4.366  0.00  0.00    +0.210 C 
ATOM     27  C   LIG    1        2.315   0.776  -2.784  0.00  0.00    +0.200 C 
ENDBRANCH  18  25
ENDBRANCH   1  18
TORSDOF 5
