REMARK  Name = ZINCqH00000507Mo.0
REMARK                            x       y       z     vdW  Elec       q    Type
REMARK                         _______ _______ _______ _____ _____    ______ ____
ROOT
ATOM      1  O   LIG    1        2.537  -0.244   0.057  0.00  0.00    -0.320 OA
ENDROOT
BRANCH   1   2
ATOM      2  C   LIG    1        2.485   1.099  -0.046  0.00  0.00    +0.520 C 
ATOM      3  O   LIG    1        3.510   1.740  -0.147  0.00  0.00    -0.490 OA
BRANCH   2   4
ATOM      4  C   LIG    1        1.178   1.790  -0.034  0.00  0.00    -0.070 A 
ATOM      5  C   LIG    1       -0.013   1.075  -0.030  0.00  0.00    +0.060 A 
ATOM      6  C   LIG    1       -1.226   1.760  -0.026  0.00  0.00    +0.150 A 
ATOM      7  N   LIG    1       -1.282   3.068  -0.013  0.00  0.00    -0.450 NA
ATOM      8  C   LIG    1       -0.178   3.820  -0.017  0.00  0.00    +0.130 A 
ATOM      9  C   LIG    1       -0.260   5.225  -0.010  0.00  0.00    +0.050 A 
ATOM     10  C   LIG    1        0.881   5.967  -0.013  0.00  0.00    +0.030 A 
ATOM     11  C   LIG    1        2.134   5.359  -0.023  0.00  0.00    +0.020 A 
ATOM     12  C   LIG    1        2.252   4.001  -0.030  0.00  0.00    +0.050 A 
ATOM     13  C   LIG    1       -2.511   0.972  -0.028  0.00  0.00    +0.140 C 
ATOM     14  C   LIG    1        1.099   3.206  -0.027  0.00  0.00    -0.060 A 
ENDBRANCH   2   4
ENDBRANCH   1   2
BRANCH   1  15
ATOM     15  C   LIG    1        3.854  -0.855   0.038  0.00  0.00    +0.270 C 
BRANCH  15  18
ATOM     16  N   LIG    1        4.814  -3.131   0.169  0.00  0.00    -0.670 N 
ATOM     17  H   LIG    1        5.696  -2.727   0.172  0.00  0.00    +0.420 HD
ATOM     18  C   LIG    1        3.715  -2.351   0.163  0.00  0.00    +0.520 C 
ATOM     19  O   LIG    1        2.615  -2.852   0.257  0.00  0.00    -0.490 OA
BRANCH  16  24
ATOM     20  C   LIG    1        4.285  -8.781   0.173  0.00  0.00    +0.100 C 
ATOM     21  C   LIG    1        4.425  -7.281   0.171  0.00  0.00    -0.130 A 
ATOM     22  C   LIG    1        5.466  -6.684   0.857  0.00  0.00    +0.070 A 
ATOM     23  C   LIG    1        5.600  -5.309   0.854  0.00  0.00    -0.010 A 
ATOM     24  C   LIG    1        4.682  -4.524   0.169  0.00  0.00    +0.170 A 
ATOM     25  C   LIG    1        3.637  -5.124  -0.520  0.00  0.00    +0.000 A 
ATOM     26  C   LIG    1        3.510  -6.502  -0.518  0.00  0.00    +0.120 A 
ATOM     27  F   LIG    1        2.494  -7.087  -1.188  0.00  0.00    -0.130 F 
ENDBRANCH  16  24
ENDBRANCH  15  18
ENDBRANCH   1  15
TORSDOF 5
