REMARK  Name = ZINCrg00001JduVG.0
REMARK                            x       y       z     vdW  Elec       q    Type
REMARK                         _______ _______ _______ _____ _____    ______ ____
ROOT
ATOM      1  C   LIG    1        1.167  -2.820  -2.019  0.00  0.00    -0.190 A 
ATOM      2  C   LIG    1        0.604  -2.046  -1.026  0.00  0.00    +0.060 A 
ATOM      3  S   LIG    1       -0.072  -3.035   0.189  0.00  0.00    +0.360 S 
ATOM      4  C   LIG    1        0.416  -4.499  -0.650  0.00  0.00    -0.340 A 
ATOM      5  C   LIG    1        1.059  -4.186  -1.793  0.00  0.00    +0.040 A 
ATOM      6  C   LIG    1        1.604  -5.223  -2.741  0.00  0.00    +0.120 C 
ENDROOT
BRANCH   4   7
ATOM      7  C   LIG    1        0.162  -5.862  -0.177  0.00  0.00    +0.600 C 
ATOM      8  O   LIG    1        0.541  -6.814  -0.832  0.00  0.00    -0.530 OA
ATOM      9  N   LIG    1       -0.492  -6.060   0.985  0.00  0.00    -0.850 N 
ATOM     10  H   LIG    1       -0.660  -6.963   1.299  0.00  0.00    +0.410 HD
ATOM     11  H   LIG    1       -0.794  -5.301   1.508  0.00  0.00    +0.400 HD
ENDBRANCH   4   7
BRANCH   2  12
ATOM     12  N   LIG    1        0.585  -0.664  -1.018  0.00  0.00    -0.620 N 
ATOM     13  H   LIG    1        0.992  -0.170  -1.747  0.00  0.00    +0.420 HD
ATOM     14  C   LIG    1        0.002  -0.004   0.002  0.00  0.00    +0.490 C 
ATOM     15  O   LIG    1       -0.506  -0.622   0.913  0.00  0.00    -0.470 OA
BRANCH  14  16
ATOM     16  C   LIG    1       -0.018   1.503   0.010  0.00  0.00    +0.360 C 
BRANCH  16  17
ATOM     17  N   LIG    1       -0.704   1.975   1.216  0.00  0.00    -0.450 N 
ATOM     18  C   LIG    1       -2.024   2.324   1.315  0.00  0.00    +0.130 A 
ATOM     19  C   LIG    1       -2.234   2.694   2.593  0.00  0.00    +0.150 A 
ATOM     20  N   LIG    1       -1.071   2.584   3.253  0.00  0.00    -0.470 NA
ATOM     21  C   LIG    1       -0.151   2.154   2.434  0.00  0.00    +0.230 A 
BRANCH  21  22
ATOM     22  C   LIG    1        1.291   1.898   2.790  0.00  0.00    +0.110 C 
BRANCH  22  23
ATOM     23  C   LIG    1        2.107   3.173   2.563  0.00  0.00    +0.200 C 
ATOM     24  C   LIG    1        3.589   2.880   2.804  0.00  0.00    +0.010 C 
BRANCH  23  25
ATOM     25  O   LIG    1        1.668   4.187   3.469  0.00  0.00    -0.550 OA
ATOM     26  H   LIG    1        1.764   3.950   4.401  0.00  0.00    +0.380 HD
ENDBRANCH  23  25
ENDBRANCH  22  23
ENDBRANCH  21  22
ENDBRANCH  16  17
ENDBRANCH  14  16
ENDBRANCH   2  12
BRANCH   1  27
ATOM     27  C   LIG    1        1.822  -2.252  -3.203  0.00  0.00    +0.540 C 
ATOM     28  O   LIG    1        3.013  -2.008  -3.180  0.00  0.00    -0.490 OA
BRANCH  27  29
ATOM     29  O   LIG    1        1.103  -2.002  -4.316  0.00  0.00    -0.350 OA
BRANCH  29  31
ATOM     30  C   LIG    1        0.844  -1.227  -6.610  0.00  0.00    +0.070 C 
ATOM     31  C   LIG    1        1.817  -1.440  -5.449  0.00  0.00    +0.200 C 
ENDBRANCH  29  31
ENDBRANCH  27  29
ENDBRANCH   1  27
TORSDOF 10
