REMARK  Name = ZINCtV00000L6jzj.0
REMARK                            x       y       z     vdW  Elec       q    Type
REMARK                         _______ _______ _______ _____ _____    ______ ____
ROOT
ATOM      1  C   LIG    1       -0.574   9.095  -1.226  0.00  0.00    +0.440 A 
ATOM      2  C   LIG    1       -1.134   8.592  -2.382  0.00  0.00    -0.070 A 
ATOM      3  C   LIG    1       -1.066   7.221  -2.630  0.00  0.00    +0.220 A 
ATOM      4  N   LIG    1       -0.475   6.419  -1.770  0.00  0.00    -0.470 NA
ATOM      5  C   LIG    1        0.073   6.891  -0.646  0.00  0.00    +0.300 A 
ATOM      6  C   LIG    1        0.746   6.268   0.412  0.00  0.00    -0.210 A 
ATOM      7  C   LIG    1        1.095   7.268   1.328  0.00  0.00    +0.140 A 
ATOM      8  N   LIG    1        0.678   8.424   0.871  0.00  0.00    -0.300 NA
ATOM      9  C   LIG    1        1.831   7.051   2.625  0.00  0.00    +0.180 C 
ATOM     10  C   LIG    1       -1.673   6.656  -3.888  0.00  0.00    +0.160 C 
ATOM     11  N   LIG    1        0.034   8.230  -0.355  0.00  0.00    -0.330 N 
ENDROOT
BRANCH   6  12
ATOM     12  C   LIG    1        1.031   4.820   0.541  0.00  0.00    +0.020 A 
ATOM     13  C   LIG    1        2.348   4.362   0.526  0.00  0.00    +0.040 A 
ATOM     14  C   LIG    1        2.608   3.012   0.646  0.00  0.00    +0.020 A 
ATOM     15  C   LIG    1        1.564   2.113   0.781  0.00  0.00    -0.040 A 
ATOM     16  C   LIG    1        0.254   2.562   0.792  0.00  0.00    +0.020 A 
ATOM     17 CL   LIG    1        1.897   0.416   0.931  0.00  0.00    -0.070 Cl
ATOM     18  C   LIG    1       -0.017   3.910   0.678  0.00  0.00    +0.040 A 
ENDBRANCH   6  12
BRANCH   1  19
ATOM     19  N   LIG    1       -0.624  10.446  -0.953  0.00  0.00    -0.670 N 
ATOM     20  H   LIG    1       -0.238  11.082  -1.575  0.00  0.00    +0.420 HD
BRANCH  19  24
ATOM     21  C   LIG    1       -2.439  11.795   2.545  0.00  0.00    -0.110 A 
ATOM     22  C   LIG    1       -1.750  12.683   1.738  0.00  0.00    +0.050 A 
ATOM     23  C   LIG    1       -1.147  12.239   0.578  0.00  0.00    -0.030 A 
ATOM     24  C   LIG    1       -1.233  10.899   0.221  0.00  0.00    +0.180 A 
ATOM     25  C   LIG    1       -1.929  10.011   1.031  0.00  0.00    -0.040 A 
ATOM     26  C   LIG    1       -2.526  10.461   2.193  0.00  0.00    +0.040 A 
BRANCH  21  27
ATOM     27  C   LIG    1       -3.095  12.284   3.810  0.00  0.00    +0.060 C 
BRANCH  27  28
ATOM     28  C   LIG    1       -4.529  12.722   3.504  0.00  0.00    +0.010 C 
BRANCH  28  30
ATOM     29  C   LIG    1       -6.629  13.656   4.484  0.00  0.00    +0.000 C 
ATOM     30  C   LIG    1       -5.196  13.218   4.789  0.00  0.00    -0.010 C 
ENDBRANCH  28  30
ENDBRANCH  27  28
ENDBRANCH  21  27
ENDBRANCH  19  24
ENDBRANCH   1  19
TORSDOF 6
