REMARK  Name = ZINCrH00000tj1du.0
REMARK                            x       y       z     vdW  Elec       q    Type
REMARK                         _______ _______ _______ _____ _____    ______ ____
ROOT
ATOM      1  C   LIG    1       -0.942  -0.933  -4.288  0.00  0.00    +0.270 A 
ATOM      2  N   LIG    1       -1.008  -1.678  -5.347  0.00  0.00    -0.500 NA
ATOM      3  C   LIG    1        0.013  -1.619  -6.189  0.00  0.00    +0.130 A 
ATOM      4  C   LIG    1        1.009  -0.790  -5.830  0.00  0.00    -0.110 A 
ATOM      5  S   LIG    1        0.574  -0.037  -4.298  0.00  0.00    +0.210 S 
ENDROOT
BRANCH   3   6
ATOM      6  C   LIG    1        0.058  -2.417  -7.439  0.00  0.00    -0.020 A 
ATOM      7  C   LIG    1        1.200  -2.404  -8.236  0.00  0.00    +0.040 A 
ATOM      8  C   LIG    1        1.239  -3.146  -9.399  0.00  0.00    +0.030 A 
ATOM      9  C   LIG    1        0.143  -3.908  -9.778  0.00  0.00    +0.060 A 
ATOM     10  O   LIG    1        0.200  -4.627 -10.933  0.00  0.00    -0.310 OA
ATOM     11  C   LIG    1       -0.770  -5.667 -11.093  0.00  0.00    +0.220 C 
ATOM     12  C   LIG    1       -2.145  -5.106 -10.703  0.00  0.00    +0.220 C 
ATOM     13  O   LIG    1       -2.082  -4.672  -9.341  0.00  0.00    -0.310 OA
ATOM     14  C   LIG    1       -1.000  -3.927  -8.985  0.00  0.00    +0.050 A 
ATOM     15  C   LIG    1       -1.042  -3.187  -7.816  0.00  0.00    +0.060 A 
ENDBRANCH   3   6
BRANCH   1  18
ATOM     16  O   LIG    1       -0.719   0.615  -2.145  0.00  0.00    -0.480 OA
ATOM     17  C   LIG    1       -1.731  -0.047  -2.235  0.00  0.00    +0.540 C 
ATOM     18  N   LIG    1       -1.913  -0.857  -3.297  0.00  0.00    -0.620 N 
ATOM     19  H   LIG    1       -2.723  -1.387  -3.370  0.00  0.00    +0.430 HD
BRANCH  17  20
ATOM     20  C   LIG    1       -2.784   0.035  -1.161  0.00  0.00    -0.040 C 
ATOM     21  C   LIG    1       -2.439  -0.543   0.213  0.00  0.00    +0.090 C 
ATOM     22  C   LIG    1       -2.519   0.972   0.019  0.00  0.00    +0.060 C 
BRANCH  22  23
ATOM     23  C   LIG    1       -1.223   1.743   0.017  0.00  0.00    -0.110 A 
ATOM     24  C   LIG    1       -1.231   3.129   0.030  0.00  0.00    +0.060 A 
ATOM     25  C   LIG    1       -0.015   3.796   0.022  0.00  0.00    -0.050 A 
ATOM     26  C   LIG    1        1.155   3.062   0.007  0.00  0.00    +0.250 A 
ATOM     27  N   LIG    1        1.125   1.743   0.001  0.00  0.00    -0.490 NA
ATOM     28  C   LIG    1       -0.013   1.076   0.008  0.00  0.00    +0.300 A 
ENDBRANCH  22  23
ENDBRANCH  17  20
ENDBRANCH   1  18
TORSDOF 4
