REMARK  Name = ZINCrD00000F5LB0.0
REMARK                            x       y       z     vdW  Elec       q    Type
REMARK                         _______ _______ _______ _____ _____    ______ ____
ROOT
ATOM      1  C   LIG    1        3.531   0.568  -0.029  0.00  0.00    +0.300 C 
ATOM      2  C   LIG    1        4.043   0.172   1.357  0.00  0.00    +0.080 C 
ENDROOT
BRANCH   1  11
ATOM      3  C   LIG    1        7.404  -4.319   0.818  0.00  0.00    +0.090 C 
ATOM      4  C   LIG    1        6.005  -4.737   0.444  0.00  0.00    +0.530 C 
ATOM      5  N   LIG    1        5.360  -4.110  -0.559  0.00  0.00    -0.650 N 
ATOM      6  C   LIG    1        4.027  -4.249  -1.178  0.00  0.00    +0.280 C 
ATOM      7  C   LIG    1        4.190  -2.784  -1.604  0.00  0.00    -0.090 C 
ATOM      8  C   LIG    1        3.727  -2.506  -3.033  0.00  0.00    +0.030 C 
ATOM      9  C   LIG    1        4.059  -1.052  -3.387  0.00  0.00    +0.040 C 
ATOM     10  C   LIG    1        3.429  -0.124  -2.346  0.00  0.00    +0.170 C 
ATOM     11  N   LIG    1        3.980  -0.421  -1.018  0.00  0.00    -0.500 NA
ATOM     12  C   LIG    1        3.634  -1.785  -0.593  0.00  0.00    +0.220 C 
ATOM     13  C   LIG    1        5.703  -3.008  -1.481  0.00  0.00    +0.300 C 
ATOM     14  O   LIG    1        5.460  -5.637   1.046  0.00  0.00    -0.550 OA
ENDBRANCH   1  11
BRANCH   1  15
ATOM     15  C   LIG    1        2.025   0.616  -0.014  0.00  0.00    +0.130 A 
ATOM     16  N   LIG    1        1.222  -0.412  -0.012  0.00  0.00    -0.280 NA
ATOM     17  N   LIG    1        0.002  -0.004   0.002  0.00  0.00    -0.280 NA
ATOM     18  C   LIG    1       -0.016   1.308   0.009  0.00  0.00    +0.210 A 
ATOM     19  O   LIG    1        1.266   1.725  -0.001  0.00  0.00    -0.220 OA
BRANCH  18  20
ATOM     20  C   LIG    1       -1.218   2.169   0.020  0.00  0.00    -0.030 A 
ATOM     21  C   LIG    1       -1.085   3.558   0.032  0.00  0.00    +0.050 A 
ATOM     22  C   LIG    1       -2.211   4.355   0.037  0.00  0.00    +0.010 A 
ATOM     23  C   LIG    1       -3.469   3.781   0.041  0.00  0.00    -0.060 A 
ATOM     24  C   LIG    1       -3.608   2.404   0.034  0.00  0.00    -0.090 A 
ATOM     25  C   LIG    1       -4.983   1.787   0.038  0.00  0.00    +0.110 C 
ATOM     26  C   LIG    1       -4.695   4.658   0.052  0.00  0.00    +0.110 C 
ATOM     27  C   LIG    1       -2.490   1.595   0.024  0.00  0.00    +0.080 A 
ENDBRANCH  18  20
ENDBRANCH   1  15
TORSDOF 3
