REMARK  Name = ZINC5d0000002nnL.0
REMARK                            x       y       z     vdW  Elec       q    Type
REMARK                         _______ _______ _______ _____ _____    ______ ____
ROOT
ATOM      1  C   LIG    1       -2.880   1.543   2.537  0.00  0.00    +0.250 C 
ENDROOT
BRANCH   1   2
ATOM      2  N   LIG    1       -4.258   1.035   2.547  0.00  0.00    -0.640 N 
ATOM      3  H   LIG    1       -4.747   1.369   1.730  0.00  0.00    +0.440 HD
ATOM      4  H   LIG    1       -4.731   1.360   3.377  0.00  0.00    +0.440 HD
ATOM      5  H   LIG    1       -4.245   0.026   2.541  0.00  0.00    +0.440 HD
ENDBRANCH   1   2
BRANCH   1   6
ATOM      6  C   LIG    1       -2.164   1.050   1.278  0.00  0.00    +0.030 C 
BRANCH   6   8
ATOM      7  C   LIG    1       -0.013   1.086   0.008  0.00  0.00    +0.030 C 
ATOM      8  C   LIG    1       -0.729   1.579   1.267  0.00  0.00    +0.020 C 
ENDBRANCH   6   8
ENDBRANCH   1   6
TORSDOF 3
