REMARK  Name = ZINCrD0000075T9e.0
REMARK                            x       y       z     vdW  Elec       q    Type
REMARK                         _______ _______ _______ _____ _____    ______ ____
ROOT
ATOM      1  O   LIG    1        3.534   9.951   0.444  0.00  0.00    -0.530 OA
ATOM      2  C   LIG    1        2.887   9.406   1.318  0.00  0.00    +0.600 C 
ATOM      3  N   LIG    1        1.739   8.772   1.010  0.00  0.00    -0.610 N 
ATOM      4  C   LIG    1        1.200   8.819  -0.357  0.00  0.00    +0.290 C 
ATOM      5  C   LIG    1       -0.250   9.309  -0.299  0.00  0.00    +0.030 C 
ATOM      6  C   LIG    1       -1.046   8.421   0.660  0.00  0.00    +0.240 C 
ATOM      7  C   LIG    1       -0.447   8.519   2.065  0.00  0.00    +0.000 C 
ATOM      8  C   LIG    1        1.001   8.020   2.034  0.00  0.00    +0.270 C 
ENDROOT
BRANCH   2   9
ATOM      9  C   LIG    1        3.359   9.440   2.713  0.00  0.00    -0.280 A 
ATOM     10  C   LIG    1        3.634   8.354   3.518  0.00  0.00    +0.290 A 
ATOM     11  N   LIG    1        4.036   8.818   4.711  0.00  0.00    -0.460 N 
ATOM     12  H   LIG    1        4.293   8.267   5.467  0.00  0.00    +0.450 HD
ATOM     13  N   LIG    1        4.029  10.215   4.700  0.00  0.00    -0.270 NA
ATOM     14  C   LIG    1        3.635  10.633   3.518  0.00  0.00    +0.160 A 
BRANCH  14  15
ATOM     15  C   LIG    1        3.493  12.043   3.083  0.00  0.00    -0.000 A 
ATOM     16  C   LIG    1        3.072  13.015   3.989  0.00  0.00    +0.030 A 
ATOM     17  C   LIG    1        2.941  14.327   3.580  0.00  0.00    +0.040 A 
ATOM     18  C   LIG    1        3.226  14.679   2.273  0.00  0.00    +0.000 A 
ATOM     19  C   LIG    1        3.645  13.718   1.368  0.00  0.00    +0.100 A 
ATOM     20  F   LIG    1        3.923  14.068   0.093  0.00  0.00    -0.140 F 
ATOM     21  C   LIG    1        3.785  12.402   1.769  0.00  0.00    +0.040 A 
ENDBRANCH  14  15
ENDBRANCH   2   9
BRANCH   6  22
ATOM     22  N   LIG    1       -2.442   8.867   0.692  0.00  0.00    -0.720 N 
ATOM     23  H   LIG    1       -2.663   9.785   0.471  0.00  0.00    +0.400 HD
BRANCH  22  24
ATOM     24  C   LIG    1       -3.448   7.973   1.040  0.00  0.00    +0.400 A 
ATOM     25  C   LIG    1       -3.124   6.658   1.356  0.00  0.00    -0.110 A 
ATOM     26  C   LIG    1       -4.136   5.780   1.700  0.00  0.00    +0.100 A 
ATOM     27  C   LIG    1       -5.443   6.248   1.716  0.00  0.00    -0.110 A 
ATOM     28  C   LIG    1       -5.693   7.565   1.385  0.00  0.00    +0.310 A 
ATOM     29  N   LIG    1       -4.708   8.382   1.067  0.00  0.00    -0.550 NA
ENDBRANCH  22  24
ENDBRANCH   6  22
TORSDOF 4
