REMARK  Name = ZINCvU0000000AHI.0
REMARK                            x       y       z     vdW  Elec       q    Type
REMARK                         _______ _______ _______ _____ _____    ______ ____
ROOT
ATOM      1  C   LIG    1        2.405   6.340   0.097  0.00  0.00    +0.610 C 
ATOM      2  N   LIG    1        3.727   6.547  -0.062  0.00  0.00    -0.590 N 
ATOM      3  O   LIG    1        1.981   5.212   0.263  0.00  0.00    -0.500 OA
ENDROOT
BRANCH   1  10
ATOM      4  C   LIG    1       -3.171  11.297   0.015  0.00  0.00    +0.100 C 
ATOM      5  C   LIG    1       -1.795  10.682   0.011  0.00  0.00    -0.100 A 
ATOM      6  C   LIG    1       -0.675  11.499  -0.038  0.00  0.00    +0.060 A 
ATOM      7  C   LIG    1        0.593  10.958  -0.037  0.00  0.00    +0.030 A 
ATOM      8  C   LIG    1        0.756   9.579   0.008  0.00  0.00    +0.060 A 
ATOM      9  O   LIG    1        1.839   8.777   0.021  0.00  0.00    -0.180 OA
ATOM     10  C   LIG    1        1.475   7.479   0.071  0.00  0.00    -0.050 A 
ATOM     11  C   LIG    1        0.121   7.382   0.093  0.00  0.00    -0.060 A 
ATOM     12  C   LIG    1       -0.696   6.117   0.148  0.00  0.00    +0.140 C 
ATOM     13  C   LIG    1       -0.384   8.754   0.053  0.00  0.00    -0.140 A 
ATOM     14  C   LIG    1       -1.659   9.322   0.051  0.00  0.00    +0.070 A 
ENDBRANCH   1  10
BRANCH   2  15
ATOM     15  C   LIG    1        4.640   5.405  -0.159  0.00  0.00    +0.280 C 
ATOM     16  C   LIG    1        4.178   4.453  -1.276  0.00  0.00    +0.070 C 
ATOM     17  C   LIG    1        4.935   3.118  -1.133  0.00  0.00    -0.310 C 
ATOM     18  S   LIG    1        5.326   2.980   0.648  0.00  0.00    +2.390 S 
ATOM     19  O   LIG    1        4.566   1.925   1.220  0.00  0.00    -0.930 OA
ATOM     20  O   LIG    1        6.736   3.014   0.825  0.00  0.00    -0.930 OA
ATOM     21  C   LIG    1        4.611   4.589   1.159  0.00  0.00    -0.310 C 
ENDBRANCH   2  15
BRANCH   2  22
ATOM     22  C   LIG    1        4.252   7.912  -0.139  0.00  0.00    +0.340 C 
BRANCH  22  23
ATOM     23  C   LIG    1        4.666   8.370   1.236  0.00  0.00    -0.120 A 
ATOM     24  C   LIG    1        3.729   8.917   2.093  0.00  0.00    +0.030 A 
ATOM     25  C   LIG    1        4.108   9.332   3.356  0.00  0.00    +0.000 A 
ATOM     26  C   LIG    1        5.425   9.209   3.758  0.00  0.00    -0.070 A 
ATOM     27  C   LIG    1        6.362   8.667   2.899  0.00  0.00    +0.000 A 
ATOM     28  C   LIG    1        5.983   8.248   1.637  0.00  0.00    +0.020 A 
BRANCH  26  29
ATOM     29  C   LIG    1        5.839   9.666   5.133  0.00  0.00    +0.020 C 
ATOM     30  C   LIG    1        5.055   8.882   6.188  0.00  0.00    +0.030 C 
ATOM     31  C   LIG    1        5.544  11.159   5.285  0.00  0.00    +0.040 C 
ENDBRANCH  26  29
ENDBRANCH  22  23
ENDBRANCH   2  22
TORSDOF 5
