REMARK  Name = ZINCpe00000bhEnM.0
REMARK                            x       y       z     vdW  Elec       q    Type
REMARK                         _______ _______ _______ _____ _____    ______ ____
ROOT
ATOM      1  C   LIG    1        1.212  -0.687  -0.013  0.00  0.00    -0.120 A 
ATOM      2  C   LIG    1        2.411   0.030  -0.021  0.00  0.00    +0.090 A 
ATOM      3  C   LIG    1        2.391   1.411  -0.013  0.00  0.00    +0.010 A 
ATOM      4  C   LIG    1        1.191   2.094   0.002  0.00  0.00    +0.120 A 
ATOM      5  C   LIG    1       -0.017   1.390   0.010  0.00  0.00    -0.160 A 
ATOM      6  C   LIG    1       -1.424   1.834   0.031  0.00  0.00    +0.570 C 
ATOM      7  O   LIG    1       -1.787   2.994   0.043  0.00  0.00    -0.510 OA
ATOM      8  N   LIG    1       -2.248   0.771   0.028  0.00  0.00    -0.600 N 
ATOM      9  C   LIG    1       -1.438  -0.452   0.013  0.00  0.00    +0.370 C 
ATOM     10  C   LIG    1        0.002  -0.004   0.002  0.00  0.00    -0.020 A 
ENDROOT
BRANCH   8  11
ATOM     11  C   LIG    1       -3.712   0.826   0.042  0.00  0.00    +0.290 C 
ATOM     12  C   LIG    1       -4.209   1.576  -1.198  0.00  0.00    +0.060 C 
ATOM     13  C   LIG    1       -5.732   1.718  -1.105  0.00  0.00    +0.100 C 
ATOM     14  C   LIG    1       -6.086   2.395   0.193  0.00  0.00    +0.520 C 
ATOM     15  N   LIG    1       -5.309   2.269   1.279  0.00  0.00    -0.670 N 
ATOM     16  H   LIG    1       -5.577   2.715   2.098  0.00  0.00    +0.420 HD
ATOM     17  O   LIG    1       -7.093   3.067   0.257  0.00  0.00    -0.500 OA
ATOM     18  C   LIG    1       -4.176   1.550   1.278  0.00  0.00    +0.520 C 
ATOM     19  O   LIG    1       -3.513   1.483   2.291  0.00  0.00    -0.480 OA
ENDBRANCH   8  11
BRANCH   1  22
ATOM     20  N   LIG    1        2.405  -2.825  -0.036  0.00  0.00    -0.720 N 
ATOM     21  H   LIG    1        3.239  -2.329  -0.041  0.00  0.00    +0.400 HD
ATOM     22  C   LIG    1        1.230  -2.166  -0.021  0.00  0.00    +0.560 C 
ATOM     23  O   LIG    1        0.185  -2.786  -0.014  0.00  0.00    -0.530 OA
BRANCH  20  24
ATOM     24  C   LIG    1        2.423  -4.290  -0.043  0.00  0.00    +0.260 C 
BRANCH  24  26
ATOM     25  C   LIG    1        4.564  -4.375   1.243  0.00  0.00    +0.020 C 
ATOM     26  C   LIG    1        3.872  -4.782  -0.060  0.00  0.00    -0.030 C 
ATOM     27  C   LIG    1        3.892  -6.306  -0.193  0.00  0.00    +0.030 C 
ENDBRANCH  24  26
ENDBRANCH  20  24
ENDBRANCH   1  22
TORSDOF 4
