REMARK  Name = ZINCtV00000L6kti.0
REMARK                            x       y       z     vdW  Elec       q    Type
REMARK                         _______ _______ _______ _____ _____    ______ ____
ROOT
ATOM      1  O   LIG    1       -2.187   5.289  -0.622  0.00  0.00    -0.480 OA
ATOM      2  C   LIG    1       -1.176   5.904  -0.356  0.00  0.00    +0.530 C 
ATOM      3  N   LIG    1       -0.067   5.243   0.029  0.00  0.00    -0.690 N 
ATOM      4  H   LIG    1        0.719   5.737   0.311  0.00  0.00    +0.420 HD
ENDROOT
BRANCH   3   5
ATOM      5  C   LIG    1       -0.049   3.843   0.022  0.00  0.00    +0.200 A 
ATOM      6  C   LIG    1       -0.556   3.135   1.105  0.00  0.00    -0.030 A 
ATOM      7  C   LIG    1       -0.541   1.753   1.092  0.00  0.00    +0.080 A 
ATOM      8  C   LIG    1       -0.013   1.076   0.008  0.00  0.00    +0.050 A 
ATOM      9  C   LIG    1        0.492   1.778  -1.071  0.00  0.00    +0.090 A 
ATOM     10 CL   LIG    1       -1.213   3.985   2.469  0.00  0.00    -0.040 Cl
ATOM     11  C   LIG    1        0.476   3.159  -1.067  0.00  0.00    -0.170 A 
BRANCH  11  12
ATOM     12  C   LIG    1        1.027   3.923  -2.243  0.00  0.00    +0.510 C 
ATOM     13  F   LIG    1        2.081   4.739  -1.816  0.00  0.00    -0.170 F 
ATOM     14  F   LIG    1        0.018   4.718  -2.797  0.00  0.00    -0.170 F 
ATOM     15  F   LIG    1        1.495   3.023  -3.206  0.00  0.00    -0.170 F 
ENDBRANCH  11  12
ENDBRANCH   3   5
BRANCH   2  16
ATOM     16  C   LIG    1       -1.160   7.408  -0.457  0.00  0.00    +0.240 C 
BRANCH  16  17
ATOM     17  O   LIG    1       -2.443   7.870  -0.882  0.00  0.00    -0.280 OA
BRANCH  17  18
ATOM     18  C   LIG    1       -2.599   9.214  -1.024  0.00  0.00    +0.110 A 
ATOM     19  C   LIG    1       -3.815   9.729  -1.438  0.00  0.00    +0.050 A 
ATOM     20  C   LIG    1       -3.969  11.104  -1.577  0.00  0.00    -0.080 A 
ATOM     21  C   LIG    1       -2.897  11.966  -1.310  0.00  0.00    +0.050 A 
ATOM     22  O   LIG    1       -3.305  13.238  -1.526  0.00  0.00    -0.200 OA
ATOM     23  C   LIG    1       -4.595  13.284  -1.924  0.00  0.00    +0.090 A 
ATOM     24  C   LIG    1       -5.434  14.341  -2.256  0.00  0.00    +0.020 A 
ATOM     25  C   LIG    1       -6.736  14.096  -2.638  0.00  0.00    +0.060 A 
ATOM     26  C   LIG    1       -7.223  12.800  -2.694  0.00  0.00    -0.010 A 
ATOM     27  C   LIG    1       -6.405  11.738  -2.369  0.00  0.00    +0.070 A 
ATOM     28  C   LIG    1       -1.681  11.432  -0.900  0.00  0.00    +0.070 A 
ATOM     29  C   LIG    1       -5.090  11.974  -1.983  0.00  0.00    -0.130 A 
ATOM     30  C   LIG    1       -1.536  10.069  -0.759  0.00  0.00    -0.030 A 
ENDBRANCH  17  18
ENDBRANCH  16  17
ENDBRANCH   2  16
TORSDOF 5
