REMARK  Name = ZINCpk000000nPLW.0
REMARK                            x       y       z     vdW  Elec       q    Type
REMARK                         _______ _______ _______ _____ _____    ______ ____
ROOT
ATOM      1  N   LIG    1        3.758  -5.929   0.547  0.00  0.00    -0.560 N 
ATOM      2  C   LIG    1        4.155  -4.519   0.453  0.00  0.00    +0.310 C 
ATOM      3  C   LIG    1        2.992  -3.721   1.081  0.00  0.00    +0.010 C 
ATOM      4  C   LIG    1        1.800  -4.683   0.872  0.00  0.00    +0.100 C 
ATOM      5  C   LIG    1        2.439  -6.051   0.776  0.00  0.00    +0.520 C 
ATOM      6  O   LIG    1        1.847  -7.103   0.888  0.00  0.00    -0.500 OA
ENDROOT
BRANCH   1  11
ATOM      7  C   LIG    1        5.063  -9.367   0.506  0.00  0.00    -0.050 A 
ATOM      8  C   LIG    1        6.381  -9.142   0.153  0.00  0.00    -0.020 A 
ATOM      9  C   LIG    1        6.830  -7.853  -0.070  0.00  0.00    +0.040 A 
ATOM     10  C   LIG    1        5.963  -6.786   0.060  0.00  0.00    -0.030 A 
ATOM     11  C   LIG    1        4.639  -7.008   0.414  0.00  0.00    +0.160 A 
ATOM     12  C   LIG    1        4.192  -8.303   0.644  0.00  0.00    +0.000 A 
BRANCH   7  14
ATOM     13  C   LIG    1        4.767 -11.603  -0.523  0.00  0.00    +0.040 C 
ATOM     14  C   LIG    1        4.578 -10.773   0.748  0.00  0.00    +0.020 C 
ATOM     15  C   LIG    1        5.379 -11.399   1.891  0.00  0.00    +0.040 C 
ENDBRANCH   7  14
ENDBRANCH   1  11
BRANCH   3  16
ATOM     16  C   LIG    1        2.772  -2.422   0.349  0.00  0.00    +0.530 C 
ATOM     17  N   LIG    1        1.722  -1.639   0.666  0.00  0.00    -0.720 N 
ATOM     18  H   LIG    1        1.107  -1.912   1.366  0.00  0.00    +0.410 HD
ATOM     19  O   LIG    1        3.540  -2.081  -0.525  0.00  0.00    -0.520 OA
BRANCH  17  20
ATOM     20  C   LIG    1        1.508  -0.377  -0.045  0.00  0.00    +0.260 C 
ATOM     21  C   LIG    1        2.330   0.740   0.623  0.00  0.00    +0.060 C 
ATOM     22  C   LIG    1        1.809   2.081   0.045  0.00  0.00    -0.300 C 
ATOM     23  S   LIG    1       -0.007   1.834   0.039  0.00  0.00    +2.400 S 
ATOM     24  O   LIG    1       -0.547   2.281   1.276  0.00  0.00    -0.930 OA
ATOM     25  O   LIG    1       -0.544   2.316  -1.185  0.00  0.00    -0.930 OA
ATOM     26  C   LIG    1        0.015   0.005   0.014  0.00  0.00    -0.310 C 
ENDBRANCH  17  20
ENDBRANCH   3  16
TORSDOF 4
