REMARK  Name = ZINCrH000004mA3X.1
REMARK                            x       y       z     vdW  Elec       q    Type
REMARK                         _______ _______ _______ _____ _____    ______ ____
ROOT
ATOM      1  C   LIG    1        5.658  -0.700  -1.502  0.00  0.00    +0.520 C 
ATOM      2  N   LIG    1        4.646  -0.018  -0.930  0.00  0.00    -0.720 N 
ATOM      3  H   LIG    1        4.536   0.929  -1.110  0.00  0.00    +0.410 HD
ATOM      4  O   LIG    1        5.795  -1.884  -1.278  0.00  0.00    -0.530 OA
ENDROOT
BRANCH   1   5
ATOM      5  C   LIG    1        6.619   0.009  -2.422  0.00  0.00    +0.070 C 
BRANCH   5   6
ATOM      6  C   LIG    1        7.664  -0.986  -2.932  0.00  0.00    +0.100 C 
BRANCH   6  10
ATOM      7  C   LIG    1       10.389   1.024  -5.540  0.00  0.00    +0.150 A 
ATOM      8  C   LIG    1        9.242   0.437  -6.052  0.00  0.00    -0.060 A 
ATOM      9  C   LIG    1        8.365  -0.217  -5.207  0.00  0.00    +0.070 A 
ATOM     10  C   LIG    1        8.625  -0.277  -3.851  0.00  0.00    -0.120 A 
ATOM     11  C   LIG    1        9.768   0.307  -3.337  0.00  0.00    +0.090 A 
ATOM     12  C   LIG    1       10.651   0.957  -4.178  0.00  0.00    -0.120 A 
ATOM     13 BR   LIG    1       12.214   1.756  -3.475  0.00  0.00    -0.040 Br
BRANCH   7  15
ATOM     14  C   LIG    1       10.922   1.691  -7.759  0.00  0.00    +0.240 C 
ATOM     15  O   LIG    1       11.256   1.662  -6.370  0.00  0.00    -0.300 OA
ENDBRANCH   7  15
ENDBRANCH   6  10
ENDBRANCH   5   6
ENDBRANCH   1   5
BRANCH   2  16
ATOM     16  C   LIG    1        3.711  -0.707  -0.037  0.00  0.00    +0.410 C 
BRANCH  16  17
ATOM     17  C   LIG    1        4.283  -0.743   1.357  0.00  0.00    +0.220 A 
ATOM     18  N   LIG    1        4.851   0.261   1.971  0.00  0.00    -0.300 NA
ATOM     19  N   LIG    1        5.234  -0.203   3.240  0.00  0.00    -0.480 N 
ATOM     20  H   LIG    1        5.679   0.306   3.935  0.00  0.00    +0.440 HD
ATOM     21  C   LIG    1        4.867  -1.495   3.297  0.00  0.00    +0.290 A 
ATOM     22  C   LIG    1        5.074  -2.423   4.466  0.00  0.00    +0.190 C 
ATOM     23  N   LIG    1        4.297  -1.806   2.161  0.00  0.00    -0.530 NA
ENDBRANCH  16  17
BRANCH  16  24
ATOM     24  C   LIG    1        2.396   0.029  -0.021  0.00  0.00    -0.100 A 
ATOM     25  C   LIG    1        1.208  -0.679  -0.013  0.00  0.00    +0.040 A 
ATOM     26  C   LIG    1        0.002  -0.004   0.002  0.00  0.00    +0.010 A 
ATOM     27  C   LIG    1       -0.017   1.378   0.010  0.00  0.00    +0.010 A 
ATOM     28  C   LIG    1        1.171   2.086   0.002  0.00  0.00    +0.010 A 
ATOM     29  C   LIG    1        2.377   1.411  -0.015  0.00  0.00    +0.020 A 
ENDBRANCH  16  24
ENDBRANCH   2  16
TORSDOF 7
