REMARK  Name = ZINCrH000004mA3X.0
REMARK                            x       y       z     vdW  Elec       q    Type
REMARK                         _______ _______ _______ _____ _____    ______ ____
ROOT
ATOM      1  C   LIG    1       -0.718   1.572   1.248  0.00  0.00    +0.520 C 
ATOM      2  N   LIG    1       -0.242   1.246   2.466  0.00  0.00    -0.720 N 
ATOM      3  H   LIG    1        0.555   0.699   2.544  0.00  0.00    +0.410 HD
ATOM      4  O   LIG    1       -1.714   2.256   1.150  0.00  0.00    -0.540 OA
ENDROOT
BRANCH   1   5
ATOM      5  C   LIG    1       -0.013   1.086   0.008  0.00  0.00    +0.060 C 
BRANCH   5   6
ATOM      6  C   LIG    1       -0.753   1.593  -1.232  0.00  0.00    +0.100 C 
BRANCH   6  10
ATOM      7  C   LIG    1        1.248   0.215  -4.748  0.00  0.00    +0.150 A 
ATOM      8  C   LIG    1        1.602   1.429  -4.178  0.00  0.00    -0.060 A 
ATOM      9  C   LIG    1        0.950   1.874  -3.043  0.00  0.00    +0.070 A 
ATOM     10  C   LIG    1       -0.047   1.107  -2.471  0.00  0.00    -0.120 A 
ATOM     11  C   LIG    1       -0.403  -0.104  -3.038  0.00  0.00    +0.090 A 
ATOM     12  C   LIG    1        0.243  -0.551  -4.175  0.00  0.00    -0.120 A 
ATOM     13 BR   LIG    1       -0.243  -2.207  -4.949  0.00  0.00    -0.030 Br
BRANCH   7  15
ATOM     14  C   LIG    1        2.909   0.619  -6.402  0.00  0.00    +0.250 C 
ATOM     15  O   LIG    1        1.884  -0.222  -5.867  0.00  0.00    -0.300 OA
ENDBRANCH   7  15
ENDBRANCH   6  10
ENDBRANCH   5   6
ENDBRANCH   1   5
BRANCH   2  16
ATOM     16  C   LIG    1       -0.927   1.718   3.671  0.00  0.00    +0.390 C 
BRANCH  16  17
ATOM     17  C   LIG    1       -2.048   0.771   4.015  0.00  0.00    +0.160 A 
ATOM     18  N   LIG    1       -1.923  -0.477   4.374  0.00  0.00    -0.270 NA
ATOM     19  N   LIG    1       -3.084  -0.983   4.595  0.00  0.00    -0.290 NA
ATOM     20  C   LIG    1       -4.004  -0.082   4.378  0.00  0.00    +0.180 A 
ATOM     21  C   LIG    1       -5.492  -0.274   4.518  0.00  0.00    +0.200 C 
ATOM     22  N   LIG    1       -3.372   1.057   4.004  0.00  0.00    -0.570 N 
ATOM     23  H   LIG    1       -3.785   1.904   3.774  0.00  0.00    +0.430 HD
ENDBRANCH  16  17
BRANCH  16  24
ATOM     24  C   LIG    1        0.051   1.776   4.816  0.00  0.00    -0.100 A 
ATOM     25  C   LIG    1        0.988   0.772   4.976  0.00  0.00    +0.040 A 
ATOM     26  C   LIG    1        1.888   0.827   6.023  0.00  0.00    +0.010 A 
ATOM     27  C   LIG    1        1.846   1.882   6.916  0.00  0.00    +0.020 A 
ATOM     28  C   LIG    1        0.906   2.883   6.759  0.00  0.00    +0.010 A 
ATOM     29  C   LIG    1        0.008   2.830   5.709  0.00  0.00    +0.020 A 
ENDBRANCH  16  24
ENDBRANCH   2  16
TORSDOF 7
