REMARK  Name = ZINCpe00000VUssM.2
REMARK                            x       y       z     vdW  Elec       q    Type
REMARK                         _______ _______ _______ _____ _____    ______ ____
ROOT
ATOM      1  C   LIG    1        2.081   4.138   1.128  0.00  0.00    +0.250 C 
ATOM      2  C   LIG    1        1.145   3.664   0.011  0.00  0.00    +0.290 C 
ATOM      3  N   LIG    1        1.139   2.192   0.003  0.00  0.00    -0.610 N 
ATOM      4  C   LIG    1        2.436   1.496  -0.007  0.00  0.00    +0.260 C 
ATOM      5  C   LIG    1        3.309   2.076   1.106  0.00  0.00    +0.230 C 
ATOM      6  C   LIG    1       -0.018   1.503   0.010  0.00  0.00    +0.530 C 
ATOM      7  O   LIG    1       -1.077   2.095   0.018  0.00  0.00    -0.520 OA
ATOM      8  O   LIG    1        3.352   3.499   0.980  0.00  0.00    -0.350 OA
ENDROOT
BRANCH   1  13
ATOM      9  C   LIG    1        3.069   7.574   0.550  0.00  0.00    +0.230 A 
ATOM     10  N   LIG    1        1.985   7.807   1.242  0.00  0.00    -0.300 NA
ATOM     11  N   LIG    1        1.438   6.556   1.572  0.00  0.00    -0.470 N 
ATOM     12  H   LIG    1        0.630   6.391   2.083  0.00  0.00    +0.440 HD
ATOM     13  C   LIG    1        2.256   5.632   1.038  0.00  0.00    +0.280 A 
ATOM     14  N   LIG    1        3.233   6.257   0.432  0.00  0.00    -0.500 NA
BRANCH   9  16
ATOM     15  C   LIG    1        3.207   9.513  -0.990  0.00  0.00    +0.050 C 
ATOM     16  C   LIG    1        3.987   8.625  -0.018  0.00  0.00    +0.100 C 
ATOM     17  C   LIG    1        4.547   9.482   1.119  0.00  0.00    +0.050 C 
ENDBRANCH   9  16
ENDBRANCH   1  13
BRANCH   6  18
ATOM     18  C   LIG    1        0.002  -0.004   0.002  0.00  0.00    +0.000 C 
ATOM     19  C   LIG    1        0.644  -0.556   1.296  0.00  0.00    +0.080 C 
ATOM     20  C   LIG    1       -0.166  -1.794   1.613  0.00  0.00    +0.520 C 
ATOM     21  N   LIG    1       -1.318  -1.782   0.921  0.00  0.00    -0.590 N 
ATOM     22  O   LIG    1        0.175  -2.670   2.380  0.00  0.00    -0.520 OA
ATOM     23  C   LIG    1       -1.430  -0.577   0.090  0.00  0.00    +0.300 C 
BRANCH  21  24
ATOM     24  C   LIG    1       -2.333  -2.837   0.987  0.00  0.00    +0.210 C 
ATOM     25  C   LIG    1       -2.156  -3.922   2.051  0.00  0.00    +0.040 C 
ATOM     26  C   LIG    1       -1.911  -4.250   0.576  0.00  0.00    +0.000 C 
ENDBRANCH  21  24
ENDBRANCH   6  18
TORSDOF 4
