REMARK  Name = ZINCpe00000VUssM.0
REMARK                            x       y       z     vdW  Elec       q    Type
REMARK                         _______ _______ _______ _____ _____    ______ ____
ROOT
ATOM      1  C   LIG    1       -2.239   6.742  -6.034  0.00  0.00    +0.250 C 
ATOM      2  C   LIG    1       -3.079   6.273  -4.841  0.00  0.00    +0.300 C 
ATOM      3  N   LIG    1       -2.640   4.919  -4.468  0.00  0.00    -0.610 N 
ATOM      4  C   LIG    1       -2.545   3.906  -5.531  0.00  0.00    +0.250 C 
ATOM      5  C   LIG    1       -1.736   4.489  -6.690  0.00  0.00    +0.230 C 
ATOM      6  C   LIG    1       -2.329   4.617  -3.192  0.00  0.00    +0.530 C 
ATOM      7  O   LIG    1       -2.409   5.467  -2.331  0.00  0.00    -0.520 OA
ATOM      8  O   LIG    1       -2.290   5.753  -7.064  0.00  0.00    -0.360 OA
ENDROOT
BRANCH   1  12
ATOM      9  C   LIG    1       -2.992  10.097  -7.213  0.00  0.00    +0.200 A 
ATOM     10  N   LIG    1       -4.139   9.485  -7.327  0.00  0.00    -0.290 NA
ATOM     11  N   LIG    1       -4.018   8.263  -6.943  0.00  0.00    -0.260 NA
ATOM     12  C   LIG    1       -2.791   8.043  -6.558  0.00  0.00    +0.170 A 
ATOM     13  N   LIG    1       -2.103   9.199  -6.721  0.00  0.00    -0.570 N 
ATOM     14  H   LIG    1       -1.166   9.353  -6.527  0.00  0.00    +0.430 HD
BRANCH   9  16
ATOM     15  C   LIG    1       -2.835  12.400  -6.307  0.00  0.00    +0.040 C 
ATOM     16  C   LIG    1       -2.708  11.535  -7.563  0.00  0.00    +0.100 C 
ATOM     17  C   LIG    1       -1.289  11.653  -8.122  0.00  0.00    +0.040 C 
ENDBRANCH   9  16
ENDBRANCH   1  12
BRANCH   6  18
ATOM     18  C   LIG    1       -1.882   3.223  -2.835  0.00  0.00    +0.000 C 
ATOM     19  C   LIG    1       -0.502   2.907  -3.456  0.00  0.00    +0.070 C 
ATOM     20  C   LIG    1        0.201   2.081  -2.402  0.00  0.00    +0.520 C 
ATOM     21  N   LIG    1       -0.430   2.204  -1.222  0.00  0.00    -0.590 N 
ATOM     22  O   LIG    1        1.189   1.405  -2.594  0.00  0.00    -0.520 OA
ATOM     23  C   LIG    1       -1.581   3.108  -1.324  0.00  0.00    +0.310 C 
BRANCH  21  24
ATOM     24  C   LIG    1       -0.019   1.526   0.010  0.00  0.00    +0.210 C 
ATOM     25  C   LIG    1        1.317   0.779  -0.006  0.00  0.00    +0.040 C 
ATOM     26  C   LIG    1        0.002  -0.004   0.002  0.00  0.00    +0.000 C 
ENDBRANCH  21  24
ENDBRANCH   6  18
TORSDOF 4
