REMARK  Name = ZINCpe00000VUssM.1
REMARK                            x       y       z     vdW  Elec       q    Type
REMARK                         _______ _______ _______ _____ _____    ______ ____
ROOT
ATOM      1  C   LIG    1       -0.971   8.813  -5.126  0.00  0.00    +0.280 C 
ATOM      2  C   LIG    1       -0.894   7.371  -5.655  0.00  0.00    +0.280 C 
ATOM      3  N   LIG    1       -0.262   6.537  -4.621  0.00  0.00    -0.610 N 
ATOM      4  C   LIG    1        1.012   6.995  -4.045  0.00  0.00    +0.250 C 
ATOM      5  C   LIG    1        0.845   8.452  -3.598  0.00  0.00    +0.230 C 
ATOM      6  C   LIG    1       -0.831   5.383  -4.217  0.00  0.00    +0.530 C 
ATOM      7  O   LIG    1       -1.882   5.023  -4.703  0.00  0.00    -0.520 OA
ATOM      8  O   LIG    1        0.326   9.221  -4.686  0.00  0.00    -0.360 OA
ENDROOT
BRANCH   1  11
ATOM      9  C   LIG    1       -2.730  11.005  -7.400  0.00  0.00    +0.300 A 
ATOM     10  N   LIG    1       -2.656  10.262  -6.325  0.00  0.00    -0.530 NA
ATOM     11  C   LIG    1       -1.440   9.727  -6.228  0.00  0.00    +0.230 A 
ATOM     12  N   LIG    1       -0.717  10.129  -7.240  0.00  0.00    -0.280 NA
ATOM     13  N   LIG    1       -1.539  10.958  -8.021  0.00  0.00    -0.480 N 
ATOM     14  H   LIG    1       -1.294  11.411  -8.844  0.00  0.00    +0.440 HD
BRANCH   9  16
ATOM     15  C   LIG    1       -3.488  13.085  -8.516  0.00  0.00    +0.040 C 
ATOM     16  C   LIG    1       -3.938  11.778  -7.860  0.00  0.00    +0.090 C 
ATOM     17  C   LIG    1       -4.724  10.943  -8.873  0.00  0.00    +0.060 C 
ENDBRANCH   9  16
ENDBRANCH   1  11
BRANCH   6  18
ATOM     18  C   LIG    1       -0.162   4.542  -3.161  0.00  0.00    +0.000 C 
ATOM     19  C   LIG    1       -0.173   5.260  -1.791  0.00  0.00    +0.070 C 
ATOM     20  C   LIG    1       -0.397   4.149  -0.790  0.00  0.00    +0.520 C 
ATOM     21  N   LIG    1       -0.843   3.046  -1.415  0.00  0.00    -0.590 N 
ATOM     22  O   LIG    1       -0.200   4.239   0.404  0.00  0.00    -0.520 OA
ATOM     23  C   LIG    1       -0.989   3.273  -2.858  0.00  0.00    +0.310 C 
BRANCH  21  24
ATOM     24  C   LIG    1       -1.150   1.781  -0.743  0.00  0.00    +0.210 C 
ATOM     25  C   LIG    1       -0.013   1.086   0.008  0.00  0.00    +0.000 C 
ATOM     26  C   LIG    1       -1.136   1.773   0.788  0.00  0.00    +0.040 C 
ENDBRANCH  21  24
ENDBRANCH   6  18
TORSDOF 4
