REMARK  Name = ZINCpk00000y6vHn.0
REMARK                            x       y       z     vdW  Elec       q    Type
REMARK                         _______ _______ _______ _____ _____    ______ ____
ROOT
ATOM      1  C   LIG    1       -2.540   1.205   0.021  0.00  0.00    +0.610 C 
ATOM      2  N   LIG    1       -2.566  -0.138  -0.087  0.00  0.00    -0.600 N 
ATOM      3  C   LIG    1       -1.386  -1.021  -0.110  0.00  0.00    +0.220 C 
ATOM      4  C   LIG    1       -1.861  -2.300  -0.845  0.00  0.00    +0.180 C 
ATOM      5  C   LIG    1       -3.317  -2.434  -0.327  0.00  0.00    +0.080 C 
ATOM      6  C   LIG    1       -3.776  -0.966  -0.196  0.00  0.00    +0.280 C 
ATOM      7  O   LIG    1       -3.579   1.826   0.131  0.00  0.00    -0.500 OA
ENDROOT
BRANCH   1  13
ATOM      8  C   LIG    1        1.453   3.061  -2.377  0.00  0.00    +0.170 C 
ATOM      9  C   LIG    1        0.665   2.816  -1.116  0.00  0.00    +0.060 A 
ATOM     10  N   LIG    1        1.127   3.244   0.028  0.00  0.00    -0.210 NA
ATOM     11  N   LIG    1        0.509   3.070   1.139  0.00  0.00    -0.340 N 
ATOM     12  C   LIG    1       -0.673   2.427   1.204  0.00  0.00    +0.500 A 
ATOM     13  C   LIG    1       -1.252   1.921   0.006  0.00  0.00    -0.210 A 
ATOM     14  O   LIG    1       -1.237   2.277   2.274  0.00  0.00    -0.510 OA
ATOM     15  C   LIG    1        1.106   3.586   2.373  0.00  0.00    +0.360 C 
ATOM     16  C   LIG    1       -0.555   2.132  -1.182  0.00  0.00    +0.010 A 
ATOM     17  C   LIG    1       -1.096   1.636  -2.498  0.00  0.00    +0.140 C 
ENDBRANCH   1  13
BRANCH   6  18
ATOM     18  C   LIG    1       -4.624  -0.799   1.038  0.00  0.00    -0.100 A 
ATOM     19  C   LIG    1       -4.024  -0.699   2.280  0.00  0.00    +0.050 A 
ATOM     20  C   LIG    1       -4.800  -0.541   3.412  0.00  0.00    -0.020 A 
ATOM     21  C   LIG    1       -6.179  -0.493   3.304  0.00  0.00    +0.100 A 
ATOM     22  C   LIG    1       -6.779  -0.600   2.061  0.00  0.00    -0.010 A 
ATOM     23  F   LIG    1       -6.939  -0.344   4.412  0.00  0.00    -0.140 F 
ATOM     24  C   LIG    1       -6.001  -0.753   0.930  0.00  0.00    +0.060 A 
ENDBRANCH   6  18
BRANCH   4  25
ATOM     25  O   LIG    1       -1.836  -2.115  -2.262  0.00  0.00    -0.550 OA
ATOM     26  H   LIG    1       -0.957  -1.929  -2.619  0.00  0.00    +0.380 HD
ENDBRANCH   4  25
TORSDOF 3
