REMARK  Name = ZINCvU00000004t0.0
REMARK                            x       y       z     vdW  Elec       q    Type
REMARK                         _______ _______ _______ _____ _____    ______ ____
ROOT
ATOM      1  C   LIG    1       -1.956   1.806   0.611  0.00  0.00    +0.130 A 
ATOM      2  C   LIG    1       -2.160   3.178   0.548  0.00  0.00    +0.060 A 
ATOM      3  C   LIG    1       -3.443   3.681   0.460  0.00  0.00    +0.020 A 
ATOM      4  C   LIG    1       -4.525   2.820   0.445  0.00  0.00    +0.110 A 
ATOM      5  C   LIG    1       -4.326   1.453   0.513  0.00  0.00    -0.660 A 
ATOM      6  C   LIG    1       -3.046   0.943   0.596  0.00  0.00    +0.140 A 
ENDROOT
BRANCH   1   8
ATOM      7  C   LIG    1       -0.351   0.131   0.085  0.00  0.00    +0.600 C 
ATOM      8  N   LIG    1       -0.658   1.293   0.695  0.00  0.00    -0.670 N 
ATOM      9  H   LIG    1        0.021   1.771   1.196  0.00  0.00    +0.410 HD
ATOM     10  O   LIG    1       -1.222  -0.512  -0.472  0.00  0.00    -0.490 OA
BRANCH   7  13
ATOM     11  C   LIG    1        0.554  -2.459  -1.214  0.00  0.00    +0.170 C 
ATOM     12  C   LIG    1        1.474  -1.517  -0.482  0.00  0.00    +0.180 A 
ATOM     13  C   LIG    1        1.028  -0.357   0.091  0.00  0.00    -0.310 A 
ATOM     14  S   LIG    1        2.406   0.442   0.846  0.00  0.00    +0.150 S 
ATOM     15  C   LIG    1        3.457  -0.865   0.307  0.00  0.00    +0.180 A 
ATOM     16  N   LIG    1        2.751  -1.747  -0.354  0.00  0.00    -0.470 NA
BRANCH  15  17
ATOM     17  C   LIG    1        4.901  -0.952   0.560  0.00  0.00    -0.160 A 
ATOM     18  C   LIG    1        5.638  -0.031   1.244  0.00  0.00    +0.060 A 
ATOM     19  C   LIG    1        6.975  -0.339   1.352  0.00  0.00    +0.010 A 
ATOM     20  C   LIG    1        7.346  -1.483   0.764  0.00  0.00    -0.030 A 
ATOM     21  S   LIG    1        5.952  -2.256   0.022  0.00  0.00    +0.210 S 
ENDBRANCH  15  17
ENDBRANCH   7  13
ENDBRANCH   1   8
BRANCH   5  22
ATOM     22  S   LIG    1       -5.708   0.360   0.494  0.00  0.00    +2.690 S 
ATOM     23  O   LIG    1       -5.225  -0.891   0.025  0.00  0.00    -0.940 OA
ATOM     24  O   LIG    1       -6.770   1.067  -0.133  0.00  0.00    -0.940 OA
BRANCH  22  25
ATOM     25  N   LIG    1       -6.168   0.124   2.067  0.00  0.00    -1.050 N 
ATOM     26  H   LIG    1       -6.162  -0.769   2.446  0.00  0.00    +0.430 HD
BRANCH  25  27
ATOM     27  C   LIG    1       -6.566   1.212   2.850  0.00  0.00    +0.120 A 
ATOM     28  C   LIG    1       -7.271   2.261   2.277  0.00  0.00    +0.020 A 
ATOM     29  C   LIG    1       -7.663   3.335   3.053  0.00  0.00    +0.040 A 
ATOM     30  C   LIG    1       -7.354   3.367   4.400  0.00  0.00    +0.040 A 
ATOM     31  C   LIG    1       -6.651   2.324   4.976  0.00  0.00    +0.010 A 
ATOM     32  C   LIG    1       -6.260   1.244   4.207  0.00  0.00    +0.080 A 
ATOM     33  F   LIG    1       -5.578   0.223   4.771  0.00  0.00    -0.130 F 
ENDBRANCH  25  27
ENDBRANCH  22  25
ENDBRANCH   5  22
TORSDOF 6
