REMARK  Name = ZINCvU0000000Ee3.0
REMARK                            x       y       z     vdW  Elec       q    Type
REMARK                         _______ _______ _______ _____ _____    ______ ____
ROOT
ATOM      1  C   LIG    1        5.114   3.841  -0.025  0.00  0.00    -0.010 C 
ATOM      2  C   LIG    1        5.212   5.383   0.109  0.00  0.00    +0.050 C 
ATOM      3  C   LIG    1        6.567   5.671  -0.585  0.00  0.00    +0.210 C 
ATOM      4  N   LIG    1        6.624   4.720  -1.710  0.00  0.00    -0.620 N 
ATOM      5  C   LIG    1        7.351   4.876  -2.834  0.00  0.00    +0.530 C 
ATOM      6  O   LIG    1        8.033   5.868  -2.983  0.00  0.00    -0.530 OA
ATOM      7  C   LIG    1        6.606   7.110  -1.102  0.00  0.00    +0.040 C 
ATOM      8  C   LIG    1        5.759   3.572  -1.401  0.00  0.00    +0.240 C 
ENDROOT
BRANCH   1   9
ATOM      9  C   LIG    1        3.653   3.388  -0.014  0.00  0.00    +0.280 C 
BRANCH   9  10
ATOM     10  N   LIG    1        3.595   1.924  -0.021  0.00  0.00    -0.710 N 
ATOM     11  H   LIG    1        4.416   1.406  -0.032  0.00  0.00    +0.410 HD
BRANCH  10  16
ATOM     12  C   LIG    1        1.141  -0.667  -0.012  0.00  0.00    +0.390 A 
ATOM     13  N   LIG    1        0.002  -0.004   0.002  0.00  0.00    -0.550 NA
ATOM     14  C   LIG    1       -0.016   1.323   0.009  0.00  0.00    +0.260 A 
ATOM     15  C   LIG    1        1.182   2.013   0.002  0.00  0.00    -0.130 A 
ATOM     16  C   LIG    1        2.369   1.279  -0.014  0.00  0.00    +0.450 A 
ATOM     17 CL   LIG    1       -1.525   2.181   0.021  0.00  0.00    -0.010 Cl
ATOM     18  N   LIG    1        2.305  -0.050  -0.020  0.00  0.00    -0.570 NA
BRANCH  12  20
ATOM     19  C   LIG    1        0.392  -2.676   1.234  0.00  0.00    +0.050 C 
ATOM     20  C   LIG    1        1.111  -2.174  -0.020  0.00  0.00    +0.070 C 
ATOM     21  C   LIG    1        0.367  -2.663  -1.264  0.00  0.00    +0.050 C 
ENDBRANCH  12  20
ENDBRANCH  10  16
ENDBRANCH   9  10
ENDBRANCH   1   9
BRANCH   5  22
ATOM     22  C   LIG    1        7.314   3.819  -3.908  0.00  0.00    +0.040 C 
BRANCH  22  23
ATOM     23  C   LIG    1        8.220   4.239  -5.068  0.00  0.00    +0.020 C 
ATOM     24  C   LIG    1        7.656   5.500  -5.724  0.00  0.00    +0.010 C 
ATOM     25  C   LIG    1        8.561   5.920  -6.884  0.00  0.00    +0.000 C 
ATOM     26  C   LIG    1        8.623   4.793  -7.916  0.00  0.00    +0.000 C 
ATOM     27  C   LIG    1        9.186   3.531  -7.260  0.00  0.00    -0.010 C 
ATOM     28  C   LIG    1        9.248   2.404  -8.293  0.00  0.00    +0.000 C 
ATOM     29  C   LIG    1        9.812   1.142  -7.637  0.00  0.00    +0.000 C 
ATOM     30  C   LIG    1        8.907   0.722  -6.477  0.00  0.00    +0.000 C 
ATOM     31  C   LIG    1        8.845   1.849  -5.444  0.00  0.00    +0.000 C 
ATOM     32  C   LIG    1        8.281   3.111  -6.100  0.00  0.00    +0.000 C 
ENDBRANCH  22  23
ENDBRANCH   5  22
TORSDOF 6
