REMARK  Name = ZINCvU00000009da.0
REMARK                            x       y       z     vdW  Elec       q    Type
REMARK                         _______ _______ _______ _____ _____    ______ ____
ROOT
ATOM      1  C   LIG    1       -2.796   2.871  -2.911  0.00  0.00    +0.140 A 
ATOM      2  N   LIG    1       -3.604   2.829  -3.945  0.00  0.00    -0.290 NA
ATOM      3  N   LIG    1       -3.779   1.611  -4.314  0.00  0.00    -0.270 NA
ATOM      4  C   LIG    1       -3.095   0.809  -3.548  0.00  0.00    +0.190 A 
ATOM      5  N   LIG    1       -2.442   1.583  -2.629  0.00  0.00    -0.450 N 
ENDROOT
BRANCH   5   6
ATOM      6  C   LIG    1       -1.552   1.124  -1.559  0.00  0.00    +0.230 C 
ATOM      7  C   LIG    1       -0.165   1.741  -1.750  0.00  0.00    +0.010 C 
ATOM      8  C   LIG    1        0.765   1.262  -0.633  0.00  0.00    +0.040 C 
ATOM      9  C   LIG    1        0.198   1.691   0.721  0.00  0.00    +0.010 C 
ATOM     10  C   LIG    1       -1.189   1.074   0.912  0.00  0.00    +0.040 C 
ATOM     11  C   LIG    1       -2.119   1.553  -0.205  0.00  0.00    +0.020 C 
ENDBRANCH   5   6
BRANCH   1  12
ATOM     12  S   LIG    1       -2.267   4.315  -2.051  0.00  0.00    +0.090 S 
BRANCH  12  13
ATOM     13  C   LIG    1       -3.144   5.583  -2.999  0.00  0.00    +0.100 C 
BRANCH  13  16
ATOM     14  N   LIG    1       -3.379   8.046  -2.976  0.00  0.00    -0.670 N 
ATOM     15  H   LIG    1       -3.910   7.973  -3.784  0.00  0.00    +0.420 HD
ATOM     16  C   LIG    1       -2.833   6.943  -2.427  0.00  0.00    +0.540 C 
ATOM     17  O   LIG    1       -2.091   7.044  -1.473  0.00  0.00    -0.490 OA
BRANCH  14  21
ATOM     18  C   LIG    1       -2.786  11.770  -1.202  0.00  0.00    -0.030 A 
ATOM     19  C   LIG    1       -2.893  11.665  -2.591  0.00  0.00    +0.120 A 
ATOM     20  C   LIG    1       -3.088  10.432  -3.174  0.00  0.00    +0.010 A 
ATOM     21  C   LIG    1       -3.180   9.293  -2.381  0.00  0.00    +0.190 A 
ATOM     22  C   LIG    1       -3.079   9.393  -0.998  0.00  0.00    +0.040 A 
ATOM     23  C   LIG    1       -2.878  10.622  -0.408  0.00  0.00    +0.030 A 
ATOM     24 CL   LIG    1       -2.747  10.746   1.319  0.00  0.00    -0.040 Cl
BRANCH  18  26
ATOM     25  N   LIG    1       -2.422  14.066  -0.110  0.00  0.00    -0.390 NA
ATOM     26  C   LIG    1       -2.583  13.050  -0.593  0.00  0.00    +0.250 C 
ENDBRANCH  18  26
ENDBRANCH  14  21
ENDBRANCH  13  16
ENDBRANCH  12  13
ENDBRANCH   1  12
BRANCH   4  27
ATOM     27  C   LIG    1       -3.035  -0.693  -3.655  0.00  0.00    +0.250 C 
BRANCH  27  28
ATOM     28  C   LIG    1       -4.126  -1.301  -2.812  0.00  0.00    -0.190 A 
ATOM     29  C   LIG    1       -5.362  -1.572  -3.233  0.00  0.00    +0.040 A 
ATOM     30  C   LIG    1       -6.193  -2.133  -2.279  0.00  0.00    +0.010 A 
ATOM     31  C   LIG    1       -5.635  -2.309  -1.080  0.00  0.00    -0.030 A 
ATOM     32  S   LIG    1       -3.966  -1.754  -1.120  0.00  0.00    +0.090 S 
ENDBRANCH  27  28
ENDBRANCH   4  27
TORSDOF 8
