REMARK  Name = ZINCpk00000e9Ypv.0
REMARK                            x       y       z     vdW  Elec       q    Type
REMARK                         _______ _______ _______ _____ _____    ______ ____
ROOT
ATOM      1  C   LIG    1        1.176   3.642  -0.005  0.00  0.00    +0.310 C 
ATOM      2  C   LIG    1        1.346   2.152   0.153  0.00  0.00    -0.080 A 
ATOM      3  C   LIG    1        0.198   1.380   0.271  0.00  0.00    -0.030 A 
ATOM      4  C   LIG    1        0.285   0.005   0.394  0.00  0.00    +0.100 A 
ATOM      5  C   LIG    1        1.535  -0.606   0.400  0.00  0.00    +0.110 A 
ATOM      6  C   LIG    1        2.675   0.168   0.289  0.00  0.00    -0.030 A 
ATOM      7  C   LIG    1        2.585   1.549   0.169  0.00  0.00    -0.050 A 
ATOM      8  C   LIG    1        3.872   2.325   0.069  0.00  0.00    +0.090 C 
ATOM      9  C   LIG    1        3.629   3.707  -0.538  0.00  0.00    +0.290 C 
ATOM     10  N   LIG    1        2.474   4.307   0.151  0.00  0.00    -0.590 N 
ATOM     11  C   LIG    1        2.605   5.423   0.895  0.00  0.00    +0.550 C 
ATOM     12  O   LIG    1        1.623   5.955   1.367  0.00  0.00    -0.530 OA
ENDROOT
BRANCH  11  13
ATOM     13  C   LIG    1        3.972   6.010   1.139  0.00  0.00    +0.120 C 
ATOM     14  O   LIG    1        4.131   7.419   0.968  0.00  0.00    -0.320 OA
ATOM     15  C   LIG    1        4.714   6.610  -0.056  0.00  0.00    +0.130 C 
ATOM     16  C   LIG    1        6.239   6.485  -0.084  0.00  0.00    +0.080 C 
ENDBRANCH  11  13
BRANCH   5  17
ATOM     17  O   LIG    1        1.634  -1.957   0.514  0.00  0.00    -0.310 OA
ATOM     18  C   LIG    1        2.951  -2.513   0.512  0.00  0.00    +0.240 C 
ENDBRANCH   5  17
BRANCH   4  19
ATOM     19  O   LIG    1       -0.844  -0.744   0.509  0.00  0.00    -0.310 OA
ATOM     20  C   LIG    1       -2.091  -0.046   0.495  0.00  0.00    +0.230 C 
ENDBRANCH   4  19
BRANCH   1  21
ATOM     21  C   LIG    1        0.208   4.160   1.060  0.00  0.00    +0.120 C 
BRANCH  21  22
ATOM     22  C   LIG    1        0.784   3.905   2.429  0.00  0.00    +0.480 C 
ATOM     23  O   LIG    1        1.891   3.436   2.541  0.00  0.00    -0.510 OA
BRANCH  22  25
ATOM     24  C   LIG    1        0.684   3.929   4.810  0.00  0.00    +0.260 C 
ATOM     25  O   LIG    1        0.066   4.201   3.525  0.00  0.00    -0.360 OA
ENDBRANCH  22  25
ENDBRANCH  21  22
ENDBRANCH   1  21
TORSDOF 6
