REMARK  Name = ZINCrg000000sEfl.0
REMARK                            x       y       z     vdW  Elec       q    Type
REMARK                         _______ _______ _______ _____ _____    ______ ____
ROOT
ATOM      1  N   LIG    1        5.823   0.776  -5.308  0.00  0.00    -0.460 N 
ATOM      2  C   LIG    1        6.618   0.379  -4.138  0.00  0.00    +0.180 C 
ATOM      3  C   LIG    1        5.782  -0.544  -3.246  0.00  0.00    +0.280 C 
ATOM      4  N   LIG    1        4.513   0.132  -2.935  0.00  0.00    -0.630 N 
ATOM      5  C   LIG    1        3.722   0.674  -4.050  0.00  0.00    +0.310 C 
ATOM      6  C   LIG    1        4.083   0.245  -1.662  0.00  0.00    +0.710 C 
ATOM      7  N   LIG    1        4.865  -0.172  -0.647  0.00  0.00    -0.750 N 
ATOM      8  H   LIG    1        5.704  -0.622  -0.835  0.00  0.00    +0.400 HD
ATOM      9  O   LIG    1        2.991   0.725  -1.430  0.00  0.00    -0.580 OA
ATOM     10  C   LIG    1        4.642   1.554  -4.910  0.00  0.00    +0.170 C 
ENDROOT
BRANCH   1  14
ATOM     11  C   LIG    1        7.237   3.296  -9.301  0.00  0.00    +0.360 C 
ATOM     12  N   LIG    1        7.245   2.610  -8.006  0.00  0.00    -0.370 N 
ATOM     13  C   LIG    1        6.183   1.998  -7.418  0.00  0.00    +0.220 A 
ATOM     14  C   LIG    1        6.609   1.489  -6.234  0.00  0.00    -0.050 A 
ATOM     15  C   LIG    1        7.968   1.804  -6.093  0.00  0.00    +0.200 A 
ATOM     16  N   LIG    1        8.348   2.469  -7.154  0.00  0.00    -0.280 NA
ENDBRANCH   1  14
BRANCH   7  17
ATOM     17  C   LIG    1        4.449   0.052   0.739  0.00  0.00    +0.350 C 
BRANCH  17  18
ATOM     18  C   LIG    1        5.491  -0.505   1.674  0.00  0.00    -0.170 A 
ATOM     19  C   LIG    1        6.541   0.291   2.108  0.00  0.00    +0.130 A 
ATOM     20  C   LIG    1        7.480  -0.262   2.962  0.00  0.00    -0.030 A 
ATOM     21  C   LIG    1        7.333  -1.584   3.362  0.00  0.00    +0.360 A 
ATOM     22  N   LIG    1        6.317  -2.312   2.927  0.00  0.00    -0.500 NA
ATOM     23  C   LIG    1        5.411  -1.814   2.108  0.00  0.00    +0.330 A 
BRANCH  21  24
ATOM     24  N   LIG    1        8.271  -2.153   4.230  0.00  0.00    -0.420 N 
ATOM     25  C   LIG    1        8.316  -3.463   4.637  0.00  0.00    +0.150 A 
ATOM     26  C   LIG    1        9.373  -3.578   5.462  0.00  0.00    +0.150 A 
ATOM     27  N   LIG    1        9.957  -2.374   5.566  0.00  0.00    -0.470 NA
ATOM     28  C   LIG    1        9.306  -1.513   4.834  0.00  0.00    +0.400 A 
ENDBRANCH  21  24
ENDBRANCH  17  18
ENDBRANCH   7  17
TORSDOF 4
