REMARK  Name = ZINCqH00000394Wr.0
REMARK                            x       y       z     vdW  Elec       q    Type
REMARK                         _______ _______ _______ _____ _____    ______ ____
ROOT
ATOM      1  C   LIG    1       -1.538   7.530   0.188  0.00  0.00    +0.000 C 
ATOM      2  C   LIG    1       -0.886   8.159   1.422  0.00  0.00    +0.030 C 
ATOM      3  C   LIG    1       -0.701   9.661   1.186  0.00  0.00    +0.280 C 
ATOM      4  N   LIG    1       -2.000  10.246   0.825  0.00  0.00    -0.610 N 
ATOM      5  C   LIG    1       -2.754   9.658  -0.290  0.00  0.00    +0.280 C 
ATOM      6  C   LIG    1       -2.489  11.303   1.504  0.00  0.00    +0.560 C 
ATOM      7  O   LIG    1       -3.607  11.715   1.263  0.00  0.00    -0.530 OA
ATOM      8  C   LIG    1       -2.916   8.156  -0.038  0.00  0.00    +0.050 C 
ENDROOT
BRANCH   6   9
ATOM      9  C   LIG    1       -1.668  11.959   2.543  0.00  0.00    -0.130 A 
ATOM     10  C   LIG    1       -2.276  12.523   3.665  0.00  0.00    +0.090 A 
ATOM     11  C   LIG    1       -1.504  13.130   4.633  0.00  0.00    +0.030 A 
ATOM     12  C   LIG    1       -0.128  13.189   4.488  0.00  0.00    -0.010 A 
ATOM     13  C   LIG    1        0.481  12.636   3.374  0.00  0.00    +0.020 A 
ATOM     14 CL   LIG    1        0.837  13.960   5.708  0.00  0.00    -0.060 Cl
ATOM     15  C   LIG    1       -0.280  12.022   2.402  0.00  0.00    +0.070 A 
ENDBRANCH   6   9
BRANCH   1  18
ATOM     16  N   LIG    1       -0.602   5.282   0.623  0.00  0.00    -0.670 N 
ATOM     17  H   LIG    1        0.271   5.695   0.711  0.00  0.00    +0.410 HD
ATOM     18  C   LIG    1       -1.690   6.046   0.403  0.00  0.00    +0.520 C 
ATOM     19  O   LIG    1       -2.792   5.539   0.378  0.00  0.00    -0.510 OA
BRANCH  16  23
ATOM     20  C   LIG    1       -0.988   1.143   0.919  0.00  0.00    -0.040 A 
ATOM     21  C   LIG    1       -1.995   1.978   1.412  0.00  0.00    +0.090 A 
ATOM     22  C   LIG    1       -1.862   3.345   1.316  0.00  0.00    +0.030 A 
ATOM     23  C   LIG    1       -0.731   3.896   0.722  0.00  0.00    +0.170 A 
ATOM     24  C   LIG    1        0.271   3.068   0.226  0.00  0.00    -0.010 A 
ATOM     25  C   LIG    1        0.147   1.700   0.322  0.00  0.00    +0.090 A 
BRANCH  20  27
ATOM     26  N   LIG    1       -1.226  -1.407   1.100  0.00  0.00    -0.410 NA
ATOM     27  C   LIG    1       -1.121  -0.279   1.020  0.00  0.00    +0.250 C 
ENDBRANCH  20  27
ENDBRANCH  16  23
ENDBRANCH   1  18
TORSDOF 4
