REMARK  Name = ZINCnE000004qt6c.1
REMARK                            x       y       z     vdW  Elec       q    Type
REMARK                         _______ _______ _______ _____ _____    ______ ____
ROOT
ATOM      1  C   LIG    1        2.495   3.889   0.010  0.00  0.00    +0.470 C 
ATOM      2  N   LIG    1        1.263   3.344   0.024  0.00  0.00    -0.650 NA
ATOM      3  O   LIG    1        3.475   3.174  -0.003  0.00  0.00    -0.590 OA
ENDROOT
BRANCH   2   4
ATOM      4  C   LIG    1        1.115   1.966   0.024  0.00  0.00    +0.420 A 
ATOM      5  N   LIG    1       -0.015   1.349   0.036  0.00  0.00    -0.550 NA
ATOM      6  C   LIG    1        0.003   0.001   0.033  0.00  0.00    +0.170 A 
ATOM      7  C   LIG    1       -1.086  -0.897   0.044  0.00  0.00    -0.080 A 
ATOM      8  C   LIG    1       -0.869  -2.253   0.038  0.00  0.00    +0.060 A 
ATOM      9  C   LIG    1        0.421  -2.761   0.021  0.00  0.00    -0.030 A 
ATOM     10  C   LIG    1        1.499  -1.903   0.011  0.00  0.00    +0.080 A 
ATOM     11 BR   LIG    1       -2.855  -0.229   0.066  0.00  0.00    -0.060 Br
ATOM     12  C   LIG    1        1.298  -0.525   0.016  0.00  0.00    -0.240 A 
ATOM     13  S   LIG    1        2.442   0.814   0.005  0.00  0.00    -0.020 S 
ENDBRANCH   2   4
BRANCH   1  19
ATOM     14  C   LIG    1        1.248   8.306  -1.390  0.00  0.00    +0.550 C 
ATOM     15  N   LIG    1        2.255   7.417  -1.284  0.00  0.00    -0.610 N 
ATOM     16  C   LIG    1        3.651   7.871  -1.219  0.00  0.00    +0.270 C 
ATOM     17  C   LIG    1        4.311   7.263   0.023  0.00  0.00    +0.010 C 
ATOM     18  C   LIG    1        4.145   5.741  -0.011  0.00  0.00    +0.040 C 
ATOM     19  C   LIG    1        2.656   5.388   0.010  0.00  0.00    +0.000 C 
ATOM     20  C   LIG    1        1.978   5.975  -1.231  0.00  0.00    +0.290 C 
ATOM     21  O   LIG    1        1.482   9.499  -1.337  0.00  0.00    -0.560 OA
BRANCH  14  23
ATOM     22  C   LIG    1       -1.114   8.710  -1.774  0.00  0.00    +0.120 C 
ATOM     23  C   LIG    1       -0.133   7.835  -1.570  0.00  0.00    -0.070 C 
ENDBRANCH  14  23
ENDBRANCH   1  19
TORSDOF 3
