REMARK  Name = ZINCrg00000z8bQ0.0
REMARK                            x       y       z     vdW  Elec       q    Type
REMARK                         _______ _______ _______ _____ _____    ______ ____
ROOT
ATOM      1  C   LIG    1        4.516   4.195  -3.067  0.00  0.00    -0.090 C 
ATOM      2  C   LIG    1        4.322   5.526  -2.337  0.00  0.00    +0.030 C 
ATOM      3  C   LIG    1        5.645   6.295  -2.316  0.00  0.00    +0.010 C 
ATOM      4  C   LIG    1        6.081   6.592  -3.754  0.00  0.00    +0.270 C 
ATOM      5  N   LIG    1        6.129   5.329  -4.504  0.00  0.00    -0.610 N 
ATOM      6  C   LIG    1        7.244   4.968  -5.169  0.00  0.00    +0.530 C 
ATOM      7  O   LIG    1        7.271   3.923  -5.785  0.00  0.00    -0.540 OA
ATOM      8  C   LIG    1        5.601   3.378  -2.362  0.00  0.00    +0.040 C 
ATOM      9  C   LIG    1        4.939   4.468  -4.514  0.00  0.00    +0.290 C 
ENDROOT
BRANCH   6  10
ATOM     10  C   LIG    1        8.457   5.862  -5.149  0.00  0.00    -0.020 C 
ATOM     11  C   LIG    1        8.393   7.010  -6.173  0.00  0.00    +0.090 C 
ATOM     12  C   LIG    1        9.878   6.744  -6.439  0.00  0.00    -0.170 C 
ATOM     13  C   LIG    1       10.738   7.228  -7.601  0.00  0.00    +0.040 C 
ATOM     14  C   LIG    1       11.071   7.655  -6.169  0.00  0.00    +0.050 C 
ATOM     15  C   LIG    1        9.644   5.308  -5.957  0.00  0.00    +0.090 C 
ENDBRANCH   6  10
BRANCH   1  16
ATOM     16  C   LIG    1        3.201   3.412  -3.059  0.00  0.00    +0.270 C 
BRANCH  16  18
ATOM     17  C   LIG    1        1.659   2.475  -1.421  0.00  0.00    +0.500 C 
ATOM     18  N   LIG    1        2.795   3.155  -1.675  0.00  0.00    -0.730 N 
ATOM     19  H   LIG    1        3.344   3.473  -0.941  0.00  0.00    +0.400 HD
ATOM     20  O   LIG    1        0.973   2.077  -2.339  0.00  0.00    -0.530 OA
BRANCH  17  21
ATOM     21  C   LIG    1        1.241   2.211   0.002  0.00  0.00    +0.330 C 
BRANCH  21  23
ATOM     22  C   LIG    1       -1.194   2.119   0.019  0.00  0.00    +0.520 C 
ATOM     23  N   LIG    1       -0.018   1.461   0.010  0.00  0.00    -0.600 N 
ATOM     24  C   LIG    1        0.002  -0.004   0.002  0.00  0.00    +0.290 C 
ATOM     25  O   LIG    1       -1.210   3.331   0.026  0.00  0.00    -0.510 OA
BRANCH  22  26
ATOM     26  C   LIG    1       -2.489   1.348   0.021  0.00  0.00    +0.210 C 
BRANCH  26  28
ATOM     27  C   LIG    1       -4.869   1.629   0.034  0.00  0.00    +0.210 C 
ATOM     28  O   LIG    1       -3.587   2.261   0.031  0.00  0.00    -0.370 OA
ENDBRANCH  26  28
ENDBRANCH  22  26
ENDBRANCH  21  23
ENDBRANCH  17  21
ENDBRANCH  16  18
ENDBRANCH   1  16
TORSDOF 7
