REMARK  Name = ZINCpe000015AAoB.1
REMARK                            x       y       z     vdW  Elec       q    Type
REMARK                         _______ _______ _______ _____ _____    ______ ____
ROOT
ATOM      1  C   LIG    1       -0.810   2.805   1.736  0.00  0.00    +0.310 C 
ATOM      2  C   LIG    1       -2.008   2.982   2.697  0.00  0.00    +0.150 C 
ATOM      3  C   LIG    1       -2.187   1.546   3.244  0.00  0.00    +0.070 C 
ATOM      4  C   LIG    1       -1.601   0.663   2.164  0.00  0.00    +0.520 C 
ATOM      5  O   LIG    1       -1.788  -0.531   2.066  0.00  0.00    -0.530 OA
ATOM      6  N   LIG    1       -0.842   1.395   1.329  0.00  0.00    -0.610 N 
ATOM      7  C   LIG    1       -0.134   0.853   0.167  0.00  0.00    +0.290 C 
ENDROOT
BRANCH   1  10
ATOM      8  C   LIG    1        0.346   5.694   1.418  0.00  0.00    +0.160 C 
ATOM      9  C   LIG    1       -0.472   4.948   0.396  0.00  0.00    +0.100 A 
ATOM     10  C   LIG    1       -0.972   3.698   0.533  0.00  0.00    -0.260 A 
ATOM     11  C   LIG    1       -1.662   3.379  -0.642  0.00  0.00    +0.250 A 
ATOM     12  N   LIG    1       -1.586   4.405  -1.451  0.00  0.00    -0.290 NA
ATOM     13  N   LIG    1       -0.837   5.406  -0.820  0.00  0.00    -0.370 N 
ATOM     14  C   LIG    1       -0.507   6.719  -1.380  0.00  0.00    +0.360 C 
ENDBRANCH   1  10
BRANCH   2  15
ATOM     15  N   LIG    1       -1.676   3.918   3.779  0.00  0.00    -0.670 NA
ATOM     16  H   LIG    1       -1.172   4.717   3.424  0.00  0.00    +0.340 HD
BRANCH  15  17
ATOM     17  C   LIG    1       -2.883   4.337   4.503  0.00  0.00    +0.240 C 
BRANCH  17  18
ATOM     18  C   LIG    1       -2.503   5.295   5.603  0.00  0.00    -0.090 A 
ATOM     19  C   LIG    1       -2.201   4.813   6.864  0.00  0.00    +0.060 A 
ATOM     20  C   LIG    1       -1.846   5.686   7.877  0.00  0.00    +0.000 A 
ATOM     21  C   LIG    1       -1.802   7.044   7.639  0.00  0.00    +0.050 A 
ATOM     22  C   LIG    1       -2.111   7.537   6.370  0.00  0.00    -0.140 A 
ATOM     23  C   LIG    1       -2.463   6.651   5.351  0.00  0.00    +0.080 A 
BRANCH  22  24
ATOM     24  C   LIG    1       -2.067   8.991   6.107  0.00  0.00    +0.560 C 
ATOM     25  O   LIG    1       -2.337   9.418   5.002  0.00  0.00    -0.540 OA
ATOM     26  N   LIG    1       -1.727   9.844   7.094  0.00  0.00    -0.850 N 
ATOM     27  H   LIG    1       -1.697  10.798   6.922  0.00  0.00    +0.410 HD
ATOM     28  H   LIG    1       -1.511   9.504   7.977  0.00  0.00    +0.400 HD
ENDBRANCH  22  24
ENDBRANCH  17  18
ENDBRANCH  15  17
ENDBRANCH   2  15
TORSDOF 5
