REMARK  Name = ZINCvU0000000CJ6.0
REMARK                            x       y       z     vdW  Elec       q    Type
REMARK                         _______ _______ _______ _____ _____    ______ ____
ROOT
ATOM      1  O   LIG    1       -0.773  -0.649   0.736  0.00  0.00    -0.510 OA
ATOM      2  C   LIG    1       -0.140  -0.018  -0.084  0.00  0.00    +0.480 C 
ATOM      3  N   LIG    1        0.585  -0.664  -1.018  0.00  0.00    -0.670 N 
ATOM      4  H   LIG    1        1.029  -0.163  -1.720  0.00  0.00    +0.410 HD
ENDROOT
BRANCH   3   5
ATOM      5  C   LIG    1        0.697  -2.061  -0.976  0.00  0.00    +0.120 A 
ATOM      6  C   LIG    1        0.716  -2.719   0.247  0.00  0.00    +0.040 A 
ATOM      7  C   LIG    1        0.821  -4.095   0.288  0.00  0.00    -0.020 A 
ATOM      8  C   LIG    1        0.918  -4.820  -0.892  0.00  0.00    +0.100 A 
ATOM      9  C   LIG    1        0.906  -4.161  -2.115  0.00  0.00    +0.010 A 
ATOM     10  C   LIG    1        0.796  -2.785  -2.156  0.00  0.00    +0.010 A 
BRANCH   8  11
ATOM     11  N   LIG    1        1.030  -6.214  -0.850  0.00  0.00    -0.490 N 
ATOM     12  C   LIG    1       -0.031  -6.851  -1.641  0.00  0.00    +0.180 C 
ATOM     13  C   LIG    1        0.206  -8.362  -1.692  0.00  0.00    +0.020 C 
ATOM     14  C   LIG    1        0.210  -8.921  -0.267  0.00  0.00    +0.010 C 
ATOM     15  C   LIG    1        1.291  -8.207   0.550  0.00  0.00    +0.020 C 
ATOM     16  C   LIG    1        1.023  -6.701   0.536  0.00  0.00    +0.180 C 
ENDBRANCH   8  11
ENDBRANCH   3   5
BRANCH   2  17
ATOM     17  C   LIG    1       -0.164   1.488  -0.058  0.00  0.00    +0.260 C 
BRANCH  17  18
ATOM     18  N   LIG    1       -1.020   1.946   1.045  0.00  0.00    -0.510 NA
ATOM     19  C   LIG    1       -0.441   1.583   2.345  0.00  0.00    +0.170 C 
ATOM     20  C   LIG    1       -1.279   2.199   3.468  0.00  0.00    +0.030 C 
ATOM     21  C   LIG    1       -2.717   1.682   3.367  0.00  0.00    +0.030 C 
ATOM     22  C   LIG    1       -3.280   2.030   1.986  0.00  0.00    +0.090 C 
ATOM     23  C   LIG    1       -2.384   1.420   0.906  0.00  0.00    +0.210 C 
BRANCH  22  24
ATOM     24  C   LIG    1       -4.675   1.474   1.856  0.00  0.00    +0.100 A 
ATOM     25  N   LIG    1       -4.964   0.231   1.942  0.00  0.00    -0.460 NA
ATOM     26  C   LIG    1       -6.256  -0.125   1.810  0.00  0.00    +0.080 A 
ATOM     27  C   LIG    1       -6.848  -1.403   1.863  0.00  0.00    +0.070 A 
ATOM     28  C   LIG    1       -8.193  -1.547   1.697  0.00  0.00    +0.030 A 
ATOM     29  C   LIG    1       -9.003  -0.444   1.472  0.00  0.00    +0.040 A 
ATOM     30  C   LIG    1       -8.452   0.817   1.415  0.00  0.00    +0.060 A 
ATOM     31  C   LIG    1       -7.080   0.984   1.583  0.00  0.00    -0.180 A 
ATOM     32  S   LIG    1       -6.064   2.422   1.569  0.00  0.00    +0.100 S 
ENDBRANCH  22  24
ENDBRANCH  17  18
ENDBRANCH   2  17
TORSDOF 5
