REMARK  Name = ZINCrD0000073XIa.0
REMARK                            x       y       z     vdW  Elec       q    Type
REMARK                         _______ _______ _______ _____ _____    ______ ____
ROOT
ATOM      1  C   LIG    1       -1.449   2.321  -5.411  0.00  0.00    +0.520 C 
ATOM      2  N   LIG    1       -2.704   1.869  -5.222  0.00  0.00    -0.610 N 
ATOM      3  C   LIG    1       -3.658   1.818  -6.339  0.00  0.00    +0.270 C 
ATOM      4  C   LIG    1       -4.931   2.568  -5.935  0.00  0.00    +0.020 C 
ATOM      5  C   LIG    1       -5.466   1.987  -4.624  0.00  0.00    +0.030 C 
ATOM      6  C   LIG    1       -4.426   2.171  -3.517  0.00  0.00    +0.040 C 
ATOM      7  C   LIG    1       -3.146   1.419  -3.895  0.00  0.00    +0.360 C 
ATOM      8  O   LIG    1       -0.651   2.297  -4.498  0.00  0.00    -0.490 OA
ENDROOT
BRANCH   7   9
ATOM      9  C   LIG    1       -2.071   1.710  -2.880  0.00  0.00    +0.170 A 
ATOM     10  N   LIG    1       -1.555   2.876  -2.615  0.00  0.00    -0.250 NA
ATOM     11  N   LIG    1       -0.669   2.752  -1.690  0.00  0.00    -0.270 NA
ATOM     12  C   LIG    1       -0.581   1.499  -1.341  0.00  0.00    +0.170 A 
ATOM     13  O   LIG    1       -1.468   0.812  -2.082  0.00  0.00    -0.220 OA
BRANCH  12  14
ATOM     14  C   LIG    1        0.340   0.928  -0.295  0.00  0.00    +0.350 C 
BRANCH  14  15
ATOM     15  N   LIG    1       -0.330   0.950   1.012  0.00  0.00    -0.550 NA
ATOM     16  C   LIG    1       -0.558   2.329   1.463  0.00  0.00    +0.200 C 
ATOM     17  C   LIG    1        0.435   0.190   2.009  0.00  0.00    +0.210 C 
ENDBRANCH  14  15
ENDBRANCH  12  14
ENDBRANCH   7   9
BRANCH   1  19
ATOM     18  C   LIG    1       -1.721   4.204  -7.003  0.00  0.00    +0.060 C 
ATOM     19  C   LIG    1       -1.036   2.857  -6.758  0.00  0.00    +0.170 C 
BRANCH  19  20
ATOM     20  O   LIG    1        0.382   3.032  -6.787  0.00  0.00    -0.280 OA
BRANCH  20  21
ATOM     21  C   LIG    1        0.983   2.999  -8.005  0.00  0.00    +0.140 A 
ATOM     22  C   LIG    1        0.214   2.913  -9.157  0.00  0.00    -0.080 A 
ATOM     23  C   LIG    1        0.827   2.885 -10.395  0.00  0.00    +0.080 A 
ATOM     24  C   LIG    1        2.205   2.931 -10.487  0.00  0.00    -0.010 A 
ATOM     25  C   LIG    1        2.975   3.011  -9.340  0.00  0.00    +0.010 A 
ATOM     26 CL   LIG    1        4.706   3.068  -9.459  0.00  0.00    -0.060 Cl
ATOM     27  C   LIG    1        2.366   3.045  -8.099  0.00  0.00    +0.000 A 
ENDBRANCH  20  21
ENDBRANCH  19  20
ENDBRANCH   1  19
TORSDOF 6
