REMARK  Name = ZINCrm000000M7Ub.1
REMARK                            x       y       z     vdW  Elec       q    Type
REMARK                         _______ _______ _______ _____ _____    ______ ____
ROOT
ATOM      1  C   LIG    1       -0.507   1.599  -1.244  0.00  0.00    -0.140 A 
ATOM      2  C   LIG    1       -1.182   0.805  -2.153  0.00  0.00    +0.050 A 
ATOM      3  C   LIG    1       -1.736   1.369  -3.286  0.00  0.00    +0.060 A 
ATOM      4  C   LIG    1       -1.607   2.726  -3.517  0.00  0.00    +0.070 A 
ATOM      5  C   LIG    1       -0.927   3.519  -2.611  0.00  0.00    +0.050 A 
ATOM      6  C   LIG    1       -0.377   2.955  -1.475  0.00  0.00    -0.100 A 
ENDROOT
BRANCH   1   7
ATOM      7  C   LIG    1        0.092   0.984  -0.006  0.00  0.00    +0.320 C 
BRANCH   7  11
ATOM      8  C   LIG    1        4.261  -0.519   2.081  0.00  0.00    +0.100 C 
ATOM      9  C   LIG    1        3.630   0.019   0.795  0.00  0.00    +0.140 C 
ATOM     10  C   LIG    1        2.139   0.275   1.027  0.00  0.00    +0.240 C 
ATOM     11  N   LIG    1        1.524   0.737  -0.225  0.00  0.00    -0.390 N 
ATOM     12  C   LIG    1        1.690  -0.292  -1.261  0.00  0.00    +0.240 C 
ATOM     13  C   LIG    1        3.182  -0.547  -1.488  0.00  0.00    +0.230 C 
ATOM     14  C   LIG    1        3.849   0.733  -1.996  0.00  0.00    +0.020 C 
ATOM     15  H   LIG    1        1.970   1.591  -0.524  0.00  0.00    +0.400 HD
ATOM     16  O   LIG    1        3.786  -0.942  -0.253  0.00  0.00    -0.340 OA
ENDBRANCH   7  11
ENDBRANCH   1   7
BRANCH   6  17
ATOM     17  C   LIG    1        0.364   3.820  -0.488  0.00  0.00    +0.340 C 
BRANCH  17  18
ATOM     18  N   LIG    1        1.803   3.730  -0.744  0.00  0.00    -0.730 N 
ATOM     19  H   LIG    1        2.138   3.123  -1.422  0.00  0.00    +0.400 HD
ATOM     20  C   LIG    1        2.662   4.491  -0.038  0.00  0.00    +0.490 C 
ATOM     21  O   LIG    1        2.244   5.250   0.810  0.00  0.00    -0.490 OA
BRANCH  20  22
ATOM     22  C   LIG    1        4.143   4.398  -0.301  0.00  0.00    +0.280 C 
BRANCH  22  23
ATOM     23  N   LIG    1        4.858   5.320   0.591  0.00  0.00    -0.490 N 
ATOM     24  H   LIG    1        4.671   5.072   1.551  0.00  0.00    +0.440 HD
ATOM     25  H   LIG    1        4.545   6.264   0.421  0.00  0.00    +0.440 HD
BRANCH  23  26
ATOM     26  C   LIG    1        6.302   5.230   0.334  0.00  0.00    +0.270 C 
BRANCH  26  27
ATOM     27  C   LIG    1        7.046   6.191   1.264  0.00  0.00    +0.160 C 
ATOM     28  C   LIG    1        8.552   6.188   0.923  0.00  0.00    +0.040 C 
ATOM     29  C   LIG    1        9.208   6.261   2.329  0.00  0.00    +0.030 C 
ATOM     30  C   LIG    1        8.199   5.437   3.167  0.00  0.00    +0.220 C 
ATOM     31  O   LIG    1        6.909   5.756   2.622  0.00  0.00    -0.390 OA
ENDBRANCH  26  27
ENDBRANCH  23  26
ENDBRANCH  22  23
ENDBRANCH  20  22
ENDBRANCH  17  18
ENDBRANCH   6  17
TORSDOF 8
