REMARK  Name = ZINCrD00000lcRw5.0
REMARK                            x       y       z     vdW  Elec       q    Type
REMARK                         _______ _______ _______ _____ _____    ______ ____
ROOT
ATOM      1  C   LIG    1        0.855   1.296   0.153  0.00  0.00    +0.150 C 
ATOM      2  C   LIG    1       -0.065   1.606   1.306  0.00  0.00    +0.130 A 
ATOM      3  C   LIG    1       -0.323   0.651   2.230  0.00  0.00    -0.080 A 
ATOM      4  C   LIG    1       -1.193   0.982   3.300  0.00  0.00    +0.380 A 
ATOM      5  C   LIG    1       -1.748   2.345   3.318  0.00  0.00    -0.040 A 
ATOM      6  N   LIG    1       -1.414   3.178   2.354  0.00  0.00    -0.170 NA
ATOM      7  O   LIG    1       -1.471   0.171   4.170  0.00  0.00    -0.440 OA
ATOM      8  N   LIG    1       -0.619   2.839   1.407  0.00  0.00    -0.270 N 
ENDROOT
BRANCH   8   9
ATOM      9  C   LIG    1       -0.313   3.788   0.426  0.00  0.00    +0.110 A 
ATOM     10  C   LIG    1        1.013   4.087   0.136  0.00  0.00    +0.050 A 
ATOM     11  C   LIG    1        1.312   5.020  -0.836  0.00  0.00    +0.060 A 
ATOM     12  C   LIG    1        0.293   5.666  -1.515  0.00  0.00    -0.020 A 
ATOM     13  C   LIG    1       -1.028   5.373  -1.225  0.00  0.00    +0.060 A 
ATOM     14 CL   LIG    1        0.673   6.844  -2.732  0.00  0.00    -0.050 Cl
ATOM     15  C   LIG    1       -1.333   4.437  -0.257  0.00  0.00    +0.060 A 
ENDBRANCH   8   9
BRANCH   5  16
ATOM     16  C   LIG    1       -2.661   2.771   4.396  0.00  0.00    +0.590 C 
ATOM     17  N   LIG    1       -3.162   4.023   4.400  0.00  0.00    -0.650 N 
ATOM     18  H   LIG    1       -2.999   4.612   3.647  0.00  0.00    +0.410 HD
ATOM     19  O   LIG    1       -2.962   1.994   5.281  0.00  0.00    -0.460 OA
BRANCH  17  20
ATOM     20  C   LIG    1       -3.914   4.469   5.485  0.00  0.00    +0.210 A 
ATOM     21  C   LIG    1       -3.830   3.841   6.696  0.00  0.00    -0.020 A 
ATOM     22  C   LIG    1       -4.569   4.274   7.795  0.00  0.00    +0.080 A 
ATOM     23  C   LIG    1       -5.419   5.328   7.733  0.00  0.00    +0.000 A 
ATOM     24  C   LIG    1       -5.583   6.041   6.526  0.00  0.00    +0.130 A 
ATOM     25  N   LIG    1       -6.307   7.078   6.148  0.00  0.00    -0.300 NA
ATOM     26  N   LIG    1       -6.050   7.344   4.798  0.00  0.00    -0.430 N 
ATOM     27  H   LIG    1       -6.459   8.058   4.283  0.00  0.00    +0.450 HD
ATOM     28  C   LIG    1       -5.156   6.467   4.321  0.00  0.00    +0.260 A 
ATOM     29  C   LIG    1       -4.812   5.612   5.348  0.00  0.00    -0.220 A 
ENDBRANCH  17  20
ENDBRANCH   5  16
TORSDOF 3
