REMARK  Name = ZINCrD0000071dxX.0
REMARK                            x       y       z     vdW  Elec       q    Type
REMARK                         _______ _______ _______ _____ _____    ______ ____
ROOT
ATOM      1  C   LIG    1       -3.963   1.840  -4.148  0.00  0.00    +0.170 A 
ATOM      2  N   LIG    1       -3.904   1.163  -3.041  0.00  0.00    -0.390 NA
ATOM      3  O   LIG    1       -2.823   1.318  -2.511  0.00  0.00    +0.090 OA
ATOM      4  C   LIG    1       -2.068   2.133  -3.253  0.00  0.00    +0.200 A 
ATOM      5  N   LIG    1       -2.787   2.475  -4.296  0.00  0.00    -0.470 NA
ENDROOT
BRANCH   4   6
ATOM      6  C   LIG    1       -0.661   2.579  -2.948  0.00  0.00    +0.130 C 
ATOM      7  C   LIG    1       -0.649   3.323  -1.613  0.00  0.00    +0.050 C 
ATOM      8  C   LIG    1        0.777   3.714  -1.236  0.00  0.00    -0.010 C 
ATOM      9  C   LIG    1        1.184   3.076   0.087  0.00  0.00    +0.040 C 
ATOM     10  C   LIG    1        1.284   1.561  -0.002  0.00  0.00    +0.150 C 
ATOM     11  C   LIG    1        2.092   1.089  -1.200  0.00  0.00    +0.000 C 
ATOM     12  C   LIG    1        1.668   1.768  -2.497  0.00  0.00    -0.010 C 
ATOM     13  C   LIG    1        1.748   3.286  -2.337  0.00  0.00    +0.020 C 
ATOM     14  C   LIG    1        0.252   1.356  -2.889  0.00  0.00    +0.040 C 
BRANCH  10  15
ATOM     15  O   LIG    1       -0.011   0.963   0.007  0.00  0.00    -0.560 OA
ATOM     16  H   LIG    1        0.002  -0.004   0.002  0.00  0.00    +0.380 HD
ENDBRANCH  10  15
ENDBRANCH   4   6
BRANCH   1  18
ATOM     17  C   LIG    1       -5.610   3.356  -5.216  0.00  0.00    +0.070 C 
ATOM     18  C   LIG    1       -5.136   1.906  -5.091  0.00  0.00    +0.270 C 
ATOM     19  C   LIG    1       -4.715   1.388  -6.468  0.00  0.00    +0.070 C 
BRANCH  18  20
ATOM     20  N   LIG    1       -6.228   1.079  -4.572  0.00  0.00    -0.720 N 
ATOM     21  H   LIG    1       -6.117   0.598  -3.736  0.00  0.00    +0.410 HD
ATOM     22  C   LIG    1       -7.387   0.986  -5.254  0.00  0.00    +0.570 C 
ATOM     23  O   LIG    1       -7.526   1.588  -6.300  0.00  0.00    -0.530 OA
BRANCH  22  24
ATOM     24  C   LIG    1       -8.488   0.151  -4.729  0.00  0.00    -0.140 A 
ATOM     25  C   LIG    1       -8.330  -0.546  -3.530  0.00  0.00    +0.030 A 
ATOM     26  C   LIG    1       -9.363  -1.320  -3.044  0.00  0.00    +0.000 A 
ATOM     27  C   LIG    1      -10.551  -1.414  -3.747  0.00  0.00    +0.040 A 
ATOM     28  C   LIG    1      -10.713  -0.729  -4.938  0.00  0.00    +0.000 A 
ATOM     29  C   LIG    1       -9.690   0.052  -5.433  0.00  0.00    +0.080 A 
ENDBRANCH  22  24
ENDBRANCH  18  20
ENDBRANCH   1  18
TORSDOF 5
