REMARK  Name = ZINCrH000004ta7q.0
REMARK                            x       y       z     vdW  Elec       q    Type
REMARK                         _______ _______ _______ _____ _____    ______ ____
ROOT
ATOM      1  N   LIG    1       -1.825   5.711  -1.685  0.00  0.00    -0.650 N 
ATOM      2  H   LIG    1       -1.964   4.764  -1.840  0.00  0.00    +0.410 HD
ATOM      3  C   LIG    1       -2.545   6.619  -2.373  0.00  0.00    +0.710 C 
ATOM      4  N   LIG    1       -3.457   6.210  -3.277  0.00  0.00    -0.730 N 
ATOM      5  H   LIG    1       -3.596   5.263  -3.432  0.00  0.00    +0.410 HD
ATOM      6  O   LIG    1       -2.371   7.807  -2.179  0.00  0.00    -0.560 OA
ENDROOT
BRANCH   1  11
ATOM      7  C   LIG    1        1.698   5.711   1.790  0.00  0.00    +0.360 C 
ATOM      8  N   LIG    1        0.699   6.142   0.809  0.00  0.00    -0.360 N 
ATOM      9  N   LIG    1        0.365   7.466   0.499  0.00  0.00    -0.280 NA
ATOM     10  C   LIG    1       -0.569   7.464  -0.417  0.00  0.00    +0.270 A 
ATOM     11  C   LIG    1       -0.874   6.137  -0.743  0.00  0.00    +0.040 A 
ATOM     12  C   LIG    1       -0.070   5.323   0.031  0.00  0.00    +0.080 A 
BRANCH  12  13
ATOM     13  C   LIG    1       -0.050   3.845   0.023  0.00  0.00    -0.030 A 
ATOM     14  C   LIG    1        1.166   3.160   0.008  0.00  0.00    +0.020 A 
ATOM     15  C   LIG    1        1.178   1.781   0.000  0.00  0.00    +0.020 A 
ATOM     16  C   LIG    1       -0.013   1.076   0.008  0.00  0.00    +0.020 A 
ATOM     17  C   LIG    1       -1.222   1.748   0.017  0.00  0.00    +0.020 A 
ATOM     18  C   LIG    1       -1.248   3.127   0.031  0.00  0.00    +0.020 A 
ENDBRANCH  12  13
ENDBRANCH   1  11
BRANCH   4  19
ATOM     19  C   LIG    1       -4.239   7.197  -4.026  0.00  0.00    +0.270 C 
BRANCH  19  20
ATOM     20  C   LIG    1       -3.446   7.654  -5.252  0.00  0.00    +0.430 C 
ATOM     21  F   LIG    1       -2.240   8.231  -4.838  0.00  0.00    -0.170 F 
ATOM     22  F   LIG    1       -4.192   8.597  -5.966  0.00  0.00    -0.180 F 
ATOM     23  F   LIG    1       -3.178   6.552  -6.071  0.00  0.00    -0.180 F 
ENDBRANCH  19  20
BRANCH  19  24
ATOM     24  C   LIG    1       -5.558   6.566  -4.478  0.00  0.00    +0.050 C 
BRANCH  24  25
ATOM     25  C   LIG    1       -6.406   6.223  -3.252  0.00  0.00    +0.180 C 
ATOM     26  C   LIG    1       -7.687   5.482  -3.692  0.00  0.00    +0.020 C 
ATOM     27  C   LIG    1       -8.759   6.085  -2.744  0.00  0.00    +0.010 C 
ATOM     28  C   LIG    1       -8.241   7.538  -2.601  0.00  0.00    +0.200 C 
ATOM     29  O   LIG    1       -6.809   7.427  -2.588  0.00  0.00    -0.370 OA
ENDBRANCH  24  25
ENDBRANCH  19  24
ENDBRANCH   4  19
TORSDOF 6
