REMARK  Name = ZINCrH000004lgYe.0
REMARK                            x       y       z     vdW  Elec       q    Type
REMARK                         _______ _______ _______ _____ _____    ______ ____
ROOT
ATOM      1  C   LIG    1       -0.074   5.619   0.035  0.00  0.00    +0.140 C 
ENDROOT
BRANCH   1   2
ATOM      2  C   LIG    1       -0.694   6.121  -1.244  0.00  0.00    -0.100 A 
ATOM      3  C   LIG    1       -2.022   5.853  -1.520  0.00  0.00    +0.070 A 
ATOM      4  C   LIG    1       -2.592   6.317  -2.690  0.00  0.00    -0.010 A 
ATOM      5  C   LIG    1       -1.830   7.041  -3.591  0.00  0.00    +0.110 A 
ATOM      6  C   LIG    1       -0.499   7.304  -3.316  0.00  0.00    -0.010 A 
ATOM      7  F   LIG    1       -2.386   7.491  -4.738  0.00  0.00    -0.140 F 
ATOM      8  C   LIG    1        0.068   6.844  -2.143  0.00  0.00    +0.080 A 
ENDBRANCH   1   2
BRANCH   1   9
ATOM      9  C   LIG    1        0.032   4.116  -0.015  0.00  0.00    -0.090 A 
ATOM     10  C   LIG    1        1.273   3.514  -0.094  0.00  0.00    +0.080 A 
ATOM     11  C   LIG    1        1.372   2.136  -0.138  0.00  0.00    -0.010 A 
ATOM     12  C   LIG    1        0.226   1.359  -0.103  0.00  0.00    +0.110 A 
ATOM     13  C   LIG    1       -1.017   1.964  -0.030  0.00  0.00    -0.010 A 
ATOM     14  F   LIG    1        0.321   0.012  -0.146  0.00  0.00    -0.130 F 
ATOM     15  C   LIG    1       -1.113   3.342   0.020  0.00  0.00    +0.060 A 
ENDBRANCH   1   9
BRANCH   1  16
ATOM     16  S   LIG    1       -1.109   6.105   1.438  0.00  0.00    +0.050 S 
BRANCH  16  23
ATOM     17  N   LIG    1       -1.532   8.764   2.199  0.00  0.00    -0.530 N 
ATOM     18  C   LIG    1       -1.169  10.004   1.814  0.00  0.00    +0.650 A 
ATOM     19  N   LIG    1       -0.363   9.878   0.740  0.00  0.00    -0.540 N 
ATOM     20  H   LIG    1        0.053  10.602   0.246  0.00  0.00    +0.460 HD
ATOM     21  N   LIG    1       -0.232   8.508   0.473  0.00  0.00    -0.270 NA
ATOM     22  O   LIG    1       -1.508  11.049   2.341  0.00  0.00    -0.550 OA
ATOM     23  C   LIG    1       -0.941   7.857   1.349  0.00  0.00    +0.250 A 
BRANCH  17  24
ATOM     24  C   LIG    1       -2.407   8.438   3.328  0.00  0.00    +0.330 C 
BRANCH  24  25
ATOM     25  C   LIG    1       -1.563   8.258   4.591  0.00  0.00    +0.020 C 
BRANCH  25  26
ATOM     26  C   LIG    1       -2.476   7.917   5.770  0.00  0.00    +0.180 C 
BRANCH  26  28
ATOM     27  C   LIG    1       -2.449   7.426   8.116  0.00  0.00    +0.200 C 
ATOM     28  O   LIG    1       -1.688   7.748   6.950  0.00  0.00    -0.390 OA
ENDBRANCH  26  28
ENDBRANCH  25  26
ENDBRANCH  24  25
ENDBRANCH  17  24
ENDBRANCH  16  23
ENDBRANCH   1  16
TORSDOF 8
