REMARK  Name = ZINCpe00000bXlXZ.1
REMARK                            x       y       z     vdW  Elec       q    Type
REMARK                         _______ _______ _______ _____ _____    ______ ____
ROOT
ATOM      1  C   LIG    1       -5.238  -0.797  -1.183  0.00  0.00    +0.030 C 
ATOM      2  C   LIG    1       -4.767  -1.578   0.046  0.00  0.00    +0.220 C 
ATOM      3  C   LIG    1       -5.351  -3.006   0.013  0.00  0.00    +0.050 C 
ATOM      4  C   LIG    1       -4.192  -3.845  -0.587  0.00  0.00    -0.030 C 
ATOM      5  C   LIG    1       -2.953  -3.138   0.016  0.00  0.00    +0.280 C 
ATOM      6  N   LIG    1       -3.302  -1.706   0.025  0.00  0.00    -0.590 N 
ATOM      7  C   LIG    1       -2.425  -0.683   0.022  0.00  0.00    +0.630 C 
ATOM      8  O   LIG    1       -2.829   0.466   0.031  0.00  0.00    -0.540 OA
ENDROOT
BRANCH   7   9
ATOM      9  C   LIG    1       -0.987  -0.953   0.007  0.00  0.00    +0.080 A 
ATOM     10  N   LIG    1       -0.428  -2.154  -0.004  0.00  0.00    -0.400 NA
ATOM     11  C   LIG    1        0.887  -2.038  -0.017  0.00  0.00    +0.180 A 
ATOM     12  C   LIG    1        1.197  -0.679  -0.013  0.00  0.00    +0.030 A 
ATOM     13  C   LIG    1        2.406   0.035  -0.021  0.00  0.00    +0.070 A 
ATOM     14  C   LIG    1        2.374   1.398  -0.014  0.00  0.00    +0.030 A 
ATOM     15  C   LIG    1        1.138   2.061   0.002  0.00  0.00    +0.030 A 
ATOM     16  C   LIG    1       -0.016   1.358   0.009  0.00  0.00    +0.240 A 
ATOM     17  N   LIG    1        0.002  -0.004   0.002  0.00  0.00    -0.320 N 
ENDBRANCH   7   9
BRANCH   4  18
ATOM     18  C   LIG    1       -4.272  -5.301  -0.124  0.00  0.00    +0.270 C 
BRANCH  18  19
ATOM     19  N   LIG    1       -3.146  -6.054  -0.682  0.00  0.00    -0.730 N 
ATOM     20  H   LIG    1       -2.498  -5.607  -1.250  0.00  0.00    +0.400 HD
ATOM     21  C   LIG    1       -3.010  -7.366  -0.407  0.00  0.00    +0.510 C 
ATOM     22  O   LIG    1       -3.820  -7.924   0.303  0.00  0.00    -0.520 OA
BRANCH  21  23
ATOM     23  C   LIG    1       -1.852  -8.140  -0.981  0.00  0.00    +0.200 C 
BRANCH  23  24
ATOM     24  N   LIG    1       -1.929  -9.538  -0.537  0.00  0.00    -0.530 NA
ATOM     25  C   LIG    1       -0.699 -10.267  -0.876  0.00  0.00    +0.190 C 
ATOM     26  C   LIG    1       -3.109 -10.206  -1.101  0.00  0.00    +0.200 C 
ENDBRANCH  23  24
ENDBRANCH  21  23
ENDBRANCH  18  19
ENDBRANCH   4  18
TORSDOF 5
