REMARK  Name = ZINCrD000000Dh7a.0
REMARK                            x       y       z     vdW  Elec       q    Type
REMARK                         _______ _______ _______ _____ _____    ______ ____
ROOT
ATOM      1  N   LIG    1       -0.979   6.250  -1.166  0.00  0.00    -0.740 N 
ATOM      2  H   LIG    1       -0.606   5.687  -1.862  0.00  0.00    +0.410 HD
ENDROOT
BRANCH   1   3
ATOM      3  C   LIG    1       -1.951   7.202  -1.484  0.00  0.00    +0.220 A 
ATOM      4  C   LIG    1       -2.490   8.005  -0.486  0.00  0.00    -0.040 A 
ATOM      5  C   LIG    1       -3.448   8.951  -0.797  0.00  0.00    +0.070 A 
ATOM      6  C   LIG    1       -3.884   9.097  -2.098  0.00  0.00    -0.020 A 
ATOM      7  C   LIG    1       -3.353   8.292  -3.106  0.00  0.00    +0.010 A 
ATOM      8  C   LIG    1       -2.383   7.341  -2.795  0.00  0.00    +0.010 A 
BRANCH   7   9
ATOM      9  C   LIG    1       -3.819   8.447  -4.503  0.00  0.00    +0.290 A 
ATOM     10  N   LIG    1       -3.203   8.020  -5.585  0.00  0.00    -0.320 NA
ATOM     11  N   LIG    1       -3.880   8.318  -6.635  0.00  0.00    -0.040 NA
ATOM     12  N   LIG    1       -4.958   8.947  -6.311  0.00  0.00    -0.080 NA
ATOM     13  N   LIG    1       -4.963   9.051  -4.909  0.00  0.00    -0.350 N 
BRANCH  13  14
ATOM     14  C   LIG    1       -5.984   9.679  -4.067  0.00  0.00    +0.210 C 
ATOM     15  C   LIG    1       -7.206  10.278  -4.767  0.00  0.00    +0.090 C 
ATOM     16  C   LIG    1       -6.143  11.197  -4.163  0.00  0.00    +0.060 C 
ENDBRANCH  13  14
ENDBRANCH   7   9
ENDBRANCH   1   3
BRANCH   1  17
ATOM     17  C   LIG    1       -0.523   6.103   0.218  0.00  0.00    +0.440 C 
BRANCH  17  21
ATOM     18  C   LIG    1        1.497   3.107   0.493  0.00  0.00    +0.230 A 
ATOM     19  N   LIG    1        2.396   4.038   0.274  0.00  0.00    -0.280 NA
ATOM     20  N   LIG    1        1.807   5.176   0.155  0.00  0.00    -0.250 NA
ATOM     21  C   LIG    1        0.520   5.018   0.291  0.00  0.00    +0.140 A 
ATOM     22  O   LIG    1        0.291   3.710   0.502  0.00  0.00    -0.210 OA
BRANCH  18  26
ATOM     23  C   LIG    1        2.246  -1.037   1.048  0.00  0.00    +0.040 A 
ATOM     24  C   LIG    1        3.301  -0.170   0.826  0.00  0.00    +0.020 A 
ATOM     25  C   LIG    1        3.064   1.177   0.645  0.00  0.00    +0.080 A 
ATOM     26  C   LIG    1        1.758   1.665   0.686  0.00  0.00    -0.040 A 
ATOM     27  C   LIG    1        0.698   0.786   0.916  0.00  0.00    +0.050 A 
ATOM     28  C   LIG    1        0.948  -0.560   1.090  0.00  0.00    +0.020 A 
ENDBRANCH  18  26
ENDBRANCH  17  21
ENDBRANCH   1  17
TORSDOF 6
