REMARK  Name = ZINCrH000004jOJj.0
REMARK                            x       y       z     vdW  Elec       q    Type
REMARK                         _______ _______ _______ _____ _____    ______ ____
ROOT
ATOM      1  C   LIG    1       -3.262  -1.313   0.415  0.00  0.00    +0.200 A 
ATOM      2  N   LIG    1       -2.389  -0.366   0.669  0.00  0.00    -0.320 NA
ATOM      3  N   LIG    1       -1.201  -0.723   0.010  0.00  0.00    -0.330 N 
ATOM      4  C   LIG    1       -1.448  -1.889  -0.617  0.00  0.00    +0.310 A 
ATOM      5  N   LIG    1       -2.684  -2.235  -0.362  0.00  0.00    -0.500 NA
ENDROOT
BRANCH   4   6
ATOM      6  C   LIG    1       -0.469  -2.662  -1.462  0.00  0.00    +0.080 C 
ATOM      7  C   LIG    1       -1.020  -2.802  -2.882  0.00  0.00    +0.030 C 
ATOM      8  C   LIG    1       -0.026  -3.587  -3.740  0.00  0.00    +0.010 C 
ATOM      9  C   LIG    1        0.182  -4.977  -3.135  0.00  0.00    +0.020 C 
ATOM     10  C   LIG    1        0.734  -4.838  -1.715  0.00  0.00    +0.010 C 
ATOM     11  C   LIG    1       -0.260  -4.052  -0.857  0.00  0.00    +0.030 C 
ENDBRANCH   4   6
BRANCH   3  12
ATOM     12  C   LIG    1        0.002  -0.004   0.002  0.00  0.00    +0.140 A 
ATOM     13  C   LIG    1       -0.017   1.384   0.010  0.00  0.00    +0.020 A 
ATOM     14  C   LIG    1        1.171   2.090   0.002  0.00  0.00    +0.040 A 
ATOM     15  C   LIG    1        2.377   1.415  -0.013  0.00  0.00    +0.020 A 
ATOM     16  C   LIG    1        2.400   0.032  -0.021  0.00  0.00    +0.040 A 
ATOM     17  C   LIG    1        1.216  -0.679  -0.013  0.00  0.00    +0.010 A 
ENDBRANCH   3  12
BRANCH   1  18
ATOM     18  S   LIG    1       -4.923  -1.361   1.001  0.00  0.00    +0.110 S 
BRANCH  18  19
ATOM     19  C   LIG    1       -5.054   0.161   1.979  0.00  0.00    +0.080 C 
BRANCH  19  22
ATOM     20  C   LIG    1       -5.782   2.371   3.598  0.00  0.00    +0.300 C 
ATOM     21  N   LIG    1       -6.772   1.325   3.326  0.00  0.00    -0.610 N 
ATOM     22  C   LIG    1       -6.441   0.268   2.558  0.00  0.00    +0.540 C 
ATOM     23  O   LIG    1       -7.261  -0.598   2.334  0.00  0.00    -0.510 OA
BRANCH  21  24
ATOM     24  C   LIG    1       -8.120   1.429   3.889  0.00  0.00    +0.310 C 
BRANCH  24  25
ATOM     25  C   LIG    1       -8.154   0.748   5.259  0.00  0.00    +0.180 C 
BRANCH  25  26
ATOM     26  C   LIG    1       -9.509   0.852   5.825  0.00  0.00    +0.210 C 
ATOM     27  N   LIG    1      -10.555   0.932   6.262  0.00  0.00    -0.420 NA
ENDBRANCH  25  26
ENDBRANCH  24  25
ENDBRANCH  21  24
ENDBRANCH  19  22
ENDBRANCH  18  19
ENDBRANCH   1  18
TORSDOF 8
