REMARK  Name = ZINCrD0000071wVW.0
REMARK                            x       y       z     vdW  Elec       q    Type
REMARK                         _______ _______ _______ _____ _____    ______ ____
ROOT
ATOM      1  N   LIG    1        1.143   1.898   0.001  0.00  0.00    -0.620 N 
ATOM      2  H   LIG    1        1.130   2.868   0.007  0.00  0.00    +0.430 HD
ATOM      3  C   LIG    1       -0.014   1.209   0.009  0.00  0.00    +0.510 C 
ATOM      4  O   LIG    1        0.002  -0.004   0.002  0.00  0.00    -0.500 OA
ENDROOT
BRANCH   1   8
ATOM      5  C   LIG    1        4.574   0.986  -0.036  0.00  0.00    +0.110 A 
ATOM      6  C   LIG    1        4.281  -0.316  -0.041  0.00  0.00    -0.130 A 
ATOM      7  S   LIG    1        2.527  -0.481  -0.025  0.00  0.00    +0.250 S 
ATOM      8  C   LIG    1        2.357   1.220  -0.014  0.00  0.00    +0.230 A 
ATOM      9  N   LIG    1        3.523   1.785  -0.027  0.00  0.00    -0.490 NA
BRANCH   5  10
ATOM     10  C   LIG    1        5.990   1.502  -0.047  0.00  0.00    +0.270 C 
BRANCH  10  15
ATOM     11  C   LIG    1        8.327   2.081  -5.231  0.00  0.00    +0.010 C 
ATOM     12  C   LIG    1        8.068   1.673  -3.779  0.00  0.00    -0.020 C 
ATOM     13  C   LIG    1        7.990   2.925  -2.901  0.00  0.00    +0.030 C 
ATOM     14  C   LIG    1        7.673   2.514  -1.462  0.00  0.00    +0.170 C 
ATOM     15  N   LIG    1        6.395   1.791  -1.429  0.00  0.00    -0.530 NA
ATOM     16  C   LIG    1        6.460   0.560  -2.226  0.00  0.00    +0.160 C 
ATOM     17  C   LIG    1        6.742   0.913  -3.689  0.00  0.00    +0.030 C 
ENDBRANCH  10  15
ENDBRANCH   5  10
ENDBRANCH   1   8
BRANCH   3  18
ATOM     18  C   LIG    1       -1.330   1.944   0.019  0.00  0.00    +0.330 C 
BRANCH  18  19
ATOM     19  N   LIG    1       -2.430   0.977   0.019  0.00  0.00    -0.720 N 
ATOM     20  H   LIG    1       -2.240   0.026   0.013  0.00  0.00    +0.410 HD
ATOM     21  C   LIG    1       -3.707   1.409   0.027  0.00  0.00    +0.570 C 
ATOM     22  O   LIG    1       -3.945   2.601   0.035  0.00  0.00    -0.530 OA
BRANCH  21  23
ATOM     23  C   LIG    1       -4.817   0.434   0.027  0.00  0.00    -0.130 A 
ATOM     24  C   LIG    1       -4.546  -0.936   0.013  0.00  0.00    +0.070 A 
ATOM     25  C   LIG    1       -5.586  -1.841   0.017  0.00  0.00    +0.020 A 
ATOM     26  C   LIG    1       -6.897  -1.394   0.026  0.00  0.00    -0.010 A 
ATOM     27  C   LIG    1       -7.172  -0.037   0.035  0.00  0.00    +0.020 A 
ATOM     28 CL   LIG    1       -8.201  -2.540   0.025  0.00  0.00    -0.060 Cl
ATOM     29  C   LIG    1       -6.140   0.878   0.036  0.00  0.00    +0.110 A 
ENDBRANCH  21  23
ENDBRANCH  18  19
ENDBRANCH   3  18
TORSDOF 6
