REMARK  Name = ZINCrD00000hQ5AR.0
REMARK                            x       y       z     vdW  Elec       q    Type
REMARK                         _______ _______ _______ _____ _____    ______ ____
ROOT
ATOM      1  N   LIG    1       -0.051  -3.189   3.383  0.00  0.00    -0.990 NA
ATOM      2  C   LIG    1       -0.358  -2.041   4.249  0.00  0.00    +0.310 C 
ATOM      3  C   LIG    1       -1.597  -1.330   3.693  0.00  0.00    +0.180 C 
ATOM      4  N   LIG    1       -1.375  -1.000   2.279  0.00  0.00    -0.490 N 
ATOM      5  C   LIG    1       -1.204  -2.213   1.469  0.00  0.00    +0.180 C 
ATOM      6  C   LIG    1        0.051  -2.960   1.933  0.00  0.00    +0.310 C 
ENDROOT
BRANCH   4   7
ATOM      7  C   LIG    1       -2.413  -0.208   1.782  0.00  0.00    +0.090 A 
ATOM      8  C   LIG    1       -3.717  -0.685   1.790  0.00  0.00    -0.040 A 
ATOM      9  C   LIG    1       -4.741   0.100   1.298  0.00  0.00    +0.000 A 
ATOM     10  C   LIG    1       -4.469   1.360   0.796  0.00  0.00    +0.000 A 
ATOM     11  C   LIG    1       -3.172   1.840   0.792  0.00  0.00    +0.010 A 
ATOM     12  C   LIG    1       -2.143   1.058   1.278  0.00  0.00    -0.050 A 
BRANCH  12  13
ATOM     13  C   LIG    1       -0.729   1.579   1.267  0.00  0.00    +0.060 C 
ATOM     14  C   LIG    1       -0.013   1.086   0.008  0.00  0.00    +0.030 C 
ENDBRANCH  12  13
ENDBRANCH   4   7
BRANCH   1  15
ATOM     15  S   LIG    1        0.176  -4.700   4.022  0.00  0.00    +2.700 S 
ATOM     16  O   LIG    1        0.560  -4.508   5.377  0.00  0.00    -0.940 OA
ATOM     17  O   LIG    1        0.965  -5.419   3.084  0.00  0.00    -0.960 OA
BRANCH  15  22
ATOM     18  C   LIG    1       -2.863  -7.231   3.309  0.00  0.00    -0.140 A 
ATOM     19  C   LIG    1       -3.870  -6.736   4.116  0.00  0.00    +0.110 A 
ATOM     20  C   LIG    1       -3.645  -5.619   4.897  0.00  0.00    -0.080 A 
ATOM     21  C   LIG    1       -2.406  -4.996   4.874  0.00  0.00    +0.220 A 
ATOM     22  C   LIG    1       -1.398  -5.492   4.059  0.00  0.00    -0.710 A 
ATOM     23  C   LIG    1       -1.628  -6.609   3.280  0.00  0.00    +0.160 A 
BRANCH  18  25
ATOM     24  C   LIG    1       -2.744  -9.707   3.251  0.00  0.00    +0.030 C 
ATOM     25  C   LIG    1       -3.110  -8.450   2.459  0.00  0.00    +0.070 C 
ENDBRANCH  18  25
BRANCH  21  26
ATOM     26  O   LIG    1       -2.180  -3.900   5.645  0.00  0.00    -0.310 OA
ATOM     27  C   LIG    1       -3.263  -3.446   6.460  0.00  0.00    +0.250 C 
ENDBRANCH  21  26
ENDBRANCH  15  22
ENDBRANCH   1  15
TORSDOF 6
