REMARK  Name = ZINCvU00000006ew.0
REMARK                            x       y       z     vdW  Elec       q    Type
REMARK                         _______ _______ _______ _____ _____    ______ ____
ROOT
ATOM      1  C   LIG    1       -0.727   3.357   0.027  0.00  0.00    +0.170 C 
ATOM      2  N   LIG    1       -1.143   1.944   0.018  0.00  0.00    -0.710 N 
ATOM      3  H   LIG    1       -2.052   1.607   0.019  0.00  0.00    +0.440 HD
ATOM      4  C   LIG    1       -0.014   1.211   0.009  0.00  0.00    +0.710 C 
ATOM      5  N   LIG    1        1.087   1.970   0.002  0.00  0.00    -0.570 N 
ATOM      6  O   LIG    1        0.002  -0.004   0.002  0.00  0.00    -0.530 OA
ATOM      7  C   LIG    1        0.787   3.284   0.012  0.00  0.00    +0.540 C 
ATOM      8  O   LIG    1        1.565   4.213   0.010  0.00  0.00    -0.450 OA
ENDROOT
BRANCH   1   9
ATOM      9  C   LIG    1       -1.212   4.052   1.273  0.00  0.00    -0.100 A 
ATOM     10  C   LIG    1       -1.397   5.422   1.272  0.00  0.00    +0.060 A 
ATOM     11  C   LIG    1       -1.848   6.060   2.413  0.00  0.00    +0.030 A 
ATOM     12  C   LIG    1       -2.102   5.328   3.559  0.00  0.00    -0.020 A 
ATOM     13  C   LIG    1       -1.911   3.958   3.561  0.00  0.00    +0.030 A 
ATOM     14 CL   LIG    1       -2.661   6.129   4.995  0.00  0.00    -0.060 Cl
ATOM     15  C   LIG    1       -1.466   3.321   2.418  0.00  0.00    +0.040 A 
ENDBRANCH   1   9
BRANCH   1  17
ATOM     16  C   LIG    1       -0.889   3.252  -2.464  0.00  0.00    +0.030 C 
ATOM     17  C   LIG    1       -1.244   4.073  -1.222  0.00  0.00    +0.060 C 
ENDBRANCH   1  17
BRANCH   5  18
ATOM     18  C   LIG    1        2.453   1.438  -0.014  0.00  0.00    +0.340 C 
BRANCH  18  19
ATOM     19  C   LIG    1        2.906   1.264  -1.441  0.00  0.00    +0.390 C 
ATOM     20  O   LIG    1        2.163   1.555  -2.354  0.00  0.00    -0.440 OA
BRANCH  19  21
ATOM     21  C   LIG    1        4.250   0.741  -1.726  0.00  0.00    -0.170 A 
ATOM     22  C   LIG    1        5.112   0.410  -0.673  0.00  0.00    +0.060 A 
ATOM     23  C   LIG    1        6.363  -0.082  -0.941  0.00  0.00    +0.020 A 
ATOM     24  C   LIG    1        6.782  -0.243  -2.263  0.00  0.00    -0.000 A 
ATOM     25  C   LIG    1        5.927   0.091  -3.314  0.00  0.00    +0.010 A 
ATOM     26  C   LIG    1        4.673   0.579  -3.051  0.00  0.00    +0.090 A 
BRANCH  24  27
ATOM     27  C   LIG    1        8.138  -0.769  -2.550  0.00  0.00    -0.060 A 
ATOM     28  C   LIG    1        8.559  -0.936  -3.869  0.00  0.00    +0.030 A 
ATOM     29  C   LIG    1        9.824  -1.421  -4.130  0.00  0.00    +0.010 A 
ATOM     30  C   LIG    1       10.670  -1.752  -3.087  0.00  0.00    +0.020 A 
ATOM     31  C   LIG    1       10.256  -1.593  -1.776  0.00  0.00    +0.010 A 
ATOM     32  C   LIG    1        8.995  -1.104  -1.503  0.00  0.00    +0.030 A 
ENDBRANCH  24  27
ENDBRANCH  19  21
ENDBRANCH  18  19
ENDBRANCH   5  18
TORSDOF 6
