REMARK  Name = ZINCqH0000036J3M.0
REMARK                            x       y       z     vdW  Elec       q    Type
REMARK                         _______ _______ _______ _____ _____    ______ ____
ROOT
ATOM      1  N   LIG    1       -0.698   1.558   1.213  0.00  0.00    -0.710 N 
ATOM      2  H   LIG    1       -1.241   2.362   1.179  0.00  0.00    +0.410 HD
ATOM      3  C   LIG    1       -0.575   0.877   2.369  0.00  0.00    +0.600 C 
ATOM      4  O   LIG    1        0.105  -0.131   2.412  0.00  0.00    -0.530 OA
ENDROOT
BRANCH   3   5
ATOM      5  C   LIG    1       -1.265   1.352   3.582  0.00  0.00    +0.010 A 
ATOM      6  C   LIG    1       -1.180   0.704   4.765  0.00  0.00    -0.020 A 
ATOM      7  S   LIG    1       -2.103   1.547   5.932  0.00  0.00    +0.190 S 
ATOM      8  C   LIG    1       -2.566   2.743   4.728  0.00  0.00    +0.100 A 
ATOM      9  N   LIG    1       -2.018   2.443   3.590  0.00  0.00    -0.440 NA
BRANCH   8  10
ATOM     10  C   LIG    1       -3.442   3.909   4.973  0.00  0.00    -0.030 A 
ATOM     11  C   LIG    1       -3.735   4.796   3.937  0.00  0.00    +0.060 A 
ATOM     12  C   LIG    1       -4.558   5.879   4.171  0.00  0.00    +0.010 A 
ATOM     13  C   LIG    1       -5.083   6.092   5.434  0.00  0.00    +0.030 A 
ATOM     14  C   LIG    1       -4.792   5.220   6.467  0.00  0.00    +0.010 A 
ATOM     15  C   LIG    1       -3.975   4.130   6.244  0.00  0.00    +0.030 A 
ENDBRANCH   8  10
ENDBRANCH   3   5
BRANCH   1  17
ATOM     16  C   LIG    1        1.423   1.615  -0.003  0.00  0.00    +0.040 C 
ATOM     17  C   LIG    1       -0.013   1.086   0.008  0.00  0.00    +0.290 C 
BRANCH  17  18
ATOM     18  C   LIG    1       -0.742   1.585  -1.213  0.00  0.00    -0.110 A 
ATOM     19  C   LIG    1       -1.258   2.867  -1.236  0.00  0.00    +0.050 A 
ATOM     20  C   LIG    1       -1.922   3.332  -2.353  0.00  0.00    +0.000 A 
ATOM     21  C   LIG    1       -2.086   2.507  -3.463  0.00  0.00    +0.140 A 
ATOM     22  N   LIG    1       -2.712   2.740  -4.688  0.00  0.00    -0.660 N 
ATOM     23  H   LIG    1       -3.142   3.576  -4.926  0.00  0.00    +0.410 HD
ATOM     24  C   LIG    1       -2.651   1.671  -5.501  0.00  0.00    +0.530 C 
ATOM     25  C   LIG    1       -1.903   0.586  -4.757  0.00  0.00    +0.140 C 
ATOM     26  O   LIG    1       -3.109   1.592  -6.621  0.00  0.00    -0.500 OA
ATOM     27  C   LIG    1       -1.567   1.218  -3.425  0.00  0.00    -0.140 A 
ATOM     28  C   LIG    1       -0.901   0.759  -2.312  0.00  0.00    +0.080 A 
ENDBRANCH  17  18
ENDBRANCH   1  17
TORSDOF 4
