REMARK  Name = ZINCrH000004nCXu.0
REMARK                            x       y       z     vdW  Elec       q    Type
REMARK                         _______ _______ _______ _____ _____    ______ ____
ROOT
ATOM      1  C   LIG    1        1.404  -5.084   2.362  0.00  0.00    +0.480 A 
ATOM      2  N   LIG    1        0.612  -6.134   2.333  0.00  0.00    -0.560 NA
ATOM      3  C   LIG    1        0.160  -6.718   3.458  0.00  0.00    +0.310 A 
ATOM      4  C   LIG    1       -0.669  -7.815   3.650  0.00  0.00    -0.110 A 
ATOM      5  C   LIG    1       -0.820  -7.997   5.019  0.00  0.00    +0.110 A 
ATOM      6  N   LIG    1       -0.131  -7.075   5.647  0.00  0.00    -0.310 NA
ATOM      7  C   LIG    1       -1.641  -9.077   5.675  0.00  0.00    +0.170 C 
ATOM      8  N   LIG    1        0.497  -6.256   4.700  0.00  0.00    -0.350 N 
ATOM      9  C   LIG    1        1.327  -5.155   4.830  0.00  0.00    +0.210 A 
ATOM     10  C   LIG    1        1.690  -4.659   6.073  0.00  0.00    +0.010 A 
ATOM     11  C   LIG    1        2.533  -3.570   6.155  0.00  0.00    +0.080 A 
ATOM     12  C   LIG    1        3.009  -2.955   5.006  0.00  0.00    +0.000 A 
ATOM     13  C   LIG    1        2.655  -3.430   3.762  0.00  0.00    +0.080 A 
ATOM     14  C   LIG    1        1.812  -4.537   3.664  0.00  0.00    -0.150 A 
ENDROOT
BRANCH   1  15
ATOM     15  N   LIG    1        1.849  -4.509   1.189  0.00  0.00    -0.570 N 
ATOM     16  C   LIG    1        2.757  -3.361   1.235  0.00  0.00    +0.330 C 
BRANCH  15  17
ATOM     17  C   LIG    1        1.414  -5.048  -0.102  0.00  0.00    +0.340 C 
BRANCH  17  18
ATOM     18  C   LIG    1        0.130  -4.341  -0.543  0.00  0.00    +0.190 C 
BRANCH  18  19
ATOM     19  O   LIG    1        0.406  -2.959  -0.783  0.00  0.00    -0.300 OA
BRANCH  19  25
ATOM     20  C   LIG    1       -0.439  -0.828  -1.437  0.00  0.00    +0.100 A 
ATOM     21  C   LIG    1       -1.502  -0.043  -1.851  0.00  0.00    -0.040 A 
ATOM     22  C   LIG    1       -2.756  -0.604  -2.009  0.00  0.00    +0.010 A 
ATOM     23  C   LIG    1       -2.953  -1.947  -1.753  0.00  0.00    +0.010 A 
ATOM     24  C   LIG    1       -1.896  -2.737  -1.338  0.00  0.00    -0.040 A 
ATOM     25  C   LIG    1       -0.636  -2.183  -1.185  0.00  0.00    +0.100 A 
BRANCH  20  27
ATOM     26  C   LIG    1        0.923   1.117  -1.564  0.00  0.00    +0.230 C 
ATOM     27  O   LIG    1        0.795  -0.278  -1.282  0.00  0.00    -0.310 OA
ENDBRANCH  20  27
ENDBRANCH  19  25
ENDBRANCH  18  19
ENDBRANCH  17  18
ENDBRANCH  15  17
ENDBRANCH   1  15
TORSDOF 6
