REMARK  Name = ZINCrg00000AyrAV.0
REMARK                            x       y       z     vdW  Elec       q    Type
REMARK                         _______ _______ _______ _____ _____    ______ ____
ROOT
ATOM      1  C   LIG    1       -2.907   2.970  -1.625  0.00  0.00    +0.510 C 
ATOM      2  N   LIG    1       -2.275   1.868  -1.174  0.00  0.00    -0.610 N 
ATOM      3  C   LIG    1       -0.799   1.765  -1.342  0.00  0.00    +0.270 C 
ATOM      4  C   LIG    1       -0.180   1.126  -0.074  0.00  0.00    +0.280 C 
ATOM      5  N   LIG    1       -0.805   1.589   1.134  0.00  0.00    -0.600 N 
ATOM      6  C   LIG    1       -1.964   0.860   1.698  0.00  0.00    +0.290 C 
ATOM      7  C   LIG    1       -3.185   1.182   0.944  0.00  0.00    +0.130 C 
ATOM      8  C   LIG    1       -0.333   2.687   1.757  0.00  0.00    +0.490 C 
ATOM      9  O   LIG    1        0.670   3.232   1.349  0.00  0.00    -0.520 OA
ATOM     10  C   LIG    1       -3.045   0.833  -0.548  0.00  0.00    +0.270 C 
ATOM     11  O   LIG    1       -4.109   3.074  -1.498  0.00  0.00    -0.520 OA
ENDROOT
BRANCH   7  12
ATOM     12  O   LIG    1       -4.280   0.446   1.493  0.00  0.00    -0.560 OA
ATOM     13  H   LIG    1       -5.130   0.631   1.072  0.00  0.00    +0.390 HD
ENDBRANCH   7  12
BRANCH   8  14
ATOM     14  C   LIG    1       -1.052   3.236   2.962  0.00  0.00    +0.210 C 
ATOM     15  C   LIG    1       -0.742   2.368   4.182  0.00  0.00    +0.040 C 
BRANCH  14  16
ATOM     16  O   LIG    1       -0.617   4.575   3.207  0.00  0.00    -0.540 OA
ATOM     17  H   LIG    1        0.331   4.655   3.380  0.00  0.00    +0.390 HD
ENDBRANCH  14  16
ENDBRANCH   8  14
BRANCH   1  18
ATOM     18  C   LIG    1       -2.121   4.072  -2.286  0.00  0.00    +0.140 C 
BRANCH  18  24
ATOM     19  C   LIG    1       -5.427   9.790  -0.309  0.00  0.00    +0.090 C 
ATOM     20  C   LIG    1       -4.760   8.556  -0.860  0.00  0.00    -0.060 A 
ATOM     21  C   LIG    1       -3.926   7.804  -0.045  0.00  0.00    +0.000 A 
ATOM     22  C   LIG    1       -3.310   6.675  -0.536  0.00  0.00    +0.050 A 
ATOM     23  C   LIG    1       -3.529   6.290  -1.858  0.00  0.00    -0.110 A 
ATOM     24  C   LIG    1       -3.057   5.180  -2.695  0.00  0.00    -0.160 A 
ATOM     25  C   LIG    1       -3.620   5.355  -3.899  0.00  0.00    +0.230 A 
ATOM     26  O   LIG    1       -4.399   6.451  -3.891  0.00  0.00    -0.190 OA
ATOM     27  C   LIG    1       -4.374   7.050  -2.684  0.00  0.00    +0.060 A 
ATOM     28  C   LIG    1       -4.985   8.186  -2.169  0.00  0.00    -0.070 A 
ATOM     29  C   LIG    1       -5.893   9.014  -3.041  0.00  0.00    +0.100 C 
ENDBRANCH  18  24
ENDBRANCH   1  18
TORSDOF 5
