REMARK  Name = ZINCkj000005ltge.0
REMARK                            x       y       z     vdW  Elec       q    Type
REMARK                         _______ _______ _______ _____ _____    ______ ____
ROOT
ATOM      1  C   LIG    1       -0.568   1.520   1.108  0.00  0.00    +0.030 C 
ATOM      2  C   LIG    1        0.061   0.953   2.397  0.00  0.00    +0.090 C 
ATOM      3  C   LIG    1       -0.704  -0.370   2.647  0.00  0.00    +0.050 C 
ATOM      4  C   LIG    1       -2.153  -0.009   2.238  0.00  0.00    +0.060 C 
ATOM      5  C   LIG    1       -0.785   3.038   1.285  0.00  0.00    +0.350 C 
ATOM      6  N   LIG    1       -2.144   3.271   0.681  0.00  0.00    -0.640 N 
ATOM      7  C   LIG    1       -2.541   4.309  -0.082  0.00  0.00    +0.610 C 
ATOM      8  O   LIG    1       -1.752   5.190  -0.368  0.00  0.00    -0.470 OA
ATOM      9  C   LIG    1       -2.948   2.106   1.118  0.00  0.00    +0.290 C 
ATOM     10  C   LIG    1       -1.986   0.904   1.007  0.00  0.00    +0.020 C 
ENDROOT
BRANCH   7  11
ATOM     11  C   LIG    1       -3.929   4.378  -0.567  0.00  0.00    +0.010 A 
ATOM     12  C   LIG    1       -4.444   5.279  -1.483  0.00  0.00    -0.220 A 
ATOM     13  C   LIG    1       -5.793   4.939  -1.616  0.00  0.00    +0.280 A 
ATOM     14  N   LIG    1       -6.031   3.924  -0.826  0.00  0.00    -0.250 NA
ATOM     15  N   LIG    1       -4.967   3.571  -0.199  0.00  0.00    -0.370 N 
ATOM     16  H   LIG    1       -4.909   2.842   0.438  0.00  0.00    +0.450 HD
BRANCH  12  17
ATOM     17  C   LIG    1       -3.707   6.387  -2.189  0.00  0.00    +0.550 C 
ATOM     18  F   LIG    1       -2.662   5.845  -2.945  0.00  0.00    -0.170 F 
ATOM     19  F   LIG    1       -3.186   7.277  -1.243  0.00  0.00    -0.160 F 
ATOM     20  F   LIG    1       -4.589   7.069  -3.034  0.00  0.00    -0.170 F 
ENDBRANCH  12  17
ENDBRANCH   7  11
BRANCH   1  21
ATOM     21  N   LIG    1        0.247   1.218  -0.076  0.00  0.00    -0.620 N 
ATOM     22  H   LIG    1       -0.205   1.590  -0.898  0.00  0.00    +0.440 HD
ATOM     23  H   LIG    1        1.158   1.639   0.026  0.00  0.00    +0.440 HD
ATOM     24  H   LIG    1        0.347   0.219  -0.170  0.00  0.00    +0.440 HD
ENDBRANCH   1  21
TORSDOF 3
