REMARK  Name = ZINCkj000005ltge.1
REMARK                            x       y       z     vdW  Elec       q    Type
REMARK                         _______ _______ _______ _____ _____    ______ ____
ROOT
ATOM      1  C   LIG    1        0.002  -0.004   0.002  0.00  0.00    +0.030 C 
ATOM      2  C   LIG    1        0.683  -0.561  -1.264  0.00  0.00    +0.060 C 
ATOM      3  C   LIG    1       -0.104  -1.893  -1.539  0.00  0.00    +0.050 C 
ATOM      4  C   LIG    1       -1.562  -1.514  -1.181  0.00  0.00    +0.050 C 
ATOM      5  C   LIG    1        0.716  -0.576   1.245  0.00  0.00    +0.310 C 
ATOM      6  N   LIG    1       -0.020  -1.822   1.561  0.00  0.00    -0.610 N 
ATOM      7  C   LIG    1        0.489  -3.001   1.970  0.00  0.00    +0.630 C 
ATOM      8  O   LIG    1        1.689  -3.127   2.118  0.00  0.00    -0.490 OA
ATOM      9  C   LIG    1       -1.441  -1.478   1.325  0.00  0.00    +0.310 C 
ATOM     10  C   LIG    1       -1.426  -0.602   0.055  0.00  0.00    +0.010 C 
ENDROOT
BRANCH   7  11
ATOM     11  C   LIG    1       -0.412  -4.141   2.238  0.00  0.00    +0.030 A 
ATOM     12  N   LIG    1       -1.725  -4.147   2.120  0.00  0.00    -0.250 NA
ATOM     13  N   LIG    1       -2.189  -5.304   2.433  0.00  0.00    -0.370 N 
ATOM     14  H   LIG    1       -3.129  -5.546   2.421  0.00  0.00    +0.460 HD
ATOM     15  C   LIG    1       -1.183  -6.134   2.780  0.00  0.00    +0.290 A 
ATOM     16  C   LIG    1       -0.029  -5.434   2.665  0.00  0.00    -0.250 A 
BRANCH  16  17
ATOM     17  C   LIG    1        1.368  -5.929   2.937  0.00  0.00    +0.550 C 
ATOM     18  F   LIG    1        1.946  -5.158   3.951  0.00  0.00    -0.170 F 
ATOM     19  F   LIG    1        2.136  -5.820   1.773  0.00  0.00    -0.170 F 
ATOM     20  F   LIG    1        1.319  -7.268   3.340  0.00  0.00    -0.180 F 
ENDBRANCH  16  17
ENDBRANCH   7  11
BRANCH   1  21
ATOM     21  N   LIG    1       -0.018   1.465   0.010  0.00  0.00    -0.620 N 
ATOM     22  H   LIG    1       -0.490   1.790   0.840  0.00  0.00    +0.440 HD
ATOM     23  H   LIG    1       -0.506   1.799  -0.807  0.00  0.00    +0.440 HD
ATOM     24  H   LIG    1        0.929   1.814   0.003  0.00  0.00    +0.440 HD
ENDBRANCH   1  21
TORSDOF 3
