REMARK  Name = ZINCqH0000036JmP.1
REMARK                            x       y       z     vdW  Elec       q    Type
REMARK                         _______ _______ _______ _____ _____    ______ ____
ROOT
ATOM      1  C   LIG    1        2.384   0.026  -0.034  0.00  0.00    +0.210 A 
ATOM      2  C   LIG    1        1.187  -0.677  -0.050  0.00  0.00    +0.020 A 
ATOM      3  C   LIG    1       -0.015   0.003  -0.047  0.00  0.00    +0.060 A 
ATOM      4  C   LIG    1       -0.036   1.388  -0.028  0.00  0.00    -0.010 A 
ATOM      5  C   LIG    1        1.142   2.102  -0.012  0.00  0.00    +0.060 A 
ATOM      6  C   LIG    1        2.365   1.428  -0.015  0.00  0.00    -0.180 A 
ENDROOT
BRANCH   1   8
ATOM      7  C   LIG    1        3.713  -1.828   0.623  0.00  0.00    +0.510 C 
ATOM      8  N   LIG    1        3.597  -0.659  -0.037  0.00  0.00    -0.660 N 
ATOM      9  H   LIG    1        4.359  -0.293  -0.514  0.00  0.00    +0.420 HD
ATOM     10  O   LIG    1        2.741  -2.325   1.151  0.00  0.00    -0.510 OA
BRANCH   7  11
ATOM     11  C   LIG    1        5.051  -2.518   0.705  0.00  0.00    +0.220 C 
BRANCH  11  12
ATOM     12  N   LIG    1        4.913  -3.763   1.471  0.00  0.00    -0.670 NA
ATOM     13  H   LIG    1        4.526  -3.584   2.385  0.00  0.00    +0.360 HD
BRANCH  12  15
ATOM     14  C   LIG    1        6.408  -5.330   0.328  0.00  0.00    +0.050 C 
ATOM     15  C   LIG    1        6.200  -4.464   1.572  0.00  0.00    +0.220 C 
BRANCH  15  16
ATOM     16  C   LIG    1        6.200  -5.340   2.799  0.00  0.00    -0.190 A 
ATOM     17  C   LIG    1        7.237  -5.511   3.620  0.00  0.00    +0.010 A 
ATOM     18  C   LIG    1        7.002  -6.363   4.686  0.00  0.00    +0.000 A 
ATOM     19  C   LIG    1        5.777  -6.889   4.725  0.00  0.00    -0.060 A 
ATOM     20  S   LIG    1        4.837  -6.297   3.362  0.00  0.00    +0.140 S 
ENDBRANCH  15  16
ENDBRANCH  12  15
ENDBRANCH  11  12
ENDBRANCH   7  11
ENDBRANCH   1   8
BRANCH   6  21
ATOM     21  C   LIG    1        3.631   2.187   0.002  0.00  0.00    +0.570 C 
ATOM     22  N   LIG    1        3.610   3.529   0.122  0.00  0.00    -0.720 N 
ATOM     23  H   LIG    1        2.763   3.997   0.196  0.00  0.00    +0.400 HD
ATOM     24  O   LIG    1        4.692   1.601  -0.091  0.00  0.00    -0.550 OA
BRANCH  22  25
ATOM     25  C   LIG    1        4.867   4.282   0.139  0.00  0.00    +0.230 C 
ATOM     26  C   LIG    1        5.414   4.364   1.579  0.00  0.00    +0.010 C 
ATOM     27  C   LIG    1        6.024   5.785   1.672  0.00  0.00    +0.010 C 
ATOM     28  C   LIG    1        5.025   6.641   0.855  0.00  0.00    +0.010 C 
ATOM     29  C   LIG    1        4.620   5.730  -0.321  0.00  0.00    +0.020 C 
ENDBRANCH  22  25
ENDBRANCH   6  21
TORSDOF 7
