REMARK  Name = ZINCpk00000eaMKM.0
REMARK                            x       y       z     vdW  Elec       q    Type
REMARK                         _______ _______ _______ _____ _____    ______ ____
ROOT
ATOM      1  N   LIG    1        0.711  -0.489   1.189  0.00  0.00    -0.700 N 
ATOM      2  H   LIG    1        1.654  -0.707   1.135  0.00  0.00    +0.420 HD
ATOM      3  C   LIG    1        0.051  -0.633   2.355  0.00  0.00    +0.600 C 
ATOM      4  O   LIG    1       -1.132  -0.361   2.423  0.00  0.00    -0.520 OA
ENDROOT
BRANCH   3   5
ATOM      5  C   LIG    1        0.765  -1.123   3.551  0.00  0.00    +0.060 A 
ATOM      6  N   LIG    1        2.041  -1.419   3.488  0.00  0.00    -0.190 NA
ATOM      7  N   LIG    1        2.731  -1.847   4.476  0.00  0.00    -0.460 N 
ATOM      8  H   LIG    1        3.670  -2.040   4.330  0.00  0.00    +0.440 HD
ATOM      9  C   LIG    1        2.222  -2.045   5.710  0.00  0.00    +0.520 A 
ATOM     10  C   LIG    1        0.800  -1.755   5.935  0.00  0.00    -0.140 A 
ATOM     11  C   LIG    1        0.180  -1.926   7.168  0.00  0.00    +0.090 A 
ATOM     12  C   LIG    1       -1.157  -1.614   7.302  0.00  0.00    +0.030 A 
ATOM     13  C   LIG    1       -1.889  -1.151   6.217  0.00  0.00    +0.050 A 
ATOM     14  C   LIG    1       -1.294  -0.980   4.985  0.00  0.00    +0.070 A 
ATOM     15  O   LIG    1        2.926  -2.455   6.615  0.00  0.00    -0.500 OA
ATOM     16  C   LIG    1        0.055  -1.277   4.831  0.00  0.00    -0.030 A 
ENDBRANCH   3   5
BRANCH   1  18
ATOM     17  C   LIG    1       -0.019   1.526   0.010  0.00  0.00    +0.060 C 
ATOM     18  C   LIG    1        0.002  -0.004   0.002  0.00  0.00    +0.350 C 
BRANCH  18  19
ATOM     19  C   LIG    1        0.707  -0.490  -1.238  0.00  0.00    +0.120 A 
ATOM     20  N   LIG    1        1.998  -0.472  -1.451  0.00  0.00    -0.230 NA
ATOM     21  N   LIG    1        2.266  -0.961  -2.611  0.00  0.00    -0.280 NA
ATOM     22  C   LIG    1        1.142  -1.322  -3.207  0.00  0.00    +0.200 A 
ATOM     23  C   LIG    1        0.851  -1.901  -4.458  0.00  0.00    +0.080 A 
ATOM     24  C   LIG    1       -0.443  -2.158  -4.786  0.00  0.00    +0.070 A 
ATOM     25  C   LIG    1       -1.469  -1.845  -3.877  0.00  0.00    +0.030 A 
ATOM     26  C   LIG    1       -1.175  -1.292  -2.682  0.00  0.00    +0.230 A 
ATOM     27  N   LIG    1        0.119  -1.033  -2.338  0.00  0.00    -0.380 N 
ENDBRANCH  18  19
ENDBRANCH   1  18
TORSDOF 3
