REMARK  Name = ZINCrH00000tj160.0
REMARK                            x       y       z     vdW  Elec       q    Type
REMARK                         _______ _______ _______ _____ _____    ______ ____
ROOT
ATOM      1  C   LIG    1       -8.995  -3.201  -0.118  0.00  0.00    +0.030 C 
ATOM      2  C   LIG    1       -7.535  -3.586  -0.366  0.00  0.00    -0.010 C 
ATOM      3  C   LIG    1       -6.617  -2.691   0.472  0.00  0.00    +0.020 C 
ATOM      4  C   LIG    1       -5.169  -2.906   0.030  0.00  0.00    +0.110 C 
ATOM      5  C   LIG    1       -4.873  -4.400   0.021  0.00  0.00    -0.050 A 
ATOM      6  C   LIG    1       -5.823  -5.337   0.026  0.00  0.00    -0.180 A 
ATOM      7  S   LIG    1       -5.132  -6.951   0.011  0.00  0.00    +0.180 S 
ATOM      8  C   LIG    1       -3.490  -6.330  -0.001  0.00  0.00    +0.110 A 
ATOM      9  N   LIG    1       -2.308  -6.960  -0.015  0.00  0.00    -0.510 NA
ATOM     10  C   LIG    1       -1.183  -6.282  -0.022  0.00  0.00    +0.560 A 
ATOM     11  N   LIG    1       -1.157  -4.961  -0.020  0.00  0.00    -0.580 NA
ATOM     12  C   LIG    1       -2.275  -4.254  -0.001  0.00  0.00    +0.420 A 
ATOM     13  C   LIG    1       -3.517  -4.936   0.007  0.00  0.00    -0.180 A 
ATOM     14  C   LIG    1       -7.314  -5.044   0.041  0.00  0.00    +0.130 C 
ENDROOT
BRANCH  12  15
ATOM     15  O   LIG    1       -2.233  -2.900   0.006  0.00  0.00    -0.270 OA
BRANCH  15  16
ATOM     16  C   LIG    1       -0.941  -2.291  -0.002  0.00  0.00    +0.270 C 
BRANCH  16  17
ATOM     17  C   LIG    1       -1.092  -0.792   0.007  0.00  0.00    +0.530 C 
ATOM     18  N   LIG    1        0.002  -0.004   0.002  0.00  0.00    -0.550 N 
ATOM     19  C   LIG    1       -0.018   1.461   0.010  0.00  0.00    +0.290 C 
ATOM     20  C   LIG    1        1.460   1.885  -0.002  0.00  0.00    +0.110 C 
ATOM     21  C   LIG    1        2.229   0.583  -0.016  0.00  0.00    -0.130 A 
ATOM     22  C   LIG    1        3.588   0.333  -0.030  0.00  0.00    +0.060 A 
ATOM     23  C   LIG    1        4.055  -0.968  -0.041  0.00  0.00    -0.010 A 
ATOM     24  C   LIG    1        3.158  -2.021  -0.038  0.00  0.00    +0.050 A 
ATOM     25  C   LIG    1        1.801  -1.776  -0.025  0.00  0.00    -0.020 A 
ATOM     26  C   LIG    1        1.322  -0.465  -0.013  0.00  0.00    +0.130 A 
ATOM     27  O   LIG    1       -2.197  -0.294   0.020  0.00  0.00    -0.490 OA
ENDBRANCH  16  17
ENDBRANCH  15  16
ENDBRANCH  12  15
TORSDOF 3
