REMARK  Name = ZINCvU0000000I1J.0
REMARK                            x       y       z     vdW  Elec       q    Type
REMARK                         _______ _______ _______ _____ _____    ______ ____
ROOT
ATOM      1  N   LIG    1        1.266  -2.242  -1.803  0.00  0.00    -0.720 N 
ATOM      2  H   LIG    1        1.285  -1.736  -2.631  0.00  0.00    +0.410 HD
ATOM      3  C   LIG    1        1.232  -3.589  -1.837  0.00  0.00    +0.600 C 
ATOM      4  O   LIG    1        1.208  -4.223  -0.800  0.00  0.00    -0.500 OA
ENDROOT
BRANCH   3   5
ATOM      5  C   LIG    1        1.224  -4.292  -3.131  0.00  0.00    -0.240 A 
ATOM      6  C   LIG    1        0.148  -4.674  -3.892  0.00  0.00    +0.030 A 
ATOM      7  O   LIG    1        0.642  -5.278  -4.975  0.00  0.00    +0.110 OA
ATOM      8  N   LIG    1        1.847  -5.323  -4.990  0.00  0.00    -0.320 NA
ATOM      9  C   LIG    1       -1.307  -4.453  -3.568  0.00  0.00    +0.220 C 
ATOM     10  C   LIG    1        2.375  -4.757  -3.935  0.00  0.00    +0.080 A 
BRANCH  10  11
ATOM     11  C   LIG    1        3.815  -4.616  -3.612  0.00  0.00    -0.060 A 
ATOM     12  C   LIG    1        4.291  -4.986  -2.354  0.00  0.00    +0.140 A 
ATOM     13  C   LIG    1        5.637  -4.856  -2.062  0.00  0.00    +0.000 A 
ATOM     14  C   LIG    1        6.507  -4.351  -3.010  0.00  0.00    +0.090 A 
ATOM     15  C   LIG    1        6.040  -3.977  -4.257  0.00  0.00    +0.030 A 
ATOM     16  F   LIG    1        3.441  -5.474  -1.424  0.00  0.00    -0.110 F 
ATOM     17  C   LIG    1        4.699  -4.107  -4.564  0.00  0.00    +0.020 A 
ATOM     18 CL   LIG    1        4.116  -3.638  -6.130  0.00  0.00    -0.040 Cl
ENDBRANCH  10  11
ENDBRANCH   3   5
BRANCH   1  19
ATOM     19  C   LIG    1        1.273  -1.542  -0.516  0.00  0.00    +0.340 C 
BRANCH  19  23
ATOM     20  C   LIG    1        1.388   2.678  -1.191  0.00  0.00    +0.090 A 
ATOM     21  C   LIG    1        2.569   1.960  -1.072  0.00  0.00    +0.070 A 
ATOM     22  C   LIG    1        2.529   0.596  -0.854  0.00  0.00    +0.050 A 
ATOM     23  C   LIG    1        1.313  -0.054  -0.754  0.00  0.00    -0.070 A 
ATOM     24  C   LIG    1        0.133   0.657  -0.872  0.00  0.00    +0.030 A 
ATOM     25  C   LIG    1        0.167   2.022  -1.091  0.00  0.00    +0.110 A 
ATOM     26  F   LIG    1       -0.986   2.717  -1.212  0.00  0.00    -0.120 F 
BRANCH  20  32
ATOM     27  C   LIG    1        0.359   4.796   0.783  0.00  0.00    +0.180 C 
ATOM     28  C   LIG    1        0.984   5.029  -0.568  0.00  0.00    +0.220 A 
ATOM     29  N   LIG    1        1.190   6.193  -1.122  0.00  0.00    -0.480 NA
ATOM     30  C   LIG    1        1.762   6.019  -2.322  0.00  0.00    +0.160 A 
ATOM     31  C   LIG    1        1.924   4.697  -2.523  0.00  0.00    +0.130 A 
ATOM     32  N   LIG    1        1.427   4.063  -1.413  0.00  0.00    -0.420 N 
ENDBRANCH  20  32
ENDBRANCH  19  23
ENDBRANCH   1  19
TORSDOF 5
