REMARK  Name = ZINCqH00000513lD.0
REMARK                            x       y       z     vdW  Elec       q    Type
REMARK                         _______ _______ _______ _____ _____    ______ ____
ROOT
ATOM      1  N   LIG    1       -0.017   1.382   0.010  0.00  0.00    -0.630 N 
ATOM      2  H   LIG    1        0.817   1.879   0.004  0.00  0.00    +0.420 HD
ATOM      3  C   LIG    1       -1.193   2.040   0.019  0.00  0.00    +0.510 C 
ATOM      4  O   LIG    1       -2.235   1.420   0.020  0.00  0.00    -0.500 OA
ENDROOT
BRANCH   1   6
ATOM      5  C   LIG    1        1.135  -0.763  -0.018  0.00  0.00    -0.200 A 
ATOM      6  C   LIG    1        0.002  -0.004   0.002  0.00  0.00    +0.040 A 
ATOM      7  S   LIG    1       -1.385  -0.989   0.009  0.00  0.00    +0.320 S 
ATOM      8  C   LIG    1       -0.433  -2.474  -0.007  0.00  0.00    -0.270 A 
ATOM      9  C   LIG    1       -0.659  -3.981  -0.013  0.00  0.00    +0.120 C 
ATOM     10  C   LIG    1        0.684  -4.581  -0.475  0.00  0.00    +0.040 C 
ATOM     11  C   LIG    1        1.680  -3.491  -0.031  0.00  0.00    +0.090 C 
ATOM     12  C   LIG    1        0.868  -2.199  -0.018  0.00  0.00    -0.070 A 
BRANCH   5  16
ATOM     13  N   LIG    1        3.090   0.073  -1.209  0.00  0.00    -0.850 N 
ATOM     14  H   LIG    1        3.984   0.450  -1.220  0.00  0.00    +0.400 HD
ATOM     15  H   LIG    1        2.631  -0.110  -2.044  0.00  0.00    +0.400 HD
ATOM     16  C   LIG    1        2.486  -0.195  -0.035  0.00  0.00    +0.590 C 
ATOM     17  O   LIG    1        3.062   0.036   1.012  0.00  0.00    -0.530 OA
ENDBRANCH   5  16
ENDBRANCH   1   6
BRANCH   3  18
ATOM     18  C   LIG    1       -1.213   3.547   0.027  0.00  0.00    +0.060 C 
BRANCH  18  19
ATOM     19  C   LIG    1       -2.663   4.037   0.037  0.00  0.00    +0.040 C 
BRANCH  19  20
ATOM     20  C   LIG    1       -2.683   5.567   0.045  0.00  0.00    +0.100 C 
BRANCH  20  21
ATOM     21  C   LIG    1       -4.111   6.050   0.054  0.00  0.00    -0.170 A 
ATOM     22  C   LIG    1       -4.842   6.401  -1.015  0.00  0.00    +0.220 A 
ATOM     23  N   LIG    1       -6.094   6.786  -0.619  0.00  0.00    -0.600 N 
ATOM     24  H   LIG    1       -6.800   7.083  -1.214  0.00  0.00    +0.420 HD
ATOM     25  C   LIG    1       -6.201   6.691   0.751  0.00  0.00    +0.090 A 
ATOM     26  C   LIG    1       -7.228   6.952   1.651  0.00  0.00    -0.010 A 
ATOM     27  C   LIG    1       -7.024   6.753   2.999  0.00  0.00    +0.030 A 
ATOM     28  C   LIG    1       -5.801   6.293   3.470  0.00  0.00    -0.030 A 
ATOM     29  C   LIG    1       -4.778   6.031   2.602  0.00  0.00    +0.050 A 
ATOM     30  C   LIG    1       -4.965   6.220   1.232  0.00  0.00    -0.100 A 
ENDBRANCH  20  21
ENDBRANCH  19  20
ENDBRANCH  18  19
ENDBRANCH   3  18
TORSDOF 6
