REMARK  Name = ZINCqH0000004fVt.0
REMARK                            x       y       z     vdW  Elec       q    Type
REMARK                         _______ _______ _______ _____ _____    ______ ____
ROOT
ATOM      1  C   LIG    1       -3.312   0.401   1.274  0.00  0.00    +0.520 C 
ATOM      2  N   LIG    1       -2.373   1.345   1.480  0.00  0.00    -0.730 N 
ATOM      3  H   LIG    1       -2.150   1.617   2.384  0.00  0.00    +0.400 HD
ATOM      4  O   LIG    1       -3.651   0.118   0.143  0.00  0.00    -0.520 OA
ENDROOT
BRANCH   1   5
ATOM      5  C   LIG    1       -3.943  -0.304   2.447  0.00  0.00    +0.040 C 
BRANCH   5   6
ATOM      6  C   LIG    1       -5.060  -1.190   1.960  0.00  0.00    -0.060 A 
ATOM      7  C   LIG    1       -4.779  -2.279   1.155  0.00  0.00    +0.030 A 
ATOM      8  C   LIG    1       -5.803  -3.093   0.712  0.00  0.00    +0.000 A 
ATOM      9  C   LIG    1       -7.111  -2.815   1.065  0.00  0.00    +0.000 A 
ATOM     10  C   LIG    1       -7.393  -1.724   1.866  0.00  0.00    +0.000 A 
ATOM     11  C   LIG    1       -6.367  -0.911   2.312  0.00  0.00    +0.000 A 
ENDBRANCH   5   6
BRANCH   5  12
ATOM     12  C   LIG    1       -2.888  -1.157   3.156  0.00  0.00    +0.000 C 
ATOM     13  C   LIG    1       -1.663  -0.295   3.470  0.00  0.00    +0.010 C 
BRANCH  12  15
ATOM     14  C   LIG    1       -4.434  -2.855   4.141  0.00  0.00    +0.010 C 
ATOM     15  C   LIG    1       -3.471  -1.709   4.458  0.00  0.00    +0.020 C 
ENDBRANCH  12  15
ENDBRANCH   5  12
ENDBRANCH   1   5
BRANCH   2  16
ATOM     16  C   LIG    1       -1.690   1.960   0.339  0.00  0.00    +0.330 C 
BRANCH  16  17
ATOM     17  C   LIG    1       -0.695   2.976   0.838  0.00  0.00    -0.180 A 
ATOM     18  C   LIG    1       -1.076   4.297   1.027  0.00  0.00    +0.120 A 
ATOM     19  C   LIG    1       -0.129   5.199   1.481  0.00  0.00    -0.020 A 
ATOM     20  C   LIG    1        1.161   4.753   1.736  0.00  0.00    +0.380 A 
ATOM     21  N   LIG    1        1.486   3.484   1.548  0.00  0.00    -0.510 NA
ATOM     22  C   LIG    1        0.606   2.602   1.116  0.00  0.00    +0.330 A 
BRANCH  20  23
ATOM     23  N   LIG    1        2.127   5.653   2.195  0.00  0.00    -0.330 N 
ATOM     24  C   LIG    1        3.422   5.360   2.483  0.00  0.00    +0.260 A 
ATOM     25  C   LIG    1        4.019   6.503   2.894  0.00  0.00    -0.100 A 
ATOM     26  C   LIG    1        3.064   7.526   2.856  0.00  0.00    +0.270 A 
ATOM     27  N   LIG    1        1.935   7.020   2.433  0.00  0.00    -0.290 NA
ENDBRANCH  20  23
ENDBRANCH  16  17
ENDBRANCH   2  16
TORSDOF 7
