REMARK  Name = ZINCpk00000xOTJI.0
REMARK                            x       y       z     vdW  Elec       q    Type
REMARK                         _______ _______ _______ _____ _____    ______ ____
ROOT
ATOM      1  C   LIG    1        1.656   3.221  -0.520  0.00  0.00    +0.510 C 
ATOM      2  N   LIG    1        1.382   2.000  -0.021  0.00  0.00    -0.720 N 
ATOM      3  H   LIG    1        2.097   1.449   0.334  0.00  0.00    +0.400 HD
ATOM      4  O   LIG    1        0.762   3.910  -0.964  0.00  0.00    -0.520 OA
ENDROOT
BRANCH   1  11
ATOM      5  C   LIG    1        2.575   7.554  -0.143  0.00  0.00    +0.110 C 
ATOM      6  C   LIG    1        2.491   6.077   0.145  0.00  0.00    +0.540 C 
ATOM      7  N   LIG    1        3.078   5.194  -0.686  0.00  0.00    -0.600 N 
ATOM      8  C   LIG    1        3.830   5.533  -1.908  0.00  0.00    +0.240 C 
ATOM      9  C   LIG    1        3.748   4.261  -2.790  0.00  0.00    +0.170 C 
ATOM     10  C   LIG    1        3.841   3.137  -1.725  0.00  0.00    +0.080 C 
ATOM     11  C   LIG    1        3.074   3.732  -0.525  0.00  0.00    +0.220 C 
ATOM     12  O   LIG    1        1.895   5.684   1.126  0.00  0.00    -0.530 OA
BRANCH   9  13
ATOM     13  O   LIG    1        4.847   4.198  -3.700  0.00  0.00    -0.550 OA
ATOM     14  H   LIG    1        4.886   4.936  -4.323  0.00  0.00    +0.390 HD
ENDBRANCH   9  13
ENDBRANCH   1  11
BRANCH   2  15
ATOM     15  C   LIG    1        0.004   1.503  -0.016  0.00  0.00    +0.290 C 
ATOM     16  C   LIG    1       -0.718   2.013   1.233  0.00  0.00    +0.040 C 
BRANCH  15  17
ATOM     17  C   LIG    1        0.013  -0.004  -0.011  0.00  0.00    -0.080 A 
ATOM     18  C   LIG    1        0.936  -0.686   0.759  0.00  0.00    +0.000 A 
ATOM     19  C   LIG    1        0.948  -2.069   0.768  0.00  0.00    +0.020 A 
ATOM     20  C   LIG    1        0.036  -2.773   0.006  0.00  0.00    -0.030 A 
ATOM     21  C   LIG    1       -0.893  -2.091  -0.769  0.00  0.00    +0.090 A 
ATOM     22  C   LIG    1       -0.906  -0.702  -0.770  0.00  0.00    +0.050 A 
BRANCH  21  23
ATOM     23  N   LIG    1       -1.816  -2.800  -1.541  0.00  0.00    -0.490 N 
ATOM     24  C   LIG    1       -1.131  -3.608  -2.582  0.00  0.00    +0.180 C 
ATOM     25  C   LIG    1       -2.189  -4.677  -2.954  0.00  0.00    +0.030 C 
ATOM     26  C   LIG    1       -2.853  -4.995  -1.595  0.00  0.00    +0.020 C 
ATOM     27  C   LIG    1       -2.570  -3.766  -0.712  0.00  0.00    +0.170 C 
ENDBRANCH  21  23
ENDBRANCH  15  17
ENDBRANCH   2  15
TORSDOF 5
