REMARK  Name = ZINCrH000004jdFQ.0
REMARK                            x       y       z     vdW  Elec       q    Type
REMARK                         _______ _______ _______ _____ _____    ______ ____
ROOT
ATOM      1  N   LIG    1       -1.620   3.430  -0.559  0.00  0.00    -0.720 N 
ATOM      2  H   LIG    1       -0.834   3.995  -0.489  0.00  0.00    +0.410 HD
ATOM      3  C   LIG    1       -1.507   2.096  -0.408  0.00  0.00    +0.570 C 
ATOM      4  O   LIG    1       -2.491   1.389  -0.495  0.00  0.00    -0.520 OA
ENDROOT
BRANCH   3   5
ATOM      5  C   LIG    1       -0.186   1.493  -0.135  0.00  0.00    -0.190 A 
ATOM      6  C   LIG    1        0.963   2.276  -0.172  0.00  0.00    +0.130 A 
ATOM      7  C   LIG    1        2.194   1.651   0.089  0.00  0.00    -0.110 A 
ATOM      8  C   LIG    1        3.397   2.377   0.071  0.00  0.00    +0.040 A 
ATOM      9  C   LIG    1        4.572   1.739   0.330  0.00  0.00    -0.090 A 
ATOM     10  C   LIG    1        4.597   0.375   0.612  0.00  0.00    +0.050 A 
ATOM     11  C   LIG    1        3.450  -0.359   0.638  0.00  0.00    +0.040 A 
ATOM     12  C   LIG    1        5.862   2.518   0.311  0.00  0.00    +0.090 C 
ATOM     13  C   LIG    1        2.217   0.263   0.377  0.00  0.00    +0.150 A 
ATOM     14  N   LIG    1        1.078  -0.439   0.397  0.00  0.00    -0.480 NA
ATOM     15  C   LIG    1       -0.079   0.122   0.158  0.00  0.00    +0.210 A 
ATOM     16  C   LIG    1       -1.328  -0.721   0.196  0.00  0.00    +0.150 C 
ENDBRANCH   3   5
BRANCH   1  17
ATOM     17  C   LIG    1       -2.930   4.028  -0.830  0.00  0.00    +0.320 C 
BRANCH  17  20
ATOM     18  N   LIG    1       -3.865   6.287  -1.206  0.00  0.00    -0.660 N 
ATOM     19  H   LIG    1       -4.747   5.885  -1.237  0.00  0.00    +0.410 HD
ATOM     20  C   LIG    1       -2.784   5.523  -0.955  0.00  0.00    +0.510 C 
ATOM     21  O   LIG    1       -1.692   6.038  -0.831  0.00  0.00    -0.520 OA
BRANCH  18  27
ATOM     22  C   LIG    1       -4.560   8.325  -2.302  0.00  0.00    -0.100 A 
ATOM     23  C   LIG    1       -4.414   9.682  -2.506  0.00  0.00    +0.030 A 
ATOM     24  C   LIG    1       -3.421  10.380  -1.843  0.00  0.00    -0.010 A 
ATOM     25  C   LIG    1       -2.575   9.723  -0.969  0.00  0.00    +0.020 A 
ATOM     26  C   LIG    1       -2.720   8.366  -0.756  0.00  0.00    +0.020 A 
ATOM     27  C   LIG    1       -3.716   7.662  -1.420  0.00  0.00    +0.140 A 
BRANCH  22  29
ATOM     28  C   LIG    1       -6.881   7.466  -2.143  0.00  0.00    +0.020 C 
ATOM     29  C   LIG    1       -5.638   7.564  -3.030  0.00  0.00    +0.060 C 
ENDBRANCH  22  29
ENDBRANCH  18  27
ENDBRANCH  17  20
ENDBRANCH   1  17
TORSDOF 5
