REMARK  Name = ZINCqH0000003t4k.0
REMARK                            x       y       z     vdW  Elec       q    Type
REMARK                         _______ _______ _______ _____ _____    ______ ____
ROOT
ATOM      1  C   LIG    1       -0.178   1.473   0.035  0.00  0.00    -0.330 A 
ATOM      2  C   LIG    1       -1.299   2.311   0.023  0.00  0.00    +0.440 A 
ATOM      3  N   LIG    1       -1.122   3.619   0.013  0.00  0.00    -0.570 NA
ATOM      4  C   LIG    1        0.096   4.147   0.002  0.00  0.00    +0.360 A 
ATOM      5  N   LIG    1        1.189   3.396   0.006  0.00  0.00    -0.570 NA
ATOM      6  C   LIG    1        1.102   2.071   0.022  0.00  0.00    +0.510 A 
ENDROOT
BRANCH   6   7
ATOM      7  N   LIG    1        2.241   1.294   0.026  0.00  0.00    -0.810 N 
ATOM      8  H   LIG    1        3.113   1.712   0.098  0.00  0.00    +0.410 HD
ATOM      9  H   LIG    1        2.169   0.329  -0.043  0.00  0.00    +0.430 HD
ENDBRANCH   6   7
BRANCH   1  10
ATOM     10  C   LIG    1       -0.328   0.011   0.052  0.00  0.00    +0.540 C 
ATOM     11  O   LIG    1        0.652  -0.702  -0.043  0.00  0.00    -0.520 OA
BRANCH  10  12
ATOM     12  O   LIG    1       -1.552  -0.540   0.175  0.00  0.00    -0.350 OA
BRANCH  12  14
ATOM     13  C   LIG    1       -3.084  -2.426   0.331  0.00  0.00    +0.070 C 
ATOM     14  C   LIG    1       -1.625  -1.990   0.185  0.00  0.00    +0.200 C 
ENDBRANCH  12  14
ENDBRANCH  10  12
ENDBRANCH   1  10
BRANCH   4  15
ATOM     15  S   LIG    1        0.266   5.901  -0.019  0.00  0.00    +0.050 S 
BRANCH  15  16
ATOM     16  C   LIG    1       -1.478   6.386  -0.018  0.00  0.00    +0.200 C 
BRANCH  16  17
ATOM     17  C   LIG    1       -1.581   7.889  -0.035  0.00  0.00    +0.070 A 
ATOM     18  C   LIG    1       -1.634   8.584  -1.176  0.00  0.00    -0.030 A 
ATOM     19  S   LIG    1       -1.750  10.296  -0.774  0.00  0.00    +0.120 S 
ATOM     20  C   LIG    1       -1.714   9.890   0.940  0.00  0.00    +0.120 A 
ATOM     21  N   LIG    1       -1.630   8.597   1.070  0.00  0.00    -0.450 NA
BRANCH  20  22
ATOM     22  C   LIG    1       -1.776  10.862   2.053  0.00  0.00    -0.040 A 
ATOM     23  C   LIG    1       -1.744  10.415   3.375  0.00  0.00    +0.110 A 
ATOM     24  C   LIG    1       -1.797  11.326   4.409  0.00  0.00    -0.010 A 
ATOM     25  C   LIG    1       -1.892  12.682   4.138  0.00  0.00    +0.120 A 
ATOM     26  C   LIG    1       -1.929  13.130   2.827  0.00  0.00    -0.010 A 
ATOM     27  F   LIG    1       -1.949  13.569   5.155  0.00  0.00    -0.130 F 
ATOM     28  C   LIG    1       -1.872  12.228   1.785  0.00  0.00    +0.070 A 
ENDBRANCH  20  22
ENDBRANCH  16  17
ENDBRANCH  15  16
ENDBRANCH   4  15
TORSDOF 8
