REMARK  Name = ZINCrH000004jnQx.0
REMARK                            x       y       z     vdW  Elec       q    Type
REMARK                         _______ _______ _______ _____ _____    ______ ____
ROOT
ATOM      1  N   LIG    1       -5.416   1.228  -1.081  0.00  0.00    -0.480 N 
ATOM      2  C   LIG    1       -6.444   0.408  -0.662  0.00  0.00    +0.100 A 
ATOM      3  C   LIG    1       -7.408  -0.345  -1.318  0.00  0.00    +0.010 A 
ATOM      4  C   LIG    1       -8.322  -1.072  -0.585  0.00  0.00    +0.140 A 
ATOM      5  C   LIG    1       -8.284  -1.055   0.802  0.00  0.00    -0.680 A 
ATOM      6  C   LIG    1       -7.343  -0.319   1.464  0.00  0.00    +0.210 A 
ATOM      7  C   LIG    1       -6.406   0.425   0.743  0.00  0.00    +0.020 A 
ATOM      8  N   LIG    1       -5.376   1.234   1.101  0.00  0.00    -0.450 NA
ATOM      9  C   LIG    1       -4.795   1.700   0.034  0.00  0.00    +0.280 A 
ENDROOT
BRANCH   5  10
ATOM     10  S   LIG    1       -9.462  -1.992   1.718  0.00  0.00    +2.700 S 
ATOM     11  O   LIG    1      -10.583  -2.174   0.863  0.00  0.00    -0.950 OA
ATOM     12  O   LIG    1       -9.552  -1.382   2.998  0.00  0.00    -0.950 OA
BRANCH  10  13
ATOM     13  N   LIG    1       -8.811  -3.495   1.961  0.00  0.00    -1.000 NA
ATOM     14  C   LIG    1       -9.046  -4.562   0.985  0.00  0.00    +0.310 C 
ATOM     15  C   LIG    1       -7.999  -3.758   3.152  0.00  0.00    +0.300 C 
ENDBRANCH  10  13
ENDBRANCH   5  10
BRANCH   1  17
ATOM     16  C   LIG    1       -4.040   0.504  -2.969  0.00  0.00    +0.040 C 
ATOM     17  C   LIG    1       -5.057   1.532  -2.469  0.00  0.00    +0.300 C 
ENDBRANCH   1  17
BRANCH   9  18
ATOM     18  C   LIG    1       -3.612   2.633   0.033  0.00  0.00    +0.340 C 
BRANCH  18  19
ATOM     19  O   LIG    1       -2.404   1.870   0.024  0.00  0.00    -0.290 OA
BRANCH  19  20
ATOM     20  C   LIG    1       -1.235   2.565   0.022  0.00  0.00    +0.150 A 
ATOM     21  C   LIG    1       -1.251   3.951   0.035  0.00  0.00    -0.020 A 
ATOM     22  C   LIG    1       -0.063   4.656   0.028  0.00  0.00    +0.060 A 
ATOM     23  C   LIG    1        1.145   3.979   0.013  0.00  0.00    +0.070 A 
ATOM     24  C   LIG    1        1.163   2.594   0.005  0.00  0.00    +0.060 A 
ATOM     25  F   LIG    1        2.306   4.670   0.006  0.00  0.00    -0.130 F 
ATOM     26  C   LIG    1       -0.024   1.887   0.012  0.00  0.00    -0.100 A 
ATOM     27 BR   LIG    1        0.002  -0.004   0.002  0.00  0.00    -0.020 Br
ENDBRANCH  19  20
ENDBRANCH  18  19
ENDBRANCH   9  18
TORSDOF 6
