REMARK  Name = ZINCrD000000CTaj.0
REMARK                            x       y       z     vdW  Elec       q    Type
REMARK                         _______ _______ _______ _____ _____    ______ ____
ROOT
ATOM      1  C   LIG    1        0.002  -0.004   0.002  0.00  0.00    +0.150 A 
ATOM      2  C   LIG    1        1.099  -0.496  -0.694  0.00  0.00    +0.060 A 
ATOM      3  C   LIG    1        2.289   0.207  -0.705  0.00  0.00    +0.030 A 
ATOM      4  C   LIG    1        2.396   1.403  -0.025  0.00  0.00    +0.090 A 
ATOM      5  C   LIG    1        1.299   1.906   0.678  0.00  0.00    -0.030 A 
ATOM      6  C   LIG    1        0.099   1.196   0.689  0.00  0.00    +0.070 A 
ENDROOT
BRANCH   1  14
ATOM      7  O   LIG    1       -0.552  -1.814   1.806  0.00  0.00    -0.580 OA
ATOM      8  C   LIG    1       -1.412  -1.638   0.965  0.00  0.00    +0.710 C 
ATOM      9  N   LIG    1       -2.535  -2.369   1.029  0.00  0.00    -0.730 N 
ATOM     10  H   LIG    1       -2.635  -3.025   1.736  0.00  0.00    +0.420 HD
ATOM     11  C   LIG    1       -3.613  -2.196   0.054  0.00  0.00    +0.270 C 
ATOM     12  C   LIG    1       -3.016  -1.726  -1.277  0.00  0.00    +0.030 C 
ATOM     13  C   LIG    1       -2.204  -0.449  -1.020  0.00  0.00    +0.270 C 
ATOM     14  N   LIG    1       -1.200  -0.720   0.010  0.00  0.00    -0.590 N 
ENDBRANCH   1  14
BRANCH   5  15
ATOM     15  C   LIG    1        1.410   3.187   1.408  0.00  0.00    +0.240 A 
ATOM     16  N   LIG    1        2.479   3.959   1.489  0.00  0.00    -0.460 NA
ATOM     17  C   LIG    1        2.111   5.004   2.246  0.00  0.00    +0.170 A 
ATOM     18  N   LIG    1        0.870   4.824   2.590  0.00  0.00    -0.360 NA
ATOM     19  O   LIG    1        0.446   3.789   2.122  0.00  0.00    +0.100 OA
BRANCH  17  20
ATOM     20  C   LIG    1        2.981   6.172   2.633  0.00  0.00    +0.360 C 
BRANCH  20  21
ATOM     21  O   LIG    1        3.658   5.878   3.856  0.00  0.00    -0.310 OA
BRANCH  21  22
ATOM     22  C   LIG    1        4.489   6.835   4.347  0.00  0.00    +0.120 A 
ATOM     23  C   LIG    1        4.653   8.030   3.662  0.00  0.00    -0.040 A 
ATOM     24  C   LIG    1        5.495   9.004   4.165  0.00  0.00    +0.030 A 
ATOM     25  C   LIG    1        6.181   8.784   5.347  0.00  0.00    +0.060 A 
ATOM     26  C   LIG    1        6.022   7.589   6.029  0.00  0.00    +0.040 A 
ATOM     27  F   LIG    1        7.008   9.735   5.835  0.00  0.00    -0.140 F 
ATOM     28  C   LIG    1        5.178   6.616   5.531  0.00  0.00    +0.020 A 
ENDBRANCH  21  22
ENDBRANCH  20  21
ENDBRANCH  17  20
ENDBRANCH   5  15
TORSDOF 5
