REMARK  Name = ZINCrH000004tWUR.0
REMARK                            x       y       z     vdW  Elec       q    Type
REMARK                         _______ _______ _______ _____ _____    ______ ____
ROOT
ATOM      1  O   LIG    1        4.865   7.889   2.731  0.00  0.00    -0.530 OA
ATOM      2  C   LIG    1        5.604   7.824   1.772  0.00  0.00    +0.510 C 
ATOM      3  N   LIG    1        5.268   7.061   0.713  0.00  0.00    -0.730 N 
ATOM      4  H   LIG    1        5.859   7.008  -0.054  0.00  0.00    +0.400 HD
ENDROOT
BRANCH   3   5
ATOM      5  C   LIG    1        4.009   6.311   0.720  0.00  0.00    +0.240 C 
ATOM      6  C   LIG    1        3.558   6.058  -0.720  0.00  0.00    +0.030 C 
ATOM      7  C   LIG    1        2.243   5.275  -0.712  0.00  0.00    +0.060 C 
ATOM      8  C   LIG    1        2.451   3.937   0.000  0.00  0.00    +0.180 C 
ATOM      9  C   LIG    1        2.902   4.190   1.440  0.00  0.00    +0.010 C 
ATOM     10  C   LIG    1        4.217   4.973   1.432  0.00  0.00    +0.020 C 
BRANCH   8  11
ATOM     11  C   LIG    1        1.156   3.165   0.008  0.00  0.00    -0.110 A 
ATOM     12  C   LIG    1        1.175   1.783   0.000  0.00  0.00    +0.010 A 
ATOM     13  C   LIG    1       -0.013   1.076   0.008  0.00  0.00    +0.000 A 
ATOM     14  C   LIG    1       -1.219   1.751   0.017  0.00  0.00    +0.000 A 
ATOM     15  C   LIG    1       -1.238   3.133   0.029  0.00  0.00    +0.000 A 
ATOM     16  C   LIG    1       -0.050   3.840   0.022  0.00  0.00    +0.020 A 
ENDBRANCH   8  11
BRANCH   8  17
ATOM     17  O   LIG    1        3.451   3.182  -0.687  0.00  0.00    -0.550 OA
ATOM     18  H   LIG    1        3.635   2.319  -0.289  0.00  0.00    +0.370 HD
ENDBRANCH   8  17
ENDBRANCH   3   5
BRANCH   2  19
ATOM     19  C   LIG    1        6.899   8.595   1.764  0.00  0.00    +0.120 C 
BRANCH  19  20
ATOM     20  C   LIG    1        7.035   9.361   3.054  0.00  0.00    -0.030 A 
ATOM     21  C   LIG    1        6.542  10.649   3.148  0.00  0.00    +0.000 A 
ATOM     22  C   LIG    1        6.662  11.353   4.333  0.00  0.00    +0.050 A 
ATOM     23  C   LIG    1        7.282  10.774   5.422  0.00  0.00    -0.060 A 
ATOM     24  C   LIG    1        7.782   9.482   5.329  0.00  0.00    +0.110 A 
ATOM     25  C   LIG    1        7.657   8.777   4.141  0.00  0.00    +0.010 A 
BRANCH  24  26
ATOM     26  O   LIG    1        8.394   8.911   6.399  0.00  0.00    -0.320 OA
BRANCH  26  27
ATOM     27  C   LIG    1        8.488   9.696   7.589  0.00  0.00    +0.590 C 
ATOM     28  F   LIG    1        7.202  10.034   8.027  0.00  0.00    -0.200 F 
ATOM     29  F   LIG    1        9.211  10.863   7.322  0.00  0.00    -0.200 F 
ENDBRANCH  26  27
ENDBRANCH  24  26
ENDBRANCH  19  20
ENDBRANCH   2  19
TORSDOF 7
