REMARK  Name = ZINCrH000004jo6d.0
REMARK                            x       y       z     vdW  Elec       q    Type
REMARK                         _______ _______ _______ _____ _____    ______ ____
ROOT
ATOM      1  C   LIG    1        0.002  -0.004   0.002  0.00  0.00    +0.040 C 
ENDROOT
BRANCH   1   2
ATOM      2  C   LIG    1        0.622  -0.505   1.281  0.00  0.00    -0.090 A 
ATOM      3  C   LIG    1        0.052  -0.181   2.498  0.00  0.00    +0.040 A 
ATOM      4  C   LIG    1        0.618  -0.644   3.671  0.00  0.00    +0.000 A 
ATOM      5  C   LIG    1        1.758  -1.424   3.628  0.00  0.00    +0.010 A 
ATOM      6  C   LIG    1        2.331  -1.744   2.411  0.00  0.00    +0.000 A 
ATOM      7  C   LIG    1        1.763  -1.284   1.238  0.00  0.00    +0.040 A 
ENDBRANCH   1   2
BRANCH   1   8
ATOM      8  C   LIG    1       -1.407  -0.525  -0.111  0.00  0.00    +0.460 C 
ATOM      9  O   LIG    1       -2.339   0.157   0.267  0.00  0.00    -0.450 OA
BRANCH   8  10
ATOM     10  C   LIG    1       -1.646  -1.810  -0.658  0.00  0.00    -0.270 A 
ATOM     11  C   LIG    1       -0.703  -2.696  -1.134  0.00  0.00    +0.330 A 
ATOM     12  N   LIG    1       -1.312  -3.815  -1.570  0.00  0.00    -0.560 N 
ATOM     13  H   LIG    1       -0.853  -4.582  -1.947  0.00  0.00    +0.420 HD
ATOM     14  C   LIG    1       -2.680  -3.718  -1.415  0.00  0.00    +0.070 A 
ATOM     15  C   LIG    1       -3.732  -4.580  -1.708  0.00  0.00    +0.000 A 
ATOM     16  C   LIG    1       -5.029  -4.200  -1.434  0.00  0.00    +0.030 A 
ATOM     17  C   LIG    1       -5.298  -2.964  -0.866  0.00  0.00    +0.000 A 
ATOM     18  C   LIG    1       -4.269  -2.097  -0.568  0.00  0.00    +0.060 A 
ATOM     19  C   LIG    1       -2.956  -2.467  -0.840  0.00  0.00    -0.050 A 
ENDBRANCH   8  10
ENDBRANCH   1   8
BRANCH   1  20
ATOM     20  S   LIG    1       -0.022   1.806   0.012  0.00  0.00    +0.090 S 
BRANCH  20  27
ATOM     21  N   LIG    1        2.288   3.384  -0.007  0.00  0.00    -0.530 N 
ATOM     22  C   LIG    1        3.627   3.230  -0.015  0.00  0.00    +0.650 A 
ATOM     23  N   LIG    1        3.885   1.906  -0.025  0.00  0.00    -0.540 N 
ATOM     24  H   LIG    1        4.762   1.492  -0.036  0.00  0.00    +0.460 HD
ATOM     25  N   LIG    1        2.652   1.238  -0.017  0.00  0.00    -0.270 NA
ATOM     26  O   LIG    1        4.454   4.124  -0.018  0.00  0.00    -0.550 OA
ATOM     27  C   LIG    1        1.708   2.135  -0.003  0.00  0.00    +0.240 A 
BRANCH  21  29
ATOM     28  C   LIG    1        1.335   5.106   1.445  0.00  0.00    +0.040 C 
ATOM     29  C   LIG    1        1.572   4.662  -0.000  0.00  0.00    +0.320 C 
ENDBRANCH  21  29
ENDBRANCH  20  27
ENDBRANCH   1  20
TORSDOF 6
