REMARK  Name = ZINCrH00000tj19d.0
REMARK                            x       y       z     vdW  Elec       q    Type
REMARK                         _______ _______ _______ _____ _____    ______ ____
ROOT
ATOM      1  C   LIG    1        1.290  -5.576  -1.628  0.00  0.00    +0.140 C 
ATOM      2  N   LIG    1        0.053  -5.530  -1.986  0.00  0.00    -0.230 NA
ATOM      3  N   LIG    1       -0.762  -4.799  -1.124  0.00  0.00    -0.460 N 
ATOM      4  C   LIG    1        0.060  -4.275  -0.021  0.00  0.00    +0.250 C 
ATOM      5  C   LIG    1       -2.086  -4.602  -1.276  0.00  0.00    +0.550 C 
ATOM      6  O   LIG    1       -2.700  -3.945  -0.462  0.00  0.00    -0.510 OA
ATOM      7  C   LIG    1       -2.806  -5.199  -2.458  0.00  0.00    +0.120 C 
ATOM      8  C   LIG    1        1.475  -4.796  -0.342  0.00  0.00    +0.100 C 
ENDROOT
BRANCH   4   9
ATOM      9  C   LIG    1        0.039  -2.768  -0.013  0.00  0.00    -0.100 A 
ATOM     10  C   LIG    1        0.041  -2.084   1.188  0.00  0.00    +0.020 A 
ATOM     11  C   LIG    1        0.023  -0.702   1.195  0.00  0.00    +0.010 A 
ATOM     12  C   LIG    1        0.002  -0.004   0.002  0.00  0.00    -0.080 A 
ATOM     13  C   LIG    1       -0.006  -0.689  -1.199  0.00  0.00    +0.000 A 
ATOM     14  C   LIG    1       -0.018   1.503   0.010  0.00  0.00    +0.090 C 
ATOM     15  C   LIG    1        0.018  -2.071  -1.206  0.00  0.00    +0.010 A 
ENDBRANCH   4   9
BRANCH   1  18
ATOM     16  C   LIG    1        3.076  -7.628  -4.218  0.00  0.00    +0.150 A 
ATOM     17  C   LIG    1        2.069  -6.969  -3.536  0.00  0.00    -0.040 A 
ATOM     18  C   LIG    1        2.361  -6.279  -2.357  0.00  0.00    +0.040 A 
ATOM     19  C   LIG    1        3.671  -6.253  -1.873  0.00  0.00    -0.060 A 
ATOM     20  C   LIG    1        4.673  -6.918  -2.557  0.00  0.00    +0.150 A 
ATOM     21  C   LIG    1        4.379  -7.604  -3.732  0.00  0.00    +0.050 A 
BRANCH  16  23
ATOM     22  C   LIG    1        1.433  -8.283  -5.809  0.00  0.00    +0.250 C 
ATOM     23  O   LIG    1        2.792  -8.300  -5.367  0.00  0.00    -0.300 OA
ENDBRANCH  16  23
BRANCH  20  24
ATOM     24  O   LIG    1        5.948  -6.896  -2.085  0.00  0.00    -0.300 OA
ATOM     25  C   LIG    1        6.179  -6.173  -0.874  0.00  0.00    +0.250 C 
ENDBRANCH  20  24
BRANCH  21  26
ATOM     26  O   LIG    1        5.367  -8.252  -4.405  0.00  0.00    -0.310 OA
ATOM     27  C   LIG    1        6.071  -7.506  -5.401  0.00  0.00    +0.230 C 
ENDBRANCH  21  26
ENDBRANCH   1  18
TORSDOF 5
