REMARK  Name = ZINCpk00000ebclv.0
REMARK                            x       y       z     vdW  Elec       q    Type
REMARK                         _______ _______ _______ _____ _____    ______ ____
ROOT
ATOM      1  N   LIG    1       -2.684  -1.994  -1.649  0.00  0.00    -0.730 N 
ATOM      2  H   LIG    1       -3.181  -2.375  -0.908  0.00  0.00    +0.400 HD
ATOM      3  C   LIG    1       -1.621  -1.201  -1.409  0.00  0.00    +0.520 C 
ATOM      4  O   LIG    1       -0.999  -0.724  -2.334  0.00  0.00    -0.520 OA
ENDROOT
BRANCH   1  12
ATOM      5  C   LIG    1       -7.455  -2.909  -4.344  0.00  0.00    +0.200 C 
ATOM      6  C   LIG    1       -6.128  -3.264  -4.964  0.00  0.00    +0.180 A 
ATOM      7  N   LIG    1       -5.935  -3.755  -6.162  0.00  0.00    -0.290 NA
ATOM      8  N   LIG    1       -4.675  -3.937  -6.360  0.00  0.00    -0.290 NA
ATOM      9  C   LIG    1       -4.013  -3.573  -5.304  0.00  0.00    +0.180 A 
ATOM     10  C   LIG    1       -2.523  -3.605  -5.071  0.00  0.00    +0.180 C 
ATOM     11  C   LIG    1       -2.272  -3.458  -3.564  0.00  0.00    +0.020 C 
ATOM     12  C   LIG    1       -3.088  -2.279  -3.027  0.00  0.00    +0.240 C 
ATOM     13  C   LIG    1       -4.580  -2.631  -3.059  0.00  0.00    +0.300 C 
ATOM     14  N   LIG    1       -4.916  -3.135  -4.391  0.00  0.00    -0.470 N 
ENDBRANCH   1  12
BRANCH   3  15
ATOM     15  C   LIG    1       -1.204  -0.907   0.009  0.00  0.00    +0.150 C 
BRANCH  15  16
ATOM     16  C   LIG    1        0.002  -0.004   0.002  0.00  0.00    -0.220 A 
ATOM     17  C   LIG    1        1.295  -0.403  -0.013  0.00  0.00    +0.250 A 
ATOM     18  N   LIG    1        2.068   0.706  -0.014  0.00  0.00    -0.320 N 
ATOM     19  N   LIG    1        1.220   1.822   0.000  0.00  0.00    -0.290 NA
ATOM     20  C   LIG    1       -0.017   1.395   0.010  0.00  0.00    +0.260 A 
BRANCH  18  21
ATOM     21  C   LIG    1        3.470   0.736  -0.026  0.00  0.00    +0.160 A 
ATOM     22  C   LIG    1        4.190  -0.451  -0.033  0.00  0.00    -0.010 A 
ATOM     23  C   LIG    1        5.571  -0.419  -0.050  0.00  0.00    +0.040 A 
ATOM     24  C   LIG    1        6.236   0.793  -0.050  0.00  0.00    +0.000 A 
ATOM     25  C   LIG    1        5.521   1.977  -0.038  0.00  0.00    +0.040 A 
ATOM     26  C   LIG    1        4.140   1.951  -0.026  0.00  0.00    +0.020 A 
ENDBRANCH  18  21
ENDBRANCH  15  16
ENDBRANCH   3  15
TORSDOF 4
