REMARK  Name = ZINCpe000000XmBY.0
REMARK                            x       y       z     vdW  Elec       q    Type
REMARK                         _______ _______ _______ _____ _____    ______ ____
ROOT
ATOM      1  C   LIG    1        3.016  -0.555  -1.818  0.00  0.00    +0.440 A 
ATOM      2  N   LIG    1        3.109   0.745  -2.032  0.00  0.00    -0.600 NA
ATOM      3  C   LIG    1        2.018   1.456  -2.309  0.00  0.00    +0.620 A 
ATOM      4  N   LIG    1        0.834   0.856  -2.369  0.00  0.00    -0.640 NA
ATOM      5  C   LIG    1        0.745  -0.452  -2.153  0.00  0.00    +0.630 A 
ATOM      6  N   LIG    1        1.840  -1.156  -1.877  0.00  0.00    -0.630 NA
ENDROOT
BRANCH   3   7
ATOM      7  N   LIG    1        2.116   2.814  -2.533  0.00  0.00    -0.800 N 
ATOM      8  H   LIG    1        2.981   3.251  -2.489  0.00  0.00    +0.420 HD
ATOM      9  H   LIG    1        1.321   3.331  -2.735  0.00  0.00    +0.420 HD
ENDBRANCH   3   7
BRANCH   1  11
ATOM     10  C   LIG    1        5.082  -1.533  -2.779  0.00  0.00    +0.060 C 
ATOM     11  C   LIG    1        4.254  -1.356  -1.505  0.00  0.00    +0.220 C 
BRANCH  11  12
ATOM     12  N   LIG    1        5.053  -0.648  -0.496  0.00  0.00    -0.520 NA
ATOM     13  C   LIG    1        6.275  -1.397  -0.172  0.00  0.00    +0.200 C 
ATOM     14  C   LIG    1        7.117  -0.591   0.820  0.00  0.00    +0.180 C 
ATOM     15  N   LIG    1        6.325  -0.331   2.031  0.00  0.00    -0.530 NA
ATOM     16  C   LIG    1        5.103   0.418   1.707  0.00  0.00    +0.180 C 
ATOM     17  C   LIG    1        4.262  -0.388   0.715  0.00  0.00    +0.170 C 
BRANCH  15  18
ATOM     18  C   LIG    1        7.125   0.377   3.040  0.00  0.00    +0.180 C 
BRANCH  18  19
ATOM     19  C   LIG    1        6.473   0.213   4.414  0.00  0.00    +0.170 C 
BRANCH  19  20
ATOM     20  O   LIG    1        6.501  -1.165   4.793  0.00  0.00    -0.560 OA
ATOM     21  H   LIG    1        6.103  -1.343   5.656  0.00  0.00    +0.370 HD
ENDBRANCH  19  20
ENDBRANCH  18  19
ENDBRANCH  15  18
ENDBRANCH  11  12
ENDBRANCH   1  11
BRANCH   5  22
ATOM     22  N   LIG    1       -0.484  -1.081  -2.214  0.00  0.00    -0.630 N 
ATOM     23  H   LIG    1       -0.541  -2.044  -2.116  0.00  0.00    +0.430 HD
BRANCH  22  24
ATOM     24  C   LIG    1       -1.645  -0.328  -2.417  0.00  0.00    +0.160 A 
ATOM     25  C   LIG    1       -1.749   0.949  -1.881  0.00  0.00    +0.020 A 
ATOM     26  C   LIG    1       -2.895   1.692  -2.087  0.00  0.00    +0.020 A 
ATOM     27  C   LIG    1       -3.942   1.161  -2.817  0.00  0.00    -0.020 A 
ATOM     28  C   LIG    1       -3.844  -0.113  -3.347  0.00  0.00    +0.030 A 
ATOM     29  C   LIG    1       -2.699  -0.858  -3.149  0.00  0.00    -0.020 A 
ENDBRANCH  22  24
ENDBRANCH   5  22
TORSDOF 8
