REMARK  Name = ZINCkj000018RBm1.0
REMARK                            x       y       z     vdW  Elec       q    Type
REMARK                         _______ _______ _______ _____ _____    ______ ____
ROOT
ATOM      1  C   LIG    1       -1.538  -2.365   1.013  0.00  0.00    -0.030 A 
ATOM      2  C   LIG    1       -1.021  -1.115   1.026  0.00  0.00    +0.160 A 
ATOM      3  N   LIG    1       -1.858  -0.368   1.782  0.00  0.00    -0.320 N 
ATOM      4  N   LIG    1       -2.817  -1.123   2.188  0.00  0.00    -0.070 NA
ATOM      5  N   LIG    1       -2.656  -2.321   1.747  0.00  0.00    -0.230 NA
ENDROOT
BRANCH   1   6
ATOM      6  C   LIG    1       -0.970  -3.569   0.308  0.00  0.00    +0.200 C 
ATOM      7  C   LIG    1       -0.992  -3.334  -1.206  0.00  0.00    +0.030 C 
ATOM      8  C   LIG    1       -0.488  -4.593  -1.917  0.00  0.00    +0.220 C 
ATOM      9  O   LIG    1       -1.301  -5.708  -1.545  0.00  0.00    -0.380 OA
ATOM     10  C   LIG    1       -1.281  -6.004  -0.147  0.00  0.00    +0.220 C 
ATOM     11  C   LIG    1       -1.818  -4.803   0.635  0.00  0.00    -0.000 C 
BRANCH   6  13
ATOM     12  C   LIG    1        0.514  -3.942   2.152  0.00  0.00    +0.200 C 
ATOM     13  O   LIG    1        0.375  -3.786   0.739  0.00  0.00    -0.360 OA
ENDBRANCH   6  13
ENDBRANCH   1   6
BRANCH   3  14
ATOM     14  C   LIG    1       -1.702   1.058   2.082  0.00  0.00    +0.270 C 
ATOM     15  C   LIG    1       -2.917   1.825   1.557  0.00  0.00    +0.060 C 
ATOM     16  C   LIG    1       -4.184   1.298   2.231  0.00  0.00    +0.030 C 
ATOM     17  C   LIG    1       -4.075   1.491   3.745  0.00  0.00    +0.050 C 
ATOM     18  C   LIG    1       -2.860   0.724   4.271  0.00  0.00    +0.050 C 
ATOM     19  C   LIG    1       -1.593   1.251   3.596  0.00  0.00    +0.190 C 
BRANCH  19  20
ATOM     20  N   LIG    1       -0.426   0.514   4.101  0.00  0.00    -0.640 N 
ATOM     21  H   LIG    1       -0.354   0.642   5.099  0.00  0.00    +0.440 HD
ATOM     22  H   LIG    1        0.410   0.862   3.656  0.00  0.00    +0.440 HD
ATOM     23  H   LIG    1       -0.534  -0.468   3.894  0.00  0.00    +0.430 HD
ENDBRANCH  19  20
ENDBRANCH   3  14
TORSDOF 4
