REMARK  Name = ZINCpe00000MEppg.0
REMARK                            x       y       z     vdW  Elec       q    Type
REMARK                         _______ _______ _______ _____ _____    ______ ____
ROOT
ATOM      1  N   LIG    1       -0.840   5.641  -3.913  0.00  0.00    -0.560 N 
ATOM      2  C   LIG    1        0.181   5.808  -4.760  0.00  0.00    +0.710 C 
ATOM      3  N   LIG    1       -0.222   6.221  -5.976  0.00  0.00    -0.720 N 
ATOM      4  H   LIG    1        0.343   6.404  -6.742  0.00  0.00    +0.440 HD
ATOM      5  C   LIG    1       -1.688   6.349  -5.912  0.00  0.00    +0.170 C 
ATOM      6  C   LIG    1       -2.115   7.795  -6.170  0.00  0.00    +0.110 C 
ATOM      7  O   LIG    1        1.343   5.606  -4.467  0.00  0.00    -0.530 OA
ATOM      8  C   LIG    1       -2.021   5.939  -4.491  0.00  0.00    +0.540 C 
ATOM      9  O   LIG    1       -3.119   5.891  -3.981  0.00  0.00    -0.440 OA
ENDROOT
BRANCH   5  10
ATOM     10  C   LIG    1       -2.344   5.418  -6.899  0.00  0.00    -0.110 A 
ATOM     11  C   LIG    1       -1.570   4.691  -7.784  0.00  0.00    +0.050 A 
ATOM     12  C   LIG    1       -2.173   3.836  -8.690  0.00  0.00    +0.090 A 
ATOM     13  C   LIG    1       -3.551   3.708  -8.711  0.00  0.00    +0.040 A 
ATOM     14  C   LIG    1       -4.325   4.434  -7.826  0.00  0.00    +0.030 A 
ATOM     15  F   LIG    1       -1.416   3.126  -9.555  0.00  0.00    -0.130 F 
ATOM     16  C   LIG    1       -3.723   5.285  -6.916  0.00  0.00    +0.120 A 
ATOM     17  F   LIG    1       -4.479   5.991  -6.047  0.00  0.00    -0.110 F 
ENDBRANCH   5  10
BRANCH   1  18
ATOM     18  C   LIG    1       -0.694   5.195  -2.525  0.00  0.00    +0.360 C 
BRANCH  18  21
ATOM     19  N   LIG    1       -0.670   3.054  -1.286  0.00  0.00    -0.720 N 
ATOM     20  H   LIG    1       -0.536   3.563  -0.471  0.00  0.00    +0.410 HD
ATOM     21  C   LIG    1       -0.779   3.692  -2.469  0.00  0.00    +0.500 C 
ATOM     22  O   LIG    1       -0.946   3.055  -3.487  0.00  0.00    -0.530 OA
BRANCH  19  23
ATOM     23  C   LIG    1       -0.753   1.593  -1.232  0.00  0.00    +0.250 C 
ATOM     24  C   LIG    1       -2.221   1.167  -1.159  0.00  0.00    +0.040 C 
BRANCH  23  25
ATOM     25  C   LIG    1       -0.013   1.086   0.008  0.00  0.00    +0.180 C 
BRANCH  25  27
ATOM     26  C   LIG    1       -0.068   1.127   2.404  0.00  0.00    +0.200 C 
ATOM     27  O   LIG    1       -0.682   1.547   1.184  0.00  0.00    -0.390 OA
ENDBRANCH  25  27
ENDBRANCH  23  25
ENDBRANCH  19  23
ENDBRANCH  18  21
ENDBRANCH   1  18
TORSDOF 6
