REMARK  Name = ZINCkj000005iIL7.0
REMARK                            x       y       z     vdW  Elec       q    Type
REMARK                         _______ _______ _______ _____ _____    ______ ____
ROOT
ATOM      1  C   LIG    1       -1.330   1.944   0.019  0.00  0.00    +0.060 C 
ENDROOT
BRANCH   1   2
ATOM      2  C   LIG    1       -0.014   1.209   0.009  0.00  0.00    +0.520 C 
ATOM      3  N   LIG    1        1.143   1.898   0.001  0.00  0.00    -0.740 N 
ATOM      4  H   LIG    1        1.130   2.868   0.007  0.00  0.00    +0.410 HD
ATOM      5  O   LIG    1        0.002  -0.004   0.002  0.00  0.00    -0.510 OA
BRANCH   3   6
ATOM      6  C   LIG    1        2.422   1.183  -0.015  0.00  0.00    +0.260 C 
ATOM      7  C   LIG    1        2.895   0.898   1.429  0.00  0.00    +0.060 C 
ATOM      8  C   LIG    1        4.424   1.135   1.346  0.00  0.00    +0.280 C 
ATOM      9  N   LIG    1        4.538   2.291   0.420  0.00  0.00    -0.520 N 
ATOM     10  H   LIG    1        4.348   3.151   0.911  0.00  0.00    +0.430 HD
ATOM     11  H   LIG    1        5.460   2.320   0.011  0.00  0.00    +0.440 HD
ATOM     12  C   LIG    1        3.522   2.068  -0.631  0.00  0.00    +0.270 C 
ENDBRANCH   3   6
ENDBRANCH   1   2
BRANCH   1  13
ATOM     13  C   LIG    1       -2.479   0.934   0.019  0.00  0.00    +0.050 C 
BRANCH  13  14
ATOM     14  C   LIG    1       -3.814   1.681   0.029  0.00  0.00    +0.180 C 
BRANCH  14  15
ATOM     15  O   LIG    1       -4.888   0.738   0.029  0.00  0.00    -0.310 OA
BRANCH  15  19
ATOM     16  C   LIG    1       -8.723   2.264   0.056  0.00  0.00    +0.100 A 
ATOM     17  C   LIG    1       -8.523   0.891   0.048  0.00  0.00    +0.030 A 
ATOM     18  C   LIG    1       -7.239   0.381   0.038  0.00  0.00    +0.030 A 
ATOM     19  C   LIG    1       -6.151   1.241   0.038  0.00  0.00    +0.090 A 
ATOM     20  C   LIG    1       -6.351   2.613   0.052  0.00  0.00    -0.040 A 
ATOM     21  C   LIG    1       -7.635   3.124   0.056  0.00  0.00    -0.040 A 
BRANCH  16  23
ATOM     22  C   LIG    1      -10.119   4.189   0.073  0.00  0.00    +0.230 C 
ATOM     23  O   LIG    1       -9.987   2.766   0.065  0.00  0.00    -0.320 OA
ENDBRANCH  16  23
ENDBRANCH  15  19
ENDBRANCH  14  15
ENDBRANCH  13  14
ENDBRANCH   1  13
TORSDOF 7
