REMARK  Name = ZINCpk000000mEEV.0
REMARK                            x       y       z     vdW  Elec       q    Type
REMARK                         _______ _______ _______ _____ _____    ______ ____
ROOT
ATOM      1  N   LIG    1        5.685   4.472  -0.032  0.00  0.00    -0.720 N 
ATOM      2  H   LIG    1        5.983   3.549  -0.033  0.00  0.00    +0.410 HD
ATOM      3  C   LIG    1        4.367   4.753  -0.025  0.00  0.00    +0.690 C 
ATOM      4  O   LIG    1        3.991   5.913  -0.025  0.00  0.00    -0.610 OA
ENDROOT
BRANCH   3   5
ATOM      5  N   LIG    1        3.472   3.763  -0.017  0.00  0.00    -0.680 NA
ATOM      6  C   LIG    1        2.168   4.041  -0.009  0.00  0.00    +0.530 C 
ATOM      7  N   LIG    1        1.617   5.271  -0.008  0.00  0.00    -0.330 NA
ATOM      8  N   LIG    1        0.225   5.114   0.001  0.00  0.00    -0.410 NA
ATOM      9  C   LIG    1       -0.043   3.828   0.005  0.00  0.00    +0.340 C 
ATOM     10  C   LIG    1       -1.268   3.115   0.013  0.00  0.00    +0.010 C 
ATOM     11  C   LIG    1       -1.246   1.759   0.010  0.00  0.00    +0.160 C 
ATOM     12  C   LIG    1       -0.013   1.077   0.010  0.00  0.00    -0.010 C 
ATOM     13  C   LIG    1        1.146   1.760   0.002  0.00  0.00    +0.340 C 
ATOM     14  H   LIG    1       -0.428   5.831   0.004  0.00  0.00    +0.460 HD
ATOM     15  N   LIG    1        1.150   3.132  -0.001  0.00  0.00    -0.400 N 
ENDBRANCH   3   5
BRANCH   1  16
ATOM     16  C   LIG    1        6.666   5.560  -0.041  0.00  0.00    +0.330 C 
BRANCH  16  19
ATOM     17  N   LIG    1        9.128   5.800  -0.057  0.00  0.00    -0.670 N 
ATOM     18  H   LIG    1        9.004   6.759  -0.126  0.00  0.00    +0.420 HD
ATOM     19  C   LIG    1        8.057   4.981  -0.048  0.00  0.00    +0.510 C 
ATOM     20  O   LIG    1        8.214   3.778  -0.047  0.00  0.00    -0.510 OA
BRANCH  17  25
ATOM     21  C   LIG    1       11.996   3.522  -0.473  0.00  0.00    +0.030 A 
ATOM     22  C   LIG    1       12.983   4.220   0.223  0.00  0.00    +0.020 A 
ATOM     23  C   LIG    1       12.684   5.430   0.817  0.00  0.00    +0.030 A 
ATOM     24  C   LIG    1       11.410   5.956   0.720  0.00  0.00    +0.000 A 
ATOM     25  C   LIG    1       10.418   5.265   0.034  0.00  0.00    +0.140 A 
ATOM     26  C   LIG    1       10.709   4.050  -0.566  0.00  0.00    +0.040 A 
BRANCH  21  28
ATOM     27  C   LIG    1       12.556   1.238  -1.597  0.00  0.00    +0.060 C 
ATOM     28  C   LIG    1       12.304   2.267  -1.091  0.00  0.00    -0.150 C 
ENDBRANCH  21  28
ENDBRANCH  17  25
ENDBRANCH  16  19
ENDBRANCH   1  16
TORSDOF 5
