REMARK  Name = ZINCrH000004mTxl.2
REMARK                            x       y       z     vdW  Elec       q    Type
REMARK                         _______ _______ _______ _____ _____    ______ ____
ROOT
ATOM      1  N   LIG    1        7.135   4.785  -0.615  0.00  0.00    -0.660 N 
ATOM      2  H   LIG    1        7.596   4.283   0.074  0.00  0.00    +0.420 HD
ATOM      3  C   LIG    1        5.905   4.407  -1.016  0.00  0.00    +0.510 C 
ATOM      4  O   LIG    1        5.285   5.094  -1.800  0.00  0.00    -0.480 OA
ENDROOT
BRANCH   1   9
ATOM      5  C   LIG    1        7.907   7.497  -2.984  0.00  0.00    +0.120 A 
ATOM      6  C   LIG    1        8.961   8.121  -2.335  0.00  0.00    -0.060 A 
ATOM      7  C   LIG    1        9.409   7.641  -1.118  0.00  0.00    -0.020 A 
ATOM      8  C   LIG    1        8.806   6.535  -0.544  0.00  0.00    +0.060 A 
ATOM      9  C   LIG    1        7.747   5.905  -1.193  0.00  0.00    +0.170 A 
ATOM     10  C   LIG    1        7.302   6.385  -2.416  0.00  0.00    +0.030 A 
BRANCH   5  12
ATOM     11  C   LIG    1        8.140   9.117  -4.709  0.00  0.00    +0.230 C 
ATOM     12  O   LIG    1        7.468   7.972  -4.180  0.00  0.00    -0.310 OA
ENDBRANCH   5  12
BRANCH   8  13
ATOM     13  O   LIG    1        9.247   6.064   0.654  0.00  0.00    -0.320 OA
ATOM     14  C   LIG    1       10.337   6.758   1.262  0.00  0.00    +0.240 C 
ENDBRANCH   8  13
ENDBRANCH   1   9
BRANCH   3  15
ATOM     15  C   LIG    1        5.301   3.130  -0.492  0.00  0.00    +0.210 C 
BRANCH  15  16
ATOM     16  N   LIG    1        3.967   2.942  -1.078  0.00  0.00    -0.480 NA
BRANCH  16  17
ATOM     17  C   LIG    1        3.511   1.555  -0.915  0.00  0.00    +0.190 C 
ATOM     18  C   LIG    1        4.503   0.582  -1.588  0.00  0.00    +0.050 C 
ATOM     19  C   LIG    1        3.571  -0.526  -2.120  0.00  0.00    +0.080 C 
ATOM     20  C   LIG    1        2.232   0.149  -2.331  0.00  0.00    -0.090 A 
ATOM     21  C   LIG    1        1.132  -0.251  -3.070  0.00  0.00    +0.010 A 
ATOM     22  C   LIG    1        0.001   0.541  -3.118  0.00  0.00    +0.000 A 
ATOM     23  C   LIG    1       -0.033   1.737  -2.425  0.00  0.00    +0.000 A 
ATOM     24  C   LIG    1        1.064   2.138  -1.687  0.00  0.00    +0.030 A 
ATOM     25  C   LIG    1        2.198   1.345  -1.639  0.00  0.00    -0.080 A 
ENDBRANCH  16  17
BRANCH  16  26
ATOM     26  C   LIG    1        3.001   3.885  -0.501  0.00  0.00    +0.160 C 
ATOM     27  C   LIG    1        3.515   4.869   0.552  0.00  0.00    +0.010 C 
ATOM     28  C   LIG    1        2.623   3.699   0.970  0.00  0.00    -0.030 C 
ENDBRANCH  16  26
ENDBRANCH  15  16
ENDBRANCH   3  15
TORSDOF 7
