REMARK  Name = ZINCpk00000eb5Pl.0
REMARK                            x       y       z     vdW  Elec       q    Type
REMARK                         _______ _______ _______ _____ _____    ______ ____
ROOT
ATOM      1  C   LIG    1       -0.778   1.558   6.152  0.00  0.00    +0.160 C 
ATOM      2  C   LIG    1        0.004   1.087   4.923  0.00  0.00    +0.170 C 
ATOM      3  N   LIG    1       -0.609   1.652   3.712  0.00  0.00    -0.520 NA
ATOM      4  C   LIG    1       -0.620   3.121   3.770  0.00  0.00    +0.140 C 
ATOM      5  C   LIG    1       -1.396   3.572   5.011  0.00  0.00    +0.230 C 
ATOM      6  O   LIG    1       -0.804   2.988   6.175  0.00  0.00    -0.360 OA
ENDROOT
BRANCH   1   7
ATOM      7  C   LIG    1       -0.097   1.039   7.420  0.00  0.00    +0.340 C 
BRANCH   7  11
ATOM      8  C   LIG    1       -2.778   0.688  11.640  0.00  0.00    +0.110 C 
ATOM      9  C   LIG    1       -2.078   1.242  10.426  0.00  0.00    -0.240 A 
ATOM     10  C   LIG    1       -1.376   0.527   9.517  0.00  0.00    +0.210 A 
ATOM     11  N   LIG    1       -0.910   1.388   8.588  0.00  0.00    -0.370 N 
ATOM     12  N   LIG    1       -1.336   2.675   8.941  0.00  0.00    -0.260 NA
ATOM     13  C   LIG    1       -2.041   2.585  10.040  0.00  0.00    +0.220 A 
ENDBRANCH   7  11
ENDBRANCH   1   7
BRANCH   3  14
ATOM     14  C   LIG    1        0.079   1.179   2.503  0.00  0.00    +0.160 C 
BRANCH  14  15
ATOM     15  C   LIG    1       -0.729   1.579   1.267  0.00  0.00    +0.230 C 
BRANCH  15  16
ATOM     16  O   LIG    1       -2.030   0.991   1.336  0.00  0.00    -0.530 OA
ATOM     17  H   LIG    1       -2.023   0.025   1.372  0.00  0.00    +0.370 HD
ENDBRANCH  15  16
BRANCH  15  18
ATOM     18  C   LIG    1       -0.013   1.086   0.008  0.00  0.00    +0.170 C 
BRANCH  18  19
ATOM     19  O   LIG    1       -0.704   1.559  -1.150  0.00  0.00    -0.300 OA
BRANCH  19  20
ATOM     20  C   LIG    1       -0.194   1.207  -2.360  0.00  0.00    +0.120 A 
ATOM     21  C   LIG    1        0.951   0.428  -2.430  0.00  0.00    -0.040 A 
ATOM     22  C   LIG    1        1.465   0.067  -3.661  0.00  0.00    +0.030 A 
ATOM     23  C   LIG    1        0.845   0.492  -4.823  0.00  0.00    +0.060 A 
ATOM     24  C   LIG    1       -0.295   1.275  -4.754  0.00  0.00    +0.030 A 
ATOM     25  F   LIG    1        1.351   0.142  -6.026  0.00  0.00    -0.140 F 
ATOM     26  C   LIG    1       -0.815   1.633  -3.525  0.00  0.00    +0.020 A 
ENDBRANCH  19  20
ENDBRANCH  18  19
ENDBRANCH  15  18
ENDBRANCH  14  15
ENDBRANCH   3  14
TORSDOF 8
