REMARK  Name = ZINCpk00000e9cFs.0
REMARK                            x       y       z     vdW  Elec       q    Type
REMARK                         _______ _______ _______ _____ _____    ______ ____
ROOT
ATOM      1  C   LIG    1        1.656   1.393  -0.018  0.00  0.00    +0.530 C 
ATOM      2  N   LIG    1        0.358   1.059   0.116  0.00  0.00    -0.730 N 
ATOM      3  H   LIG    1        0.100   0.125   0.167  0.00  0.00    +0.400 HD
ATOM      4  O   LIG    1        1.970   2.554  -0.182  0.00  0.00    -0.510 OA
ENDROOT
BRANCH   1   5
ATOM      5  C   LIG    1        2.719   0.326   0.036  0.00  0.00    +0.140 C 
BRANCH   5   6
ATOM      6  N   LIG    1        4.007   0.936   0.393  0.00  0.00    -0.500 NA
ATOM      7  C   LIG    1        5.069  -0.079   0.463  0.00  0.00    +0.140 C 
ATOM      8  C   LIG    1        6.401   0.605   0.778  0.00  0.00    +0.220 C 
ATOM      9  O   LIG    1        6.276   1.343   1.996  0.00  0.00    -0.380 OA
ATOM     10  C   LIG    1        5.252   2.341   1.963  0.00  0.00    +0.230 C 
ATOM     11  C   LIG    1        3.908   1.674   1.660  0.00  0.00    +0.150 C 
ENDBRANCH   5   6
BRANCH   5  12
ATOM     12  C   LIG    1        2.835  -0.347  -1.333  0.00  0.00    +0.010 C 
BRANCH  12  14
ATOM     13  C   LIG    1        1.337  -2.232  -0.668  0.00  0.00    +0.010 C 
ATOM     14  C   LIG    1        1.530  -1.079  -1.654  0.00  0.00    +0.000 C 
ENDBRANCH  12  14
BRANCH  12  15
ATOM     15  C   LIG    1        3.101   0.714  -2.403  0.00  0.00    +0.010 C 
ATOM     16  C   LIG    1        4.481   1.334  -2.174  0.00  0.00    +0.020 C 
ENDBRANCH  12  15
ENDBRANCH   5  12
ENDBRANCH   1   5
BRANCH   2  17
ATOM     17  C   LIG    1       -0.666   2.105   0.178  0.00  0.00    +0.420 C 
BRANCH  17  18
ATOM     18  C   LIG    1       -2.025   1.470   0.321  0.00  0.00    +0.110 A 
ATOM     19  N   LIG    1       -2.627   1.176   1.445  0.00  0.00    -0.220 NA
ATOM     20  N   LIG    1       -3.775   0.645   1.210  0.00  0.00    -0.280 NA
ATOM     21  C   LIG    1       -3.969   0.571  -0.097  0.00  0.00    +0.200 A 
ATOM     22  C   LIG    1       -5.025   0.090  -0.894  0.00  0.00    +0.080 A 
ATOM     23  C   LIG    1       -4.925   0.171  -2.248  0.00  0.00    +0.070 A 
ATOM     24  C   LIG    1       -3.769   0.719  -2.830  0.00  0.00    +0.030 A 
ATOM     25  C   LIG    1       -2.762   1.171  -2.054  0.00  0.00    +0.230 A 
ATOM     26  N   LIG    1       -2.853   1.104  -0.695  0.00  0.00    -0.380 N 
ENDBRANCH  17  18
ENDBRANCH   2  17
TORSDOF 7
