REMARK  Name = ZINCvU0000000HJ2.0
REMARK                            x       y       z     vdW  Elec       q    Type
REMARK                         _______ _______ _______ _____ _____    ______ ____
ROOT
ATOM      1  N   LIG    1        6.904   2.314  -2.296  0.00  0.00    -0.710 N 
ATOM      2  H   LIG    1        6.798   2.487  -1.348  0.00  0.00    +0.410 HD
ATOM      3  C   LIG    1        5.836   2.373  -3.116  0.00  0.00    +0.520 C 
ATOM      4  O   LIG    1        5.968   2.156  -4.302  0.00  0.00    -0.530 OA
ENDROOT
BRANCH   1   5
ATOM      5  C   LIG    1        8.226   1.989  -2.838  0.00  0.00    +0.250 C 
BRANCH   5   6
ATOM      6  C   LIG    1        8.877   3.243  -3.361  0.00  0.00    +0.510 C 
ATOM      7  O   LIG    1        8.694   4.301  -2.797  0.00  0.00    -0.540 OA
ATOM      8  N   LIG    1        9.662   3.189  -4.455  0.00  0.00    -0.850 N 
ATOM      9  H   LIG    1       10.083   3.997  -4.790  0.00  0.00    +0.400 HD
ATOM     10  H   LIG    1        9.807   2.344  -4.907  0.00  0.00    +0.400 HD
ENDBRANCH   5   6
BRANCH   5  12
ATOM     11  C   LIG    1       10.425   0.917  -2.329  0.00  0.00    +0.040 C 
ATOM     12  C   LIG    1        9.095   1.385  -1.734  0.00  0.00    +0.040 C 
BRANCH  12  13
ATOM     13  C   LIG    1        8.380   0.211  -1.117  0.00  0.00    -0.080 A 
ATOM     14  C   LIG    1        8.094  -0.904  -1.883  0.00  0.00    +0.010 A 
ATOM     15  C   LIG    1        7.441  -1.983  -1.316  0.00  0.00    +0.010 A 
ATOM     16  C   LIG    1        7.068  -1.944   0.014  0.00  0.00    +0.000 A 
ATOM     17  C   LIG    1        7.350  -0.827   0.779  0.00  0.00    +0.010 A 
ATOM     18  C   LIG    1        8.006   0.250   0.213  0.00  0.00    +0.000 A 
ENDBRANCH  12  13
ENDBRANCH   5  12
ENDBRANCH   1   5
BRANCH   3  19
ATOM     19  C   LIG    1        4.476   2.707  -2.558  0.00  0.00    +0.100 C 
BRANCH  19  20
ATOM     20  C   LIG    1        3.462   2.708  -3.674  0.00  0.00    -0.060 A 
ATOM     21  C   LIG    1        3.004   3.904  -4.190  0.00  0.00    +0.020 A 
ATOM     22  C   LIG    1        2.073   3.905  -5.213  0.00  0.00    +0.000 A 
ATOM     23  C   LIG    1        1.598   2.711  -5.722  0.00  0.00    +0.020 A 
ATOM     24  C   LIG    1        2.057   1.511  -5.215  0.00  0.00    +0.000 A 
ATOM     25  C   LIG    1        2.988   1.506  -4.183  0.00  0.00    +0.180 A 
BRANCH  25  26
ATOM     26  N   LIG    1        3.449   0.294  -3.663  0.00  0.00    -0.690 N 
ATOM     27  H   LIG    1        4.359   0.006  -3.839  0.00  0.00    +0.410 HD
BRANCH  26  28
ATOM     28  C   LIG    1        2.600  -0.503  -2.889  0.00  0.00    +0.220 A 
ATOM     29  C   LIG    1        1.576   0.080  -2.153  0.00  0.00    -0.090 A 
ATOM     30  C   LIG    1        0.739  -0.711  -1.389  0.00  0.00    +0.070 A 
ATOM     31  C   LIG    1        0.919  -2.082  -1.357  0.00  0.00    +0.000 A 
ATOM     32  C   LIG    1        1.937  -2.666  -2.088  0.00  0.00    +0.070 A 
ATOM     33 CL   LIG    1        1.348   1.801  -2.193  0.00  0.00    -0.040 Cl
ATOM     34  C   LIG    1        2.779  -1.881  -2.854  0.00  0.00    -0.090 A 
ATOM     35 CL   LIG    1        4.056  -2.616  -3.771  0.00  0.00    -0.060 Cl
ENDBRANCH  26  28
ENDBRANCH  25  26
ENDBRANCH  19  20
ENDBRANCH   3  19
TORSDOF 8
