REMARK  Name = ZINCrD00000tEbaf.0
REMARK                            x       y       z     vdW  Elec       q    Type
REMARK                         _______ _______ _______ _____ _____    ______ ____
ROOT
ATOM      1  C   LIG    1        2.665  -3.211  -6.770  0.00  0.00    +0.220 C 
ATOM      2  C   LIG    1        3.796  -2.687  -7.661  0.00  0.00    +0.050 C 
ATOM      3  C   LIG    1        4.288  -3.815  -8.571  0.00  0.00    -0.060 C 
ATOM      4  C   LIG    1        3.142  -4.284  -9.471  0.00  0.00    +0.030 C 
ATOM      5  C   LIG    1        2.003  -4.826  -8.601  0.00  0.00    +0.280 C 
ATOM      6  C   LIG    1        4.774  -4.986  -7.714  0.00  0.00    +0.030 C 
ATOM      7  C   LIG    1        5.440  -3.305  -9.438  0.00  0.00    +0.040 C 
ATOM      8  N   LIG    1        1.622  -3.796  -7.625  0.00  0.00    -0.580 N 
ATOM      9  C   LIG    1        0.340  -3.394  -7.515  0.00  0.00    +0.570 C 
ATOM     10  O   LIG    1        0.015  -2.638  -6.621  0.00  0.00    -0.480 OA
ENDROOT
BRANCH   9  11
ATOM     11  C   LIG    1       -0.672  -3.874  -8.485  0.00  0.00    +0.030 A 
ATOM     12  C   LIG    1       -2.026  -3.845  -8.154  0.00  0.00    +0.290 A 
ATOM     13  N   LIG    1       -2.924  -4.274  -9.022  0.00  0.00    -0.440 NA
ATOM     14  C   LIG    1       -2.541  -4.730 -10.202  0.00  0.00    +0.260 A 
ATOM     15  C   LIG    1       -1.194  -4.761 -10.534  0.00  0.00    +0.230 A 
ATOM     16  N   LIG    1       -0.291  -4.330  -9.676  0.00  0.00    -0.400 NA
ENDBRANCH   9  11
BRANCH   1  19
ATOM     17  N   LIG    1        2.261  -2.031  -4.635  0.00  0.00    -0.680 N 
ATOM     18  H   LIG    1        2.829  -2.686  -4.199  0.00  0.00    +0.410 HD
ATOM     19  C   LIG    1        2.084  -2.074  -5.970  0.00  0.00    +0.530 C 
ATOM     20  O   LIG    1        1.457  -1.199  -6.527  0.00  0.00    -0.490 OA
BRANCH  17  24
ATOM     21  C   LIG    1        0.371   0.917  -2.377  0.00  0.00    -0.100 A 
ATOM     22  C   LIG    1        0.481  -0.369  -1.880  0.00  0.00    +0.020 A 
ATOM     23  C   LIG    1        1.102  -1.350  -2.628  0.00  0.00    -0.020 A 
ATOM     24  C   LIG    1        1.627  -1.041  -3.877  0.00  0.00    +0.150 A 
ATOM     25  C   LIG    1        1.520   0.253  -4.371  0.00  0.00    +0.020 A 
ATOM     26  C   LIG    1        0.893   1.228  -3.620  0.00  0.00    +0.020 A 
BRANCH  21  28
ATOM     27  C   LIG    1       -1.804   2.006  -1.897  0.00  0.00    +0.030 C 
ATOM     28  C   LIG    1       -0.312   1.983  -1.560  0.00  0.00    +0.060 C 
ENDBRANCH  21  28
ENDBRANCH  17  24
ENDBRANCH   1  19
TORSDOF 4
