REMARK  Name = ZINCb70000002hlD.0
REMARK                            x       y       z     vdW  Elec       q    Type
REMARK                         _______ _______ _______ _____ _____    ______ ____
ROOT
ATOM      1  C   LIG    1       -0.731   1.581   1.266  0.00  0.00    +0.250 C 
ATOM      2  C   LIG    1       -0.013   1.086   0.008  0.00  0.00    +0.250 C 
ATOM      3  O   LIG    1       -0.706   1.561  -1.149  0.00  0.00    -0.340 OA
ATOM      4  C   LIG    1       -2.077   1.157  -1.202  0.00  0.00    +0.100 C 
ATOM      5  C   LIG    1       -2.801   1.648   0.052  0.00  0.00    +0.260 C 
ATOM      6  C   LIG    1       -2.157  -0.370  -1.276  0.00  0.00    -0.030 C 
ATOM      7  C   LIG    1       -1.497  -0.846  -2.573  0.00  0.00    +0.230 C 
ATOM      8  O   LIG    1       -2.143  -0.229  -3.688  0.00  0.00    -0.370 OA
ATOM      9  C   LIG    1       -2.056   1.198  -3.697  0.00  0.00    +0.240 C 
ATOM     10  C   LIG    1       -2.739   1.756  -2.445  0.00  0.00    +0.060 C 
ATOM     11  N   LIG    1       -2.126   1.116   1.244  0.00  0.00    -0.510 N 
ATOM     12  H   LIG    1       -2.145   0.108   1.220  0.00  0.00    +0.430 HD
ATOM     13  H   LIG    1       -2.602   1.441   2.073  0.00  0.00    +0.440 HD
ENDROOT
TORSDOF 0
