REMARK  Name = ZINCwl0000000tJZ.1
REMARK                            x       y       z     vdW  Elec       q    Type
REMARK                         _______ _______ _______ _____ _____    ______ ____
ROOT
ATOM      1  N   LIG    1        2.299   8.471   0.922  0.00  0.00    -0.690 N 
ATOM      2  H   LIG    1        3.204   8.325   1.236  0.00  0.00    +0.410 HD
ATOM      3  C   LIG    1        1.766   9.709   0.952  0.00  0.00    +0.710 C 
ATOM      4  N   LIG    1        2.467  10.732   1.481  0.00  0.00    -0.730 N 
ATOM      5  H   LIG    1        3.355  10.577   1.840  0.00  0.00    +0.400 HD
ATOM      6  O   LIG    1        0.653   9.903   0.503  0.00  0.00    -0.560 OA
ENDROOT
BRANCH   4   7
ATOM      7  C   LIG    1        1.888  12.077   1.514  0.00  0.00    +0.260 C 
ATOM      8  C   LIG    1        2.569  12.949   2.602  0.00  0.00    +0.050 C 
ATOM      9  C   LIG    1        2.376  14.383   2.066  0.00  0.00    +0.270 C 
ATOM     10  N   LIG    1        2.159  14.282   0.616  0.00  0.00    -0.610 N 
ATOM     11  C   LIG    1        1.931  15.315  -0.218  0.00  0.00    +0.580 C 
ATOM     12  O   LIG    1        1.665  15.107  -1.386  0.00  0.00    -0.520 OA
ATOM     13  C   LIG    1        2.233  12.862   0.224  0.00  0.00    +0.260 C 
BRANCH  11  14
ATOM     14  C   LIG    1        2.004  16.706   0.287  0.00  0.00    -0.090 A 
ATOM     15  C   LIG    1        2.148  16.966   1.654  0.00  0.00    -0.010 A 
ATOM     16  C   LIG    1        2.217  18.278   2.082  0.00  0.00    +0.260 A 
ATOM     17  N   LIG    1        2.139  19.275   1.223  0.00  0.00    -0.470 NA
ATOM     18  C   LIG    1        1.997  19.074  -0.072  0.00  0.00    +0.270 A 
ATOM     19  C   LIG    1        1.925  17.794  -0.587  0.00  0.00    +0.040 A 
ENDBRANCH  11  14
ENDBRANCH   4   7
BRANCH   1  24
ATOM     20  C   LIG    1        1.426   5.287  -0.698  0.00  0.00    -0.130 A 
ATOM     21  C   LIG    1        0.054   5.275  -0.528  0.00  0.00    +0.020 A 
ATOM     22  C   LIG    1       -0.574   6.317   0.129  0.00  0.00    +0.050 A 
ATOM     23  C   LIG    1        0.167   7.379   0.609  0.00  0.00    +0.060 A 
ATOM     24  C   LIG    1        1.545   7.397   0.436  0.00  0.00    +0.180 A 
ATOM     25  C   LIG    1        2.173   6.347  -0.220  0.00  0.00    +0.000 A 
BRANCH  20  26
ATOM     26  C   LIG    1        2.107   4.147  -1.411  0.00  0.00    +0.330 C 
BRANCH  26  31
ATOM     27  C   LIG    1        3.246   2.049  -1.111  0.00  0.00    +0.160 C 
ATOM     28  C   LIG    1        2.471   0.733  -0.894  0.00  0.00    +0.100 C 
ATOM     29  C   LIG    1        1.622   1.031   0.369  0.00  0.00    +0.080 C 
ATOM     30  C   LIG    1        1.275   2.527   0.167  0.00  0.00    +0.270 C 
ATOM     31  N   LIG    1        2.489   3.118  -0.434  0.00  0.00    -0.370 N 
ATOM     32  H   LIG    1        3.059   3.533   0.288  0.00  0.00    +0.430 HD
BRANCH  27  36
ATOM     33  N   LIG    1        4.558   2.422  -3.175  0.00  0.00    -0.830 N 
ATOM     34  H   LIG    1        4.624   2.614  -4.124  0.00  0.00    +0.420 HD
ATOM     35  H   LIG    1        5.363   2.284  -2.651  0.00  0.00    +0.410 HD
ATOM     36  C   LIG    1        3.349   2.348  -2.585  0.00  0.00    +0.510 C 
ATOM     37  O   LIG    1        2.342   2.521  -3.240  0.00  0.00    -0.510 OA
ENDBRANCH  27  36
ENDBRANCH  26  31
ENDBRANCH  20  26
ENDBRANCH   1  24
TORSDOF 6
