REMARK  Name = ZINCwl0000000tJZ.2
REMARK                            x       y       z     vdW  Elec       q    Type
REMARK                         _______ _______ _______ _____ _____    ______ ____
ROOT
ATOM      1  N   LIG    1        3.625   2.229   0.152  0.00  0.00    -0.690 N 
ATOM      2  H   LIG    1        3.675   3.120   0.532  0.00  0.00    +0.410 HD
ATOM      3  C   LIG    1        4.722   1.665  -0.390  0.00  0.00    +0.710 C 
ATOM      4  N   LIG    1        5.913   2.289  -0.307  0.00  0.00    -0.720 N 
ATOM      5  H   LIG    1        5.981   3.146   0.144  0.00  0.00    +0.400 HD
ATOM      6  O   LIG    1        4.637   0.591  -0.955  0.00  0.00    -0.560 OA
ENDROOT
BRANCH   4   7
ATOM      7  C   LIG    1        7.105   1.675  -0.896  0.00  0.00    +0.270 C 
ATOM      8  C   LIG    1        8.167   2.750  -1.249  0.00  0.00    +0.050 C 
ATOM      9  C   LIG    1        9.492   1.962  -1.181  0.00  0.00    +0.270 C 
ATOM     10  N   LIG    1        9.257   0.785  -0.331  0.00  0.00    -0.610 N 
ATOM     11  C   LIG    1       10.165  -0.167  -0.038  0.00  0.00    +0.580 C 
ATOM     12  O   LIG    1        9.831  -1.152   0.589  0.00  0.00    -0.520 OA
ATOM     13  C   LIG    1        7.864   0.820   0.150  0.00  0.00    +0.260 C 
BRANCH  11  14
ATOM     14  C   LIG    1       11.570  -0.011  -0.481  0.00  0.00    -0.090 A 
ATOM     15  C   LIG    1       11.943   1.029  -1.337  0.00  0.00    -0.010 A 
ATOM     16  C   LIG    1       13.265   1.140  -1.721  0.00  0.00    +0.260 A 
ATOM     17  N   LIG    1       14.167   0.276  -1.300  0.00  0.00    -0.470 NA
ATOM     18  C   LIG    1       13.857  -0.722  -0.497  0.00  0.00    +0.270 A 
ATOM     19  C   LIG    1       12.560  -0.904  -0.059  0.00  0.00    +0.040 A 
ENDBRANCH  11  14
ENDBRANCH   4   7
BRANCH   1  24
ATOM     20  C   LIG    1        0.014   1.531   0.180  0.00  0.00    -0.140 A 
ATOM     21  C   LIG    1        0.015   0.149   0.195  0.00  0.00    +0.020 A 
ATOM     22  C   LIG    1        1.212  -0.545   0.196  0.00  0.00    +0.050 A 
ATOM     23  C   LIG    1        2.410   0.142   0.182  0.00  0.00    +0.050 A 
ATOM     24  C   LIG    1        2.412   1.530   0.167  0.00  0.00    +0.180 A 
ATOM     25  C   LIG    1        1.209   2.224   0.165  0.00  0.00    +0.000 A 
BRANCH  20  26
ATOM     26  C   LIG    1       -1.292   2.283   0.172  0.00  0.00    +0.320 C 
BRANCH  26  31
ATOM     27  C   LIG    1       -2.928   3.381   1.553  0.00  0.00    +0.170 C 
ATOM     28  C   LIG    1       -4.033   2.587   2.282  0.00  0.00    +0.100 C 
ATOM     29  C   LIG    1       -3.228   1.586   3.152  0.00  0.00    +0.080 C 
ATOM     30  C   LIG    1       -2.027   1.264   2.228  0.00  0.00    +0.270 C 
ATOM     31  N   LIG    1       -1.715   2.543   1.554  0.00  0.00    -0.380 N 
ATOM     32  H   LIG    1       -0.977   3.015   2.054  0.00  0.00    +0.430 HD
BRANCH  27  36
ATOM     33  N   LIG    1       -3.635   5.596   2.396  0.00  0.00    -0.820 N 
ATOM     34  H   LIG    1       -3.462   6.429   2.862  0.00  0.00    +0.420 HD
ATOM     35  H   LIG    1       -4.511   5.426   2.016  0.00  0.00    +0.410 HD
ATOM     36  C   LIG    1       -2.659   4.675   2.277  0.00  0.00    +0.520 C 
ATOM     37  O   LIG    1       -1.563   4.886   2.752  0.00  0.00    -0.530 OA
ENDBRANCH  27  36
ENDBRANCH  26  31
ENDBRANCH  20  26
ENDBRANCH   1  24
TORSDOF 6
