REMARK  Name = ZINCpe000000VuMd.0
REMARK                            x       y       z     vdW  Elec       q    Type
REMARK                         _______ _______ _______ _____ _____    ______ ____
ROOT
ATOM      1  N   LIG    1        0.667  -0.477  -1.215  0.00  0.00    -0.730 N 
ATOM      2  H   LIG    1        1.000   0.162  -1.865  0.00  0.00    +0.410 HD
ATOM      3  C   LIG    1        0.799  -1.799  -1.440  0.00  0.00    +0.500 C 
ATOM      4  O   LIG    1        0.383  -2.597  -0.628  0.00  0.00    -0.520 OA
ENDROOT
BRANCH   1   5
ATOM      5  C   LIG    1        0.021  -0.004   0.012  0.00  0.00    +0.310 C 
BRANCH   5   6
ATOM      6  C   LIG    1        0.000   1.526   0.021  0.00  0.00    -0.100 C 
ATOM      7  C   LIG    1       -0.588   2.052   1.349  0.00  0.00    +0.070 C 
ATOM      8  C   LIG    1        0.565   2.869   1.973  0.00  0.00    +0.210 C 
ATOM      9  O   LIG    1        1.765   2.319   1.387  0.00  0.00    -0.360 OA
ATOM     10  C   LIG    1        1.440   2.087  -0.001  0.00  0.00    +0.240 C 
BRANCH   6  11
ATOM     11  C   LIG    1       -0.787   2.049  -1.153  0.00  0.00    +0.470 C 
ATOM     12  O   LIG    1       -1.756   2.746  -0.968  0.00  0.00    -0.490 OA
BRANCH  11  14
ATOM     13  C   LIG    1       -1.217   2.277  -3.486  0.00  0.00    +0.290 C 
ATOM     14  O   LIG    1       -0.412   1.739  -2.404  0.00  0.00    -0.360 OA
ENDBRANCH  11  14
ENDBRANCH   6  11
ENDBRANCH   5   6
ENDBRANCH   1   5
BRANCH   3  15
ATOM     15  C   LIG    1        1.464  -2.285  -2.702  0.00  0.00    +0.330 C 
BRANCH  15  16
ATOM     16  N   LIG    1        1.484  -3.750  -2.710  0.00  0.00    -0.530 N 
ATOM     17  C   LIG    1        0.400  -4.368  -3.172  0.00  0.00    +0.530 C 
ATOM     18  C   LIG    1        0.275  -5.864  -3.267  0.00  0.00    +0.150 C 
ATOM     19  S   LIG    1        1.899  -6.570  -3.678  0.00  0.00    -0.080 S 
ATOM     20  C   LIG    1        2.966  -5.677  -2.593  0.00  0.00    -0.130 A 
ATOM     21  C   LIG    1        4.118  -6.271  -2.105  0.00  0.00    +0.080 A 
ATOM     22  C   LIG    1        4.947  -5.568  -1.249  0.00  0.00    +0.010 A 
ATOM     23  C   LIG    1        4.622  -4.275  -0.882  0.00  0.00    +0.050 A 
ATOM     24  C   LIG    1        3.475  -3.677  -1.367  0.00  0.00    -0.010 A 
ATOM     25  O   LIG    1       -0.536  -3.689  -3.539  0.00  0.00    -0.510 OA
ATOM     26  C   LIG    1        2.634  -4.371  -2.229  0.00  0.00    +0.170 A 
ENDBRANCH  15  16
ENDBRANCH   3  15
TORSDOF 6
