REMARK  Name = ZINCrH000004mTVU.0
REMARK                            x       y       z     vdW  Elec       q    Type
REMARK                         _______ _______ _______ _____ _____    ______ ____
ROOT
ATOM      1  C   LIG    1        2.512   5.566   0.007  0.00  0.00    +0.190 C 
ATOM      2  C   LIG    1        2.765   6.085   1.438  0.00  0.00    +0.040 C 
ATOM      3  C   LIG    1        1.926   7.375   1.551  0.00  0.00    +0.030 C 
ATOM      4  C   LIG    1        1.236   7.526   0.178  0.00  0.00    +0.160 C 
ATOM      5  N   LIG    1        1.200   6.148  -0.376  0.00  0.00    -0.490 NA
ENDROOT
BRANCH   1  10
ATOM      6  C   LIG    1        1.149   2.041  -0.001  0.00  0.00    +0.090 A 
ATOM      7  C   LIG    1        2.316   1.292  -0.011  0.00  0.00    -0.040 A 
ATOM      8  C   LIG    1        3.543   1.926  -0.025  0.00  0.00    -0.040 A 
ATOM      9  C   LIG    1        3.608   3.311  -0.017  0.00  0.00    +0.100 A 
ATOM     10  C   LIG    1        2.441   4.060  -0.001  0.00  0.00    -0.070 A 
ATOM     11  C   LIG    1        1.214   3.427   0.007  0.00  0.00    +0.060 A 
BRANCH   6  13
ATOM     12  C   LIG    1       -0.052  -0.012  -0.002  0.00  0.00    +0.230 C 
ATOM     13  O   LIG    1       -0.059   1.417   0.007  0.00  0.00    -0.320 OA
ENDBRANCH   6  13
BRANCH   9  14
ATOM     14  O   LIG    1        4.816   3.935  -0.025  0.00  0.00    -0.310 OA
ATOM     15  C   LIG    1        5.977   3.102  -0.041  0.00  0.00    +0.230 C 
ENDBRANCH   9  14
ENDBRANCH   1  10
BRANCH   5  16
ATOM     16  C   LIG    1        1.040   6.172  -1.836  0.00  0.00    +0.210 C 
BRANCH  16  17
ATOM     17  C   LIG    1       -0.382   6.534  -2.180  0.00  0.00    +0.520 C 
ATOM     18  N   LIG    1       -0.762   6.617  -3.470  0.00  0.00    -0.670 N 
ATOM     19  H   LIG    1       -0.105   6.523  -4.177  0.00  0.00    +0.420 HD
ATOM     20  O   LIG    1       -1.183   6.751  -1.296  0.00  0.00    -0.490 OA
BRANCH  18  21
ATOM     21  C   LIG    1       -2.109   6.839  -3.791  0.00  0.00    +0.110 A 
ATOM     22  C   LIG    1       -3.105   6.474  -2.897  0.00  0.00    +0.090 A 
ATOM     23  C   LIG    1       -4.432   6.699  -3.212  0.00  0.00    +0.010 A 
ATOM     24  C   LIG    1       -4.769   7.278  -4.424  0.00  0.00    +0.110 A 
ATOM     25  C   LIG    1       -3.777   7.638  -5.321  0.00  0.00    -0.020 A 
ATOM     26  F   LIG    1       -6.067   7.492  -4.731  0.00  0.00    -0.130 F 
ATOM     27  C   LIG    1       -2.448   7.421  -5.008  0.00  0.00    +0.090 A 
ATOM     28  F   LIG    1       -1.481   7.772  -5.883  0.00  0.00    -0.130 F 
ENDBRANCH  18  21
ENDBRANCH  16  17
ENDBRANCH   5  16
TORSDOF 6
