REMARK  Name = ZINCqH0000007Q76.0
REMARK                            x       y       z     vdW  Elec       q    Type
REMARK                         _______ _______ _______ _____ _____    ______ ____
ROOT
ATOM      1  N   LIG    1        3.622  -0.697   0.169  0.00  0.00    -0.490 N 
ATOM      2  C   LIG    1        4.486  -0.203   1.251  0.00  0.00    +0.190 C 
ATOM      3  C   LIG    1        5.792  -1.001   1.263  0.00  0.00    +0.190 C 
ATOM      4  N   LIG    1        6.457  -0.868  -0.041  0.00  0.00    -0.520 NA
ATOM      5  C   LIG    1        5.593  -1.362  -1.123  0.00  0.00    +0.190 C 
ATOM      6  C   LIG    1        4.287  -0.563  -1.135  0.00  0.00    +0.200 C 
ENDROOT
BRANCH   1  12
ATOM      7  C   LIG    1        1.216  -0.751   0.418  0.00  0.00    +0.150 A 
ATOM      8  C   LIG    1       -0.003  -0.095   0.419  0.00  0.00    -0.080 A 
ATOM      9  C   LIG    1       -0.056   1.266   0.177  0.00  0.00    +0.050 A 
ATOM     10  C   LIG    1        1.106   1.974  -0.067  0.00  0.00    -0.030 A 
ATOM     11  C   LIG    1        2.327   1.326  -0.070  0.00  0.00    +0.020 A 
ATOM     12  C   LIG    1        2.388  -0.038   0.172  0.00  0.00    +0.050 A 
BRANCH   7  14
ATOM     13  C   LIG    1        0.029  -2.755   0.900  0.00  0.00    +0.220 C 
ATOM     14  O   LIG    1        1.269  -2.090   0.656  0.00  0.00    -0.300 OA
ENDBRANCH   7  14
ENDBRANCH   1  12
BRANCH   4  15
ATOM     15  C   LIG    1        7.753  -1.559  -0.044  0.00  0.00    +0.220 C 
BRANCH  15  16
ATOM     16  C   LIG    1        8.516  -1.190  -1.290  0.00  0.00    +0.520 C 
ATOM     17  N   LIG    1        9.681  -1.805  -1.574  0.00  0.00    -0.680 N 
ATOM     18  H   LIG    1        9.995  -2.531  -1.013  0.00  0.00    +0.410 HD
ATOM     19  O   LIG    1        8.082  -0.339  -2.037  0.00  0.00    -0.490 OA
BRANCH  17  20
ATOM     20  C   LIG    1       10.438  -1.396  -2.678  0.00  0.00    +0.170 A 
ATOM     21  C   LIG    1        9.802  -0.970  -3.837  0.00  0.00    +0.050 A 
ATOM     22  C   LIG    1       10.551  -0.562  -4.924  0.00  0.00    +0.070 A 
ATOM     23  C   LIG    1       11.932  -0.588  -4.863  0.00  0.00    -0.050 A 
ATOM     24  C   LIG    1       12.569  -1.017  -3.710  0.00  0.00    -0.010 A 
ATOM     25 CL   LIG    1       14.303  -1.048  -3.637  0.00  0.00    -0.040 Cl
ATOM     26 CL   LIG    1       12.870  -0.081  -6.234  0.00  0.00    -0.050 Cl
ATOM     27  C   LIG    1       11.825  -1.421  -2.619  0.00  0.00    +0.020 A 
ENDBRANCH  17  20
ENDBRANCH  15  16
ENDBRANCH   4  15
TORSDOF 5
