REMARK  Name = ZINCvU0000000C6k.0
REMARK                            x       y       z     vdW  Elec       q    Type
REMARK                         _______ _______ _______ _____ _____    ______ ____
ROOT
ATOM      1  C   LIG    1       -1.205   2.153   0.001  0.00  0.00    +0.480 C 
ATOM      2  N   LIG    1       -2.385   1.664  -0.300  0.00  0.00    -0.640 NA
ATOM      3  C   LIG    1       -3.442   2.447  -0.328  0.00  0.00    +0.540 C 
ATOM      4  C   LIG    1       -3.174   3.854  -0.003  0.00  0.00    -0.260 C 
ATOM      5  C   LIG    1       -4.060   4.892   0.049  0.00  0.00    +0.250 C 
ATOM      6  O   LIG    1       -4.559   2.036  -0.602  0.00  0.00    -0.440 OA
ATOM      7  S   LIG    1       -1.427   3.884   0.312  0.00  0.00    -0.030 S 
ENDROOT
BRANCH   1  11
ATOM      8  N   LIG    1        2.053  -0.054   1.145  0.00  0.00    -0.490 N 
ATOM      9  C   LIG    1        0.742  -0.685   0.943  0.00  0.00    +0.200 C 
ATOM     10  C   LIG    1        0.015   0.013  -0.211  0.00  0.00    +0.320 C 
ATOM     11  N   LIG    1       -0.026   1.457   0.068  0.00  0.00    -0.540 N 
ATOM     12  C   LIG    1        1.233   2.135   0.413  0.00  0.00    +0.320 C 
ATOM     13  C   LIG    1        1.912   1.353   1.543  0.00  0.00    +0.210 C 
BRANCH   8  18
ATOM     14  C   LIG    1        5.137  -2.937   4.931  0.00  0.00    +0.100 C 
ATOM     15  C   LIG    1        4.317  -2.171   3.925  0.00  0.00    -0.110 A 
ATOM     16  C   LIG    1        4.838  -1.035   3.333  0.00  0.00    +0.030 A 
ATOM     17  C   LIG    1        4.090  -0.330   2.410  0.00  0.00    +0.000 A 
ATOM     18  C   LIG    1        2.813  -0.764   2.077  0.00  0.00    +0.100 A 
ATOM     19  C   LIG    1        2.291  -1.903   2.678  0.00  0.00    -0.030 A 
ATOM     20  C   LIG    1        3.047  -2.605   3.595  0.00  0.00    +0.030 A 
ENDBRANCH   8  18
ENDBRANCH   1  11
BRANCH   5  21
ATOM     21  C   LIG    1       -5.445   4.643  -0.052  0.00  0.00    -0.030 A 
ATOM     22  C   LIG    1       -6.436   5.603  -0.152  0.00  0.00    +0.020 A 
ATOM     23  C   LIG    1       -7.653   4.921  -0.230  0.00  0.00    -0.050 A 
ATOM     24  C   LIG    1       -7.364   3.576  -0.175  0.00  0.00    +0.070 A 
ATOM     25  O   LIG    1       -6.031   3.428  -0.074  0.00  0.00    -0.100 OA
BRANCH  24  26
ATOM     26  C   LIG    1       -8.351   2.480  -0.225  0.00  0.00    -0.030 A 
ATOM     27  C   LIG    1       -9.714   2.768  -0.332  0.00  0.00    +0.040 A 
ATOM     28  C   LIG    1      -10.631   1.739  -0.383  0.00  0.00    +0.010 A 
ATOM     29  C   LIG    1      -10.204   0.424  -0.319  0.00  0.00    +0.020 A 
ATOM     30  C   LIG    1       -8.856   0.132  -0.208  0.00  0.00    +0.010 A 
ATOM     31  C   LIG    1       -7.928   1.150  -0.161  0.00  0.00    +0.050 A 
ENDBRANCH  24  26
ENDBRANCH   5  21
TORSDOF 4
