REMARK  Name = ZINCrD0000074w4c.0
REMARK                            x       y       z     vdW  Elec       q    Type
REMARK                         _______ _______ _______ _____ _____    ______ ____
ROOT
ATOM      1  C   LIG    1       -1.485   3.670  -6.183  0.00  0.00    +0.160 C 
ATOM      2  C   LIG    1       -1.897   3.951  -4.761  0.00  0.00    +0.220 A 
ATOM      3  C   LIG    1       -1.103   3.539  -3.709  0.00  0.00    -0.130 A 
ATOM      4  C   LIG    1       -1.526   3.816  -2.407  0.00  0.00    +0.390 A 
ATOM      5  N   LIG    1       -2.668   4.472  -2.227  0.00  0.00    -0.500 NA
ATOM      6  C   LIG    1       -3.397   4.854  -3.263  0.00  0.00    +0.580 A 
ATOM      7  N   LIG    1       -3.023   4.601  -4.506  0.00  0.00    -0.540 NA
ENDROOT
BRANCH   6   8
ATOM      8  N   LIG    1       -4.590   5.541  -3.038  0.00  0.00    -0.320 N 
ATOM      9  N   LIG    1       -5.125   5.878  -1.788  0.00  0.00    -0.260 NA
ATOM     10  C   LIG    1       -6.249   6.519  -1.982  0.00  0.00    +0.090 A 
ATOM     11  C   LIG    1       -6.475   6.604  -3.361  0.00  0.00    -0.100 A 
ATOM     12  C   LIG    1       -7.150   7.066  -0.906  0.00  0.00    +0.170 C 
ATOM     13  C   LIG    1       -5.444   5.996  -3.992  0.00  0.00    +0.110 A 
ATOM     14  C   LIG    1       -5.273   5.852  -5.482  0.00  0.00    +0.160 C 
ENDBRANCH   6   8
BRANCH   4  15
ATOM     15  N   LIG    1       -0.765   3.418  -1.320  0.00  0.00    -0.500 N 
ATOM     16  C   LIG    1        0.603   3.945  -1.414  0.00  0.00    +0.220 C 
ATOM     17  C   LIG    1        1.387   3.551  -0.160  0.00  0.00    +0.200 C 
ATOM     18  N   LIG    1        1.397   2.087  -0.033  0.00  0.00    -0.500 N 
ATOM     19  C   LIG    1        0.029   1.559   0.061  0.00  0.00    +0.150 C 
ATOM     20  C   LIG    1        0.077   0.034   0.174  0.00  0.00    +0.040 C 
ATOM     21  C   LIG    1       -0.754   1.954  -1.193  0.00  0.00    +0.230 C 
BRANCH  18  22
ATOM     22  C   LIG    1        2.165   1.685   1.063  0.00  0.00    +0.090 A 
ATOM     23  C   LIG    1        3.380   1.042   0.863  0.00  0.00    +0.030 A 
ATOM     24  C   LIG    1        4.138   0.650   1.949  0.00  0.00    +0.020 A 
ATOM     25  C   LIG    1        3.685   0.889   3.233  0.00  0.00    +0.000 A 
ATOM     26  C   LIG    1        2.474   1.525   3.436  0.00  0.00    +0.010 A 
ATOM     27  C   LIG    1        1.713   1.923   2.355  0.00  0.00    -0.030 A 
ENDBRANCH  18  22
ENDBRANCH   4  15
TORSDOF 3
