REMARK  Name = ZINCrH00000No4y9.0
REMARK                            x       y       z     vdW  Elec       q    Type
REMARK                         _______ _______ _______ _____ _____    ______ ____
ROOT
ATOM      1  C   LIG    1        1.245   1.963   0.001  0.00  0.00    -0.290 A 
ATOM      2  C   LIG    1        2.545   1.420  -0.015  0.00  0.00    +0.340 A 
ATOM      3  N   LIG    1        2.994   0.166  -0.026  0.00  0.00    -0.430 NA
ATOM      4  C   LIG    1        4.293  -0.088  -0.041  0.00  0.00    +0.270 A 
ATOM      5  C   LIG    1        5.217   0.977  -0.044  0.00  0.00    +0.010 A 
ATOM      6  C   LIG    1        4.758   2.251  -0.032  0.00  0.00    +0.120 A 
ATOM      7  N   LIG    1        3.412   2.476  -0.017  0.00  0.00    -0.300 N 
ATOM      8  N   LIG    1        2.659   3.656  -0.004  0.00  0.00    -0.300 NA
ATOM      9  C   LIG    1        1.386   3.362   0.001  0.00  0.00    +0.340 A 
ENDROOT
BRANCH   4  10
ATOM     10  C   LIG    1        4.775  -1.489  -0.053  0.00  0.00    -0.080 A 
ATOM     11  C   LIG    1        6.143  -1.758  -0.074  0.00  0.00    +0.050 A 
ATOM     12  C   LIG    1        6.586  -3.065  -0.080  0.00  0.00    +0.000 A 
ATOM     13  C   LIG    1        5.675  -4.107  -0.077  0.00  0.00    +0.040 A 
ATOM     14  C   LIG    1        4.317  -3.846  -0.062  0.00  0.00    +0.000 A 
ATOM     15  C   LIG    1        3.862  -2.544  -0.050  0.00  0.00    +0.080 A 
ENDBRANCH   4  10
BRANCH   1  18
ATOM     16  N   LIG    1       -1.191   1.871   0.018  0.00  0.00    -0.720 N 
ATOM     17  H   LIG    1       -1.204   2.841   0.023  0.00  0.00    +0.410 HD
ATOM     18  C   LIG    1       -0.014   1.213   0.009  0.00  0.00    +0.600 C 
ATOM     19  O   LIG    1        0.002  -0.004   0.002  0.00  0.00    -0.520 OA
BRANCH  16  20
ATOM     20  C   LIG    1       -2.449   1.121   0.020  0.00  0.00    +0.380 C 
BRANCH  20  21
ATOM     21  C   LIG    1       -2.802   0.759   1.402  0.00  0.00    +0.190 C 
ATOM     22  N   LIG    1       -3.075   0.479   2.469  0.00  0.00    -0.410 NA
ENDBRANCH  20  21
BRANCH  20  23
ATOM     23  C   LIG    1       -3.559   1.987  -0.580  0.00  0.00    +0.050 C 
BRANCH  23  25
ATOM     24  C   LIG    1       -4.363   3.125  -2.654  0.00  0.00    +0.030 C 
ATOM     25  C   LIG    1       -3.253   2.260  -2.054  0.00  0.00    +0.020 C 
ENDBRANCH  23  25
ENDBRANCH  20  23
ENDBRANCH  16  20
ENDBRANCH   1  18
BRANCH   6  26
ATOM     26  C   LIG    1        5.724   3.408  -0.035  0.00  0.00    +0.470 C 
ATOM     27  F   LIG    1        5.505   4.196  -1.170  0.00  0.00    -0.170 F 
ATOM     28  F   LIG    1        7.035   2.921  -0.051  0.00  0.00    -0.180 F 
ENDBRANCH   6  26
TORSDOF 7
