REMARK  Name = ZINCqH00000032RM.0
REMARK                            x       y       z     vdW  Elec       q    Type
REMARK                         _______ _______ _______ _____ _____    ______ ____
ROOT
ATOM      1  C   LIG    1        0.092   1.188  -0.769  0.00  0.00    -0.680 A 
ATOM      2  C   LIG    1       -0.097   0.159   0.136  0.00  0.00    +0.150 A 
ATOM      3  C   LIG    1        0.916  -0.199   1.008  0.00  0.00    +0.000 A 
ATOM      4  C   LIG    1        2.122   0.470   0.980  0.00  0.00    +0.100 A 
ATOM      5  C   LIG    1        2.320   1.509   0.070  0.00  0.00    -0.150 A 
ATOM      6  C   LIG    1        1.294   1.865  -0.807  0.00  0.00    +0.180 A 
ENDROOT
BRANCH   5   7
ATOM      7  C   LIG    1        3.610   2.231   0.035  0.00  0.00    +0.560 C 
ATOM      8  N   LIG    1        4.763   1.560   0.228  0.00  0.00    -0.600 N 
ATOM      9  C   LIG    1        4.765   0.096   0.353  0.00  0.00    +0.250 C 
ATOM     10  C   LIG    1        5.756  -0.485  -0.661  0.00  0.00    +0.010 C 
ATOM     11  C   LIG    1        7.126   0.165  -0.458  0.00  0.00    +0.010 C 
ATOM     12  C   LIG    1        7.018   1.673  -0.697  0.00  0.00    +0.010 C 
ATOM     13  C   LIG    1        6.042   2.277   0.311  0.00  0.00    +0.230 C 
ATOM     14  O   LIG    1        3.631   3.429  -0.168  0.00  0.00    -0.520 OA
BRANCH  13  15
ATOM     15  C   LIG    1        5.822   3.756  -0.014  0.00  0.00    +0.070 C 
BRANCH  15  16
ATOM     16  C   LIG    1        7.154   4.503   0.084  0.00  0.00    -0.040 C 
ATOM     17  C   LIG    1        7.655   4.466   1.529  0.00  0.00    +0.000 C 
ATOM     18  C   LIG    1        6.956   5.957  -0.350  0.00  0.00    +0.010 C 
ENDBRANCH  15  16
ENDBRANCH  13  15
ENDBRANCH   5   7
BRANCH   1  19
ATOM     19  S   LIG    1       -1.202   1.631  -1.879  0.00  0.00    +2.690 S 
ATOM     20  O   LIG    1       -2.031   0.484  -2.008  0.00  0.00    -0.950 OA
ATOM     21  O   LIG    1       -0.580   2.269  -2.987  0.00  0.00    -0.950 OA
BRANCH  19  22
ATOM     22  N   LIG    1       -2.118   2.788  -1.128  0.00  0.00    -0.990 NA
BRANCH  22  24
ATOM     23  C   LIG    1       -2.627   4.798  -2.426  0.00  0.00    +0.020 C 
ATOM     24  C   LIG    1       -1.787   4.206  -1.292  0.00  0.00    +0.280 C 
ENDBRANCH  22  24
BRANCH  22  25
ATOM     25  C   LIG    1       -3.260   2.394  -0.299  0.00  0.00    +0.290 C 
ATOM     26  C   LIG    1       -2.822   2.311   1.165  0.00  0.00    +0.000 C 
ENDBRANCH  22  25
ENDBRANCH  19  22
ENDBRANCH   1  19
TORSDOF 7
