REMARK  Name = ZINCrD00000hQ4QF.0
REMARK                            x       y       z     vdW  Elec       q    Type
REMARK                         _______ _______ _______ _____ _____    ______ ____
ROOT
ATOM      1  C   LIG    1       -2.759   1.069   3.815  0.00  0.00    +0.550 C 
ATOM      2  N   LIG    1       -2.024   1.152   2.688  0.00  0.00    -0.600 N 
ATOM      3  C   LIG    1       -2.152   0.136   1.634  0.00  0.00    +0.280 C 
ATOM      4  C   LIG    1       -2.451   0.838   0.306  0.00  0.00    +0.050 C 
ATOM      5  C   LIG    1       -1.373   1.891   0.036  0.00  0.00    -0.030 C 
ATOM      6  C   LIG    1       -1.391   2.939   1.152  0.00  0.00    +0.060 C 
ATOM      7  C   LIG    1       -1.080   2.261   2.490  0.00  0.00    +0.290 C 
ATOM      8  O   LIG    1       -3.603   0.201   3.928  0.00  0.00    -0.550 OA
ENDROOT
BRANCH   5   9
ATOM      9  C   LIG    1       -0.021   1.226  -0.006  0.00  0.00    +0.530 C 
ATOM     10  N   LIG    1        0.287   0.390  -1.017  0.00  0.00    -0.600 N 
ATOM     11  C   LIG    1       -0.713   0.051  -2.039  0.00  0.00    +0.260 C 
ATOM     12  C   LIG    1       -0.824  -1.474  -2.134  0.00  0.00    +0.010 C 
ATOM     13  C   LIG    1        0.563  -2.067  -2.390  0.00  0.00    +0.030 C 
ATOM     14  C   LIG    1        1.491  -1.722  -1.223  0.00  0.00    +0.000 C 
ATOM     15  C   LIG    1        1.630  -0.196  -1.121  0.00  0.00    +0.280 C 
ATOM     16  O   LIG    1        0.787   1.440   0.872  0.00  0.00    -0.530 OA
BRANCH  14  17
ATOM     17  C   LIG    1        2.868  -2.344  -1.464  0.00  0.00    -0.040 C 
ATOM     18  C   LIG    1        3.297  -3.490  -0.545  0.00  0.00    +0.000 C 
ATOM     19  C   LIG    1        3.944  -2.111  -0.401  0.00  0.00    +0.010 C 
ENDBRANCH  14  17
ENDBRANCH   5   9
BRANCH   5  20
ATOM     20  C   LIG    1       -1.645   2.561  -1.286  0.00  0.00    -0.080 A 
ATOM     21  C   LIG    1       -2.813   2.286  -1.972  0.00  0.00    +0.010 A 
ATOM     22  C   LIG    1       -3.065   2.904  -3.183  0.00  0.00    +0.020 A 
ATOM     23  C   LIG    1       -2.143   3.789  -3.712  0.00  0.00    +0.000 A 
ATOM     24  C   LIG    1       -0.973   4.059  -3.028  0.00  0.00    +0.010 A 
ATOM     25  C   LIG    1       -0.724   3.445  -1.815  0.00  0.00    +0.010 A 
ENDBRANCH   5  20
BRANCH   1  27
ATOM     26  C   LIG    1       -3.193   1.887   6.058  0.00  0.00    +0.140 C 
ATOM     27  C   LIG    1       -2.539   2.028   4.909  0.00  0.00    -0.090 C 
ENDBRANCH   1  27
TORSDOF 4
