REMARK  Name = ZINCqH00000357cq.0
REMARK                            x       y       z     vdW  Elec       q    Type
REMARK                         _______ _______ _______ _____ _____    ______ ____
ROOT
ATOM      1  N   LIG    1       -4.694   4.160   1.086  0.00  0.00    -0.550 NA
ATOM      2  C   LIG    1       -4.657   4.374  -0.367  0.00  0.00    +0.210 C 
ENDROOT
BRANCH   1   3
ATOM      3  C   LIG    1       -5.684   5.040   1.722  0.00  0.00    +0.250 C 
BRANCH   3   7
ATOM      4  C   LIG    1       -9.609   3.939   0.430  0.00  0.00    -0.120 A 
ATOM      5  C   LIG    1       -9.055   3.350   1.568  0.00  0.00    +0.090 A 
ATOM      6  C   LIG    1       -7.788   3.710   1.979  0.00  0.00    +0.020 A 
ATOM      7  C   LIG    1       -7.067   4.652   1.267  0.00  0.00    -0.040 A 
ATOM      8  C   LIG    1       -7.613   5.244   0.141  0.00  0.00    +0.010 A 
ATOM      9  C   LIG    1       -8.876   4.889  -0.284  0.00  0.00    +0.080 A 
BRANCH   4  10
ATOM     10  C   LIG    1      -10.966   3.560  -0.016  0.00  0.00    +0.510 C 
ATOM     11  O   LIG    1      -11.601   2.734   0.608  0.00  0.00    -0.500 OA
BRANCH  10  13
ATOM     12  C   LIG    1      -12.835   3.709  -1.493  0.00  0.00    +0.270 C 
ATOM     13  O   LIG    1      -11.498   4.130  -1.114  0.00  0.00    -0.360 OA
ENDBRANCH  10  13
ENDBRANCH   4  10
ENDBRANCH   3   7
ENDBRANCH   1   3
BRANCH   1  14
ATOM     14  C   LIG    1       -3.364   4.348   1.680  0.00  0.00    +0.530 C 
BRANCH  14  15
ATOM     15  N   LIG    1       -2.571   3.130   1.496  0.00  0.00    -0.360 N 
ATOM     16  N   LIG    1       -2.716   1.928   2.203  0.00  0.00    -0.260 NA
ATOM     17  C   LIG    1       -1.841   1.088   1.753  0.00  0.00    +0.280 A 
ATOM     18  N   LIG    1       -1.105   1.699   0.767  0.00  0.00    -0.460 N 
ATOM     19  C   LIG    1       -1.565   2.957   0.613  0.00  0.00    +0.460 A 
ATOM     20  S   LIG    1       -0.980   4.121  -0.498  0.00  0.00    -0.580 S 
BRANCH  18  21
ATOM     21  C   LIG    1       -0.013   1.086   0.008  0.00  0.00    +0.190 C 
ATOM     22  C   LIG    1        0.421   1.774  -1.288  0.00  0.00    +0.080 C 
ATOM     23  C   LIG    1        1.317   1.840  -0.049  0.00  0.00    +0.060 C 
ENDBRANCH  18  21
BRANCH  17  24
ATOM     24  C   LIG    1       -1.657  -0.328   2.234  0.00  0.00    +0.080 C 
ATOM     25  C   LIG    1       -2.442  -1.280   1.329  0.00  0.00    +0.060 C 
ATOM     26  C   LIG    1       -2.171  -0.450   3.670  0.00  0.00    +0.060 C 
ENDBRANCH  17  24
ENDBRANCH  14  15
ENDBRANCH   1  14
TORSDOF 8
