REMARK  Name = ZINCkj000018RFlA.0
REMARK                            x       y       z     vdW  Elec       q    Type
REMARK                         _______ _______ _______ _____ _____    ______ ____
ROOT
ATOM      1  C   LIG    1        2.961   4.924  -0.000  0.00  0.00    -0.060 A 
ATOM      2  C   LIG    1        3.021   3.572  -0.002  0.00  0.00    +0.220 A 
ATOM      3  N   LIG    1        1.732   3.137   0.002  0.00  0.00    -0.210 N 
ATOM      4  N   LIG    1        0.962   4.169   0.016  0.00  0.00    -0.020 NA
ATOM      5  N   LIG    1        1.663   5.247   0.015  0.00  0.00    -0.290 NA
ENDROOT
BRANCH   3   6
ATOM      6  C   LIG    1        1.314   1.797  -0.001  0.00  0.00    +0.290 A 
ATOM      7  N   LIG    1        2.098   0.745  -0.014  0.00  0.00    -0.250 NA
ATOM      8  N   LIG    1        1.292  -0.401  -0.012  0.00  0.00    -0.410 N 
ATOM      9  C   LIG    1        0.002  -0.004   0.002  0.00  0.00    +0.300 A 
ATOM     10  C   LIG    1       -0.016   1.348   0.009  0.00  0.00    -0.050 A 
BRANCH   8  11
ATOM     11  C   LIG    1        1.767  -1.786  -0.025  0.00  0.00    +0.680 C 
ATOM     12  F   LIG    1        1.283  -2.435  -1.166  0.00  0.00    -0.170 F 
ATOM     13  F   LIG    1        1.305  -2.448   1.118  0.00  0.00    -0.170 F 
ENDBRANCH   8  11
ENDBRANCH   3   6
BRANCH   1  14
ATOM     14  C   LIG    1        4.127   5.879  -0.007  0.00  0.00    +0.210 C 
BRANCH  14  15
ATOM     15  C   LIG    1        3.985   6.849  -1.182  0.00  0.00    +0.190 C 
BRANCH  15  16
ATOM     16  N   LIG    1        2.796   7.689  -0.983  0.00  0.00    -0.640 N 
ATOM     17  H   LIG    1        1.976   7.103  -0.929  0.00  0.00    +0.440 HD
ATOM     18  H   LIG    1        2.703   8.328  -1.758  0.00  0.00    +0.430 HD
ATOM     19  H   LIG    1        2.893   8.211  -0.125  0.00  0.00    +0.430 HD
ENDBRANCH  15  16
BRANCH  15  20
ATOM     20  C   LIG    1        5.229   7.736  -1.264  0.00  0.00    +0.070 C 
BRANCH  20  21
ATOM     21  C   LIG    1        5.144   8.619  -2.510  0.00  0.00    +0.380 C 
ATOM     22  F   LIG    1        6.330   9.348  -2.647  0.00  0.00    -0.180 F 
ATOM     23  F   LIG    1        4.066   9.503  -2.383  0.00  0.00    -0.210 F 
ENDBRANCH  20  21
ENDBRANCH  15  20
ENDBRANCH  14  15
ENDBRANCH   1  14
TORSDOF 7
