REMARK  Name = ZINCrg000000nGev.0
REMARK                            x       y       z     vdW  Elec       q    Type
REMARK                         _______ _______ _______ _____ _____    ______ ____
ROOT
ATOM      1  N   LIG    1        3.581   6.064   0.185  0.00  0.00    -0.990 NA
ENDROOT
BRANCH   1   2
ATOM      2  C   LIG    1        2.331   5.337   0.422  0.00  0.00    +0.250 C 
ATOM      3  C   LIG    1        1.202   5.969  -0.400  0.00  0.00    +0.030 C 
ATOM      4  C   LIG    1       -0.122   5.351   0.045  0.00  0.00    +0.080 C 
ATOM      5  C   LIG    1       -0.037   3.847   0.027  0.00  0.00    -0.080 A 
ATOM      6  C   LIG    1       -1.228   3.133   0.032  0.00  0.00    +0.000 A 
ATOM      7  C   LIG    1       -1.218   1.753   0.017  0.00  0.00    +0.000 A 
ATOM      8  C   LIG    1       -0.013   1.076   0.008  0.00  0.00    +0.000 A 
ATOM      9  C   LIG    1        1.171   1.784   0.001  0.00  0.00    +0.000 A 
ATOM     10  C   LIG    1        1.163   3.173   0.007  0.00  0.00    -0.080 A 
ATOM     11  C   LIG    1        2.491   3.883  -0.016  0.00  0.00    +0.070 C 
ENDBRANCH   1   2
BRANCH   1  12
ATOM     12  S   LIG    1        4.366   6.794   1.447  0.00  0.00    +2.720 S 
ATOM     13  O   LIG    1        3.385   7.030   2.448  0.00  0.00    -0.960 OA
ATOM     14  O   LIG    1        5.162   7.826   0.881  0.00  0.00    -0.920 OA
BRANCH  12  15
ATOM     15  C   LIG    1        5.487   5.612   2.118  0.00  0.00    -0.860 A 
ATOM     16  C   LIG    1        5.216   5.001   3.291  0.00  0.00    +0.510 A 
ATOM     17  N   LIG    1        6.095   4.082   3.796  0.00  0.00    -0.530 N 
ATOM     18  C   LIG    1        7.232   3.789   3.139  0.00  0.00    +0.690 A 
ATOM     19  N   LIG    1        7.530   4.388   1.970  0.00  0.00    -0.550 N 
ATOM     20  C   LIG    1        8.775   4.051   1.275  0.00  0.00    +0.350 C 
ATOM     21  O   LIG    1        8.002   2.973   3.607  0.00  0.00    -0.520 OA
ATOM     22  C   LIG    1        5.798   3.415   5.065  0.00  0.00    +0.350 C 
ATOM     23  C   LIG    1        6.687   5.295   1.437  0.00  0.00    +0.590 A 
ATOM     24  O   LIG    1        6.956   5.837   0.380  0.00  0.00    -0.490 OA
ENDBRANCH  12  15
ENDBRANCH   1  12
BRANCH   1  25
ATOM     25  C   LIG    1        4.136   6.145  -1.168  0.00  0.00    +0.300 C 
BRANCH  25  27
ATOM     26  C   LIG    1        4.066   7.396  -3.330  0.00  0.00    +0.020 C 
ATOM     27  C   LIG    1        3.486   7.311  -1.917  0.00  0.00    -0.010 C 
ENDBRANCH  25  27
ENDBRANCH   1  25
TORSDOF 5
