REMARK  Name = ZINCrH000004sxBr.0
REMARK                            x       y       z     vdW  Elec       q    Type
REMARK                         _______ _______ _______ _____ _____    ______ ____
ROOT
ATOM      1  C   LIG    1        2.489   0.618   0.283  0.00  0.00    +0.570 C 
ATOM      2  N   LIG    1        1.564   1.156  -0.536  0.00  0.00    -0.720 N 
ATOM      3  H   LIG    1        1.755   1.982  -1.008  0.00  0.00    +0.400 HD
ATOM      4  O   LIG    1        2.250  -0.417   0.874  0.00  0.00    -0.530 OA
ENDROOT
BRANCH   1   7
ATOM      5  C   LIG    1        4.348  -0.386   2.251  0.00  0.00    +0.160 C 
ATOM      6  C   LIG    1        4.709   0.813   1.412  0.00  0.00    +0.260 A 
ATOM      7  C   LIG    1        3.794   1.286   0.462  0.00  0.00    -0.240 A 
ATOM      8  C   LIG    1        4.129   2.400  -0.309  0.00  0.00    +0.190 A 
ATOM      9  C   LIG    1        5.376   2.992  -0.097  0.00  0.00    -0.250 A 
ATOM     10  C   LIG    1        6.072   4.134  -0.682  0.00  0.00    +0.290 A 
ATOM     11  N   LIG    1        7.229   4.232  -0.095  0.00  0.00    -0.230 NA
ATOM     12  N   LIG    1        7.371   3.223   0.862  0.00  0.00    -0.380 N 
ATOM     13  C   LIG    1        6.244   2.451   0.876  0.00  0.00    +0.340 A 
ATOM     14  N   LIG    1        5.876   1.388   1.583  0.00  0.00    -0.510 NA
BRANCH  12  15
ATOM     15  C   LIG    1        8.545   3.024   1.716  0.00  0.00    +0.270 C 
ATOM     16  C   LIG    1        8.772   4.273   2.570  0.00  0.00    +0.050 C 
ATOM     17  C   LIG    1        9.775   2.773   0.842  0.00  0.00    +0.050 C 
ENDBRANCH  12  15
ENDBRANCH   1   7
BRANCH   2  18
ATOM     18  C   LIG    1        0.269   0.493  -0.714  0.00  0.00    +0.230 C 
ATOM     19  C   LIG    1       -0.682   0.924   0.404  0.00  0.00    +0.020 C 
BRANCH  18  20
ATOM     20  C   LIG    1       -0.323   0.886  -2.069  0.00  0.00    +0.030 C 
BRANCH  20  21
ATOM     21  C   LIG    1        0.566   0.346  -3.191  0.00  0.00    +0.070 C 
BRANCH  21  22
ATOM     22  C   LIG    1       -0.018   0.734  -4.525  0.00  0.00    -0.090 A 
ATOM     23  C   LIG    1       -0.918  -0.106  -5.154  0.00  0.00    +0.030 A 
ATOM     24  C   LIG    1       -1.459   0.250  -6.375  0.00  0.00    -0.010 A 
ATOM     25  C   LIG    1       -1.090   1.445  -6.974  0.00  0.00    +0.100 A 
ATOM     26  C   LIG    1       -0.182   2.283  -6.343  0.00  0.00    -0.010 A 
ATOM     27  C   LIG    1        0.351   1.926  -5.120  0.00  0.00    +0.030 A 
BRANCH  25  28
ATOM     28  O   LIG    1       -1.615   1.794  -8.178  0.00  0.00    -0.500 OA
ATOM     29  H   LIG    1       -1.102   1.484  -8.936  0.00  0.00    +0.390 HD
ENDBRANCH  25  28
ENDBRANCH  21  22
ENDBRANCH  20  21
ENDBRANCH  18  20
ENDBRANCH   2  18
TORSDOF 7
