REMARK  Name = ZINCrH000004oKbj.0
REMARK                            x       y       z     vdW  Elec       q    Type
REMARK                         _______ _______ _______ _____ _____    ______ ____
ROOT
ATOM      1  C   LIG    1       -0.650   1.724  -1.226  0.00  0.00    +0.520 C 
ATOM      2  N   LIG    1       -0.288   1.272  -2.443  0.00  0.00    -0.670 N 
ATOM      3  H   LIG    1        0.480   0.688  -2.535  0.00  0.00    +0.410 HD
ATOM      4  O   LIG    1       -1.551   2.529  -1.121  0.00  0.00    -0.500 OA
ENDROOT
BRANCH   2   5
ATOM      5  C   LIG    1       -1.022   1.647  -3.576  0.00  0.00    +0.110 A 
ATOM      6  C   LIG    1       -2.393   1.847  -3.481  0.00  0.00    +0.060 A 
ATOM      7  C   LIG    1       -3.115   2.222  -4.597  0.00  0.00    -0.060 A 
ATOM      8  C   LIG    1       -2.473   2.387  -5.815  0.00  0.00    +0.120 A 
ATOM      9  C   LIG    1       -1.105   2.181  -5.913  0.00  0.00    +0.010 A 
ATOM     10  C   LIG    1       -0.381   1.812  -4.796  0.00  0.00    +0.030 A 
BRANCH   8  11
ATOM     11  O   LIG    1       -3.186   2.750  -6.915  0.00  0.00    -0.310 OA
BRANCH  11  12
ATOM     12  C   LIG    1       -4.591   2.945  -6.743  0.00  0.00    +0.240 C 
BRANCH  12  13
ATOM     13  C   LIG    1       -5.208   3.341  -8.059  0.00  0.00    -0.100 A 
ATOM     14  C   LIG    1       -5.305   4.676  -8.403  0.00  0.00    +0.020 A 
ATOM     15  C   LIG    1       -5.867   5.039  -9.613  0.00  0.00    +0.010 A 
ATOM     16  C   LIG    1       -6.342   4.068 -10.474  0.00  0.00    +0.010 A 
ATOM     17  C   LIG    1       -6.250   2.732 -10.127  0.00  0.00    +0.010 A 
ATOM     18  C   LIG    1       -5.683   2.369  -8.920  0.00  0.00    +0.020 A 
ENDBRANCH  12  13
ENDBRANCH  11  12
ENDBRANCH   8  11
ENDBRANCH   2   5
BRANCH   1  19
ATOM     19  C   LIG    1        0.064   1.228   0.005  0.00  0.00    +0.180 C 
ATOM     20  C   LIG    1        1.550   1.579  -0.092  0.00  0.00    +0.020 C 
BRANCH  19  24
ATOM     21  C   LIG    1        0.075   1.461   4.921  0.00  0.00    +0.050 C 
ATOM     22  C   LIG    1       -0.591   1.967   3.640  0.00  0.00    +0.160 C 
ATOM     23  C   LIG    1        0.079   1.319   2.425  0.00  0.00    +0.160 C 
ATOM     24  N   LIG    1       -0.513   1.866   1.196  0.00  0.00    -0.510 NA
ATOM     25  C   LIG    1       -0.347   3.326   1.144  0.00  0.00    +0.160 C 
ATOM     26  C   LIG    1       -1.013   3.954   2.371  0.00  0.00    +0.190 C 
ATOM     27  C   LIG    1       -2.517   3.672   2.337  0.00  0.00    +0.020 C 
ATOM     28  O   LIG    1       -0.447   3.387   3.556  0.00  0.00    -0.380 OA
ENDBRANCH  19  24
ENDBRANCH   1  19
TORSDOF 6
