REMARK  Name = ZINCrH000004tIFv.0
REMARK                            x       y       z     vdW  Elec       q    Type
REMARK                         _______ _______ _______ _____ _____    ______ ____
ROOT
ATOM      1  O   LIG    1        1.055   0.558   2.378  0.00  0.00    -0.490 OA
ATOM      2  C   LIG    1       -0.032   1.084   2.488  0.00  0.00    +0.510 C 
ATOM      3  N   LIG    1       -0.543   1.327   3.711  0.00  0.00    -0.620 N 
ATOM      4  H   LIG    1       -1.412   1.748   3.799  0.00  0.00    +0.430 HD
ENDROOT
BRANCH   3   5
ATOM      5  C   LIG    1        0.176   0.974   4.846  0.00  0.00    +0.270 A 
ATOM      6  N   LIG    1       -0.213   1.163   6.068  0.00  0.00    -0.500 NA
ATOM      7  C   LIG    1        0.604   0.758   7.031  0.00  0.00    +0.120 A 
ATOM      8  C   LIG    1        1.756   0.202   6.612  0.00  0.00    -0.060 A 
ATOM      9  S   LIG    1        1.761   0.206   4.850  0.00  0.00    +0.210 S 
BRANCH   7  10
ATOM     10  C   LIG    1        0.275   0.911   8.467  0.00  0.00    +0.190 A 
ATOM     11  C   LIG    1       -0.935   1.495   8.840  0.00  0.00    +0.000 A 
ATOM     12  C   LIG    1       -1.229   1.632  10.186  0.00  0.00    +0.060 A 
ATOM     13  C   LIG    1       -0.303   1.179  11.115  0.00  0.00    -0.030 A 
ATOM     14  C   LIG    1        0.877   0.610  10.675  0.00  0.00    +0.260 A 
ATOM     15  N   LIG    1        1.131   0.486   9.388  0.00  0.00    -0.480 NA
ENDBRANCH   7  10
ENDBRANCH   3   5
BRANCH   2  16
ATOM     16  C   LIG    1       -0.811   1.467   1.256  0.00  0.00    +0.090 C 
BRANCH  16  17
ATOM     17  C   LIG    1       -0.013   1.086   0.008  0.00  0.00    +0.080 C 
BRANCH  17  18
ATOM     18  C   LIG    1       -0.856   1.357  -1.240  0.00  0.00    +0.010 C 
ATOM     19  C   LIG    1       -1.105   2.860  -1.368  0.00  0.00    +0.100 C 
ATOM     20  C   LIG    1       -1.680   3.164  -2.727  0.00  0.00    -0.130 A 
ATOM     21  C   LIG    1       -2.575   4.205  -2.880  0.00  0.00    +0.050 A 
ATOM     22  C   LIG    1       -3.079   4.508  -4.132  0.00  0.00    -0.010 A 
ATOM     23  C   LIG    1       -2.688   3.769  -5.234  0.00  0.00    +0.040 A 
ATOM     24  C   LIG    1       -1.799   2.723  -5.086  0.00  0.00    -0.020 A 
ATOM     25  C   LIG    1       -1.296   2.413  -3.829  0.00  0.00    +0.160 A 
ATOM     26  N   LIG    1       -0.407   1.345  -3.676  0.00  0.00    -0.660 N 
ATOM     27  H   LIG    1        0.010   0.952  -4.459  0.00  0.00    +0.410 HD
ATOM     28  C   LIG    1       -0.125   0.855  -2.457  0.00  0.00    +0.520 C 
ATOM     29  O   LIG    1        0.728   0.001  -2.335  0.00  0.00    -0.510 OA
ENDBRANCH  17  18
ENDBRANCH  16  17
ENDBRANCH   2  16
TORSDOF 5
