REMARK  Name = ZINC670000002GVm.0
REMARK                            x       y       z     vdW  Elec       q    Type
REMARK                         _______ _______ _______ _____ _____    ______ ____
ROOT
ATOM      1  O   LIG    1       -1.474   4.040   0.037  0.00  0.00    -0.550 OA
ATOM      2  C   LIG    1       -0.752   3.059   0.026  0.00  0.00    +0.530 A 
ATOM      3  C   LIG    1        0.662   3.062   0.012  0.00  0.00    -0.190 A 
ATOM      4  C   LIG    1        1.084   1.782   0.001  0.00  0.00    +0.350 A 
ATOM      5  N   LIG    1       -0.011   0.966   0.007  0.00  0.00    -0.500 N 
ATOM      6  H   LIG    1        0.002  -0.004   0.002  0.00  0.00    +0.440 HD
ATOM      7  N   LIG    1       -1.157   1.772   0.017  0.00  0.00    -0.530 N 
ATOM      8  H   LIG    1       -2.076   1.461   0.018  0.00  0.00    +0.440 HD
ENDROOT
TORSDOF 0
