REMARK  Name = ZINCpk00000ear5w.0
REMARK                            x       y       z     vdW  Elec       q    Type
REMARK                         _______ _______ _______ _____ _____    ______ ____
ROOT
ATOM      1  N   LIG    1       -0.698   1.558   1.213  0.00  0.00    -0.720 N 
ATOM      2  H   LIG    1       -1.495   2.106   1.135  0.00  0.00    +0.400 HD
ATOM      3  C   LIG    1       -0.222   1.232   2.431  0.00  0.00    +0.520 C 
ATOM      4  O   LIG    1        0.774   0.548   2.529  0.00  0.00    -0.510 OA
ENDROOT
BRANCH   1   5
ATOM      5  C   LIG    1       -0.013   1.086   0.008  0.00  0.00    +0.330 C 
BRANCH   5   9
ATOM      6  C   LIG    1       -2.079   2.501  -3.454  0.00  0.00    +0.140 A 
ATOM      7  C   LIG    1       -1.063   3.261  -2.893  0.00  0.00    -0.020 A 
ATOM      8  C   LIG    1       -0.397   2.801  -1.773  0.00  0.00    +0.070 A 
ATOM      9  C   LIG    1       -0.742   1.585  -1.213  0.00  0.00    -0.150 A 
ATOM     10  C   LIG    1       -1.750   0.824  -1.774  0.00  0.00    +0.070 A 
ATOM     11  C   LIG    1       -2.423   1.282  -2.890  0.00  0.00    -0.080 A 
BRANCH   6  13
ATOM     12  C   LIG    1       -3.771   2.116  -5.080  0.00  0.00    +0.250 C 
ATOM     13  O   LIG    1       -2.736   2.951  -4.556  0.00  0.00    -0.320 OA
ENDBRANCH   6  13
ENDBRANCH   5   9
ENDBRANCH   1   5
BRANCH   3  14
ATOM     14  C   LIG    1       -0.927   1.718   3.671  0.00  0.00    +0.250 C 
BRANCH  14  15
ATOM     15  O   LIG    1       -0.225   1.237   4.847  0.00  0.00    -0.330 OA
BRANCH  15  16
ATOM     16  C   LIG    1       -0.729   1.585   6.042  0.00  0.00    +0.460 C 
ATOM     17  O   LIG    1       -1.723   2.268   6.103  0.00  0.00    -0.500 OA
BRANCH  16  18
ATOM     18  C   LIG    1       -0.053   1.122   7.308  0.00  0.00    +0.200 C 
BRANCH  18  19
ATOM     19  C   LIG    1       -0.811   1.644   8.501  0.00  0.00    -0.240 A 
ATOM     20  C   LIG    1       -0.589   2.820   9.134  0.00  0.00    +0.110 A 
ATOM     21  N   LIG    1       -1.476   2.917  10.146  0.00  0.00    -0.370 N 
ATOM     22  N   LIG    1       -2.264   1.759  10.140  0.00  0.00    -0.300 NA
ATOM     23  C   LIG    1       -1.591   4.033  11.088  0.00  0.00    +0.360 C 
ATOM     24  C   LIG    1        0.460   3.839   8.771  0.00  0.00    +0.140 C 
ATOM     25  C   LIG    1       -1.865   0.997   9.154  0.00  0.00    +0.090 A 
ATOM     26  C   LIG    1       -2.441  -0.346   8.786  0.00  0.00    +0.150 C 
ENDBRANCH  18  19
ENDBRANCH  16  18
ENDBRANCH  15  16
ENDBRANCH  14  15
ENDBRANCH   3  14
TORSDOF 8
