REMARK  Name = ZINCrD00000hQ7bZ.0
REMARK                            x       y       z     vdW  Elec       q    Type
REMARK                         _______ _______ _______ _____ _____    ______ ____
ROOT
ATOM      1  C   LIG    1       -0.775  -0.640   5.572  0.00  0.00    +0.210 C 
ATOM      2  C   LIG    1       -1.914   0.328   5.381  0.00  0.00    +0.170 A 
ATOM      3  C   LIG    1       -2.771   0.735   6.343  0.00  0.00    -0.780 A 
ATOM      4  C   LIG    1       -3.668   1.633   5.745  0.00  0.00    +0.150 A 
ATOM      5  C   LIG    1       -3.314   1.724   4.429  0.00  0.00    -0.090 A 
ATOM      6  O   LIG    1       -2.245   0.926   4.229  0.00  0.00    -0.150 OA
ENDROOT
BRANCH   5   7
ATOM      7  C   LIG    1       -3.976   2.549   3.414  0.00  0.00    +0.610 C 
ATOM      8  N   LIG    1       -3.520   2.551   2.145  0.00  0.00    -0.690 N 
ATOM      9  H   LIG    1       -2.754   2.007   1.905  0.00  0.00    +0.410 HD
ATOM     10  O   LIG    1       -4.937   3.231   3.716  0.00  0.00    -0.510 OA
BRANCH   8  11
ATOM     11  C   LIG    1       -4.181   3.376   1.131  0.00  0.00    +0.240 C 
ATOM     12  C   LIG    1       -4.431   2.743  -0.240  0.00  0.00    +0.040 C 
ATOM     13  C   LIG    1       -3.349   3.813  -0.076  0.00  0.00    +0.010 C 
BRANCH  13  14
ATOM     14  C   LIG    1       -1.912   3.362  -0.131  0.00  0.00    -0.040 A 
ATOM     15  C   LIG    1       -1.611   2.014  -0.148  0.00  0.00    +0.000 A 
ATOM     16  C   LIG    1       -0.293   1.600  -0.193  0.00  0.00    +0.040 A 
ATOM     17  C   LIG    1        0.725   2.534  -0.231  0.00  0.00    +0.030 A 
ATOM     18  C   LIG    1        0.423   3.885  -0.218  0.00  0.00    -0.030 A 
ATOM     19 CL   LIG    1        1.700   5.060  -0.265  0.00  0.00    -0.060 Cl
ATOM     20  C   LIG    1       -0.896   4.298  -0.169  0.00  0.00    +0.040 A 
ENDBRANCH  13  14
ENDBRANCH   8  11
ENDBRANCH   5   7
BRANCH   3  21
ATOM     21  S   LIG    1       -2.760   0.236   8.033  0.00  0.00    +2.740 S 
ATOM     22  O   LIG    1       -3.831   0.926   8.662  0.00  0.00    -0.940 OA
ATOM     23  O   LIG    1       -1.411   0.331   8.471  0.00  0.00    -0.950 OA
BRANCH  21  24
ATOM     24  N   LIG    1       -3.153  -1.372   8.072  0.00  0.00    -1.010 NA
ATOM     25  C   LIG    1       -4.516  -1.921   8.062  0.00  0.00    +0.270 C 
ATOM     26  C   LIG    1       -4.392  -3.458   8.134  0.00  0.00    +0.030 C 
ATOM     27  C   LIG    1       -2.986  -3.662   8.759  0.00  0.00    +0.040 C 
ATOM     28  C   LIG    1       -2.193  -2.490   8.129  0.00  0.00    +0.270 C 
ENDBRANCH  21  24
ENDBRANCH   3  21
TORSDOF 5
