REMARK  Name = ZINCqH000003936U.0
REMARK                            x       y       z     vdW  Elec       q    Type
REMARK                         _______ _______ _______ _____ _____    ______ ____
ROOT
ATOM      1  C   LIG    1        1.282  -0.451  -0.005  0.00  0.00    -0.230 A 
ATOM      2  C   LIG    1        0.004  -0.009  -0.185  0.00  0.00    +0.280 A 
ATOM      3  N   LIG    1       -0.029   1.343  -0.099  0.00  0.00    -0.460 N 
ATOM      4  C   LIG    1        1.234   1.841   0.142  0.00  0.00    +0.100 A 
ATOM      5  C   LIG    1        1.734   3.128   0.311  0.00  0.00    +0.000 A 
ATOM      6  C   LIG    1        3.078   3.319   0.546  0.00  0.00    +0.030 A 
ATOM      7  C   LIG    1        3.944   2.237   0.615  0.00  0.00    +0.000 A 
ATOM      8  C   LIG    1        3.468   0.955   0.450  0.00  0.00    +0.060 A 
ATOM      9  C   LIG    1        2.112   0.747   0.213  0.00  0.00    -0.060 A 
ENDROOT
BRANCH   1  16
ATOM     10  C   LIG    1        1.662  -4.105  -0.922  0.00  0.00    +0.390 C 
ATOM     11  C   LIG    1        0.401  -4.947  -0.701  0.00  0.00    +0.140 C 
ATOM     12  S   LIG    1       -0.773  -4.609  -2.047  0.00  0.00    -0.230 S 
ATOM     13  C   LIG    1       -0.935  -2.800  -1.974  0.00  0.00    +0.100 C 
ATOM     14  C   LIG    1        0.457  -2.176  -2.063  0.00  0.00    +0.290 C 
ATOM     15  N   LIG    1        1.299  -2.688  -0.980  0.00  0.00    -0.610 N 
ATOM     16  C   LIG    1        1.740  -1.847  -0.024  0.00  0.00    +0.600 C 
ATOM     17  O   LIG    1        2.517  -2.244   0.824  0.00  0.00    -0.520 OA
BRANCH  10  19
ATOM     18  N   LIG    1        2.793  -4.806  -3.165  0.00  0.00    -0.390 NA
ATOM     19  C   LIG    1        2.300  -4.500  -2.188  0.00  0.00    +0.200 C 
ENDBRANCH  10  19
ENDBRANCH   1  16
BRANCH   3  20
ATOM     20  C   LIG    1       -1.236   2.160  -0.248  0.00  0.00    +0.350 C 
BRANCH  20  21
ATOM     21  C   LIG    1       -1.347   2.637  -1.673  0.00  0.00    -0.120 A 
ATOM     22  C   LIG    1       -0.774   3.838  -2.047  0.00  0.00    +0.020 A 
ATOM     23  C   LIG    1       -0.871   4.273  -3.356  0.00  0.00    +0.010 A 
ATOM     24  C   LIG    1       -1.551   3.512  -4.288  0.00  0.00    +0.020 A 
ATOM     25  C   LIG    1       -2.129   2.313  -3.913  0.00  0.00    +0.010 A 
ATOM     26  C   LIG    1       -2.027   1.876  -2.606  0.00  0.00    +0.020 A 
ENDBRANCH  20  21
ENDBRANCH   3  20
TORSDOF 4
