REMARK  Name = ZINCrH000004suNW.0
REMARK                            x       y       z     vdW  Elec       q    Type
REMARK                         _______ _______ _______ _____ _____    ______ ____
ROOT
ATOM      1  N   LIG    1        6.982   1.558  -0.118  0.00  0.00    -0.630 N 
ATOM      2  H   LIG    1        6.801   2.204   0.582  0.00  0.00    +0.420 HD
ATOM      3  C   LIG    1        6.074   0.604  -0.406  0.00  0.00    +0.510 C 
ATOM      4  O   LIG    1        6.300  -0.204  -1.281  0.00  0.00    -0.430 OA
ENDROOT
BRANCH   1   9
ATOM      5  C   LIG    1       10.207   0.124  -3.457  0.00  0.00    +0.170 C 
ATOM      6  C   LIG    1        9.684   0.993  -2.341  0.00  0.00    +0.150 A 
ATOM      7  C   LIG    1       10.380   2.035  -1.838  0.00  0.00    -0.230 A 
ATOM      8  S   LIG    1        9.410   2.767  -0.562  0.00  0.00    +0.160 S 
ATOM      9  C   LIG    1        8.175   1.614  -0.823  0.00  0.00    +0.270 A 
ATOM     10  N   LIG    1        8.517   0.796  -1.772  0.00  0.00    -0.470 NA
BRANCH   7  11
ATOM     11  C   LIG    1       11.715   2.482  -2.279  0.00  0.00    +0.220 A 
ATOM     12  C   LIG    1       12.314   3.586  -1.667  0.00  0.00    -0.040 A 
ATOM     13  C   LIG    1       13.567   3.990  -2.089  0.00  0.00    +0.080 A 
ATOM     14  C   LIG    1       14.181   3.285  -3.116  0.00  0.00    -0.040 A 
ATOM     15  C   LIG    1       13.530   2.204  -3.682  0.00  0.00    +0.270 A 
ATOM     16  N   LIG    1       12.337   1.835  -3.259  0.00  0.00    -0.470 NA
ENDBRANCH   7  11
ENDBRANCH   1   9
BRANCH   3  17
ATOM     17  C   LIG    1        4.777   0.543   0.359  0.00  0.00    +0.150 C 
ATOM     18  C   LIG    1        3.850   1.721  -0.032  0.00  0.00    +0.090 C 
ATOM     19  C   LIG    1        2.477   1.076  -0.016  0.00  0.00    +0.130 C 
ATOM     20  N   LIG    1        2.631  -0.205  -0.026  0.00  0.00    -0.270 NA
ATOM     21  O   LIG    1        3.990  -0.595  -0.048  0.00  0.00    -0.160 OA
BRANCH  19  22
ATOM     22  C   LIG    1        1.186   1.792   0.000  0.00  0.00    -0.020 A 
ATOM     23  C   LIG    1        1.158   3.188   0.008  0.00  0.00    +0.040 A 
ATOM     24  C   LIG    1       -0.052   3.852   0.023  0.00  0.00    +0.050 A 
ATOM     25  C   LIG    1       -1.236   3.138   0.030  0.00  0.00    +0.010 A 
ATOM     26  C   LIG    1       -1.217   1.752   0.017  0.00  0.00    +0.100 A 
ATOM     27  F   LIG    1       -2.378   1.062   0.019  0.00  0.00    -0.130 F 
ATOM     28  C   LIG    1       -0.013   1.076   0.008  0.00  0.00    +0.030 A 
ENDBRANCH  19  22
ENDBRANCH   3  17
TORSDOF 4
