REMARK  Name = ZINCvU00000006et.0
REMARK                            x       y       z     vdW  Elec       q    Type
REMARK                         _______ _______ _______ _____ _____    ______ ____
ROOT
ATOM      1  C   LIG    1       11.860   7.242  -1.263  0.00  0.00    +0.150 C 
ATOM      2  C   LIG    1       10.412   7.191  -0.846  0.00  0.00    -0.200 A 
ATOM      3  C   LIG    1        9.562   8.190  -0.986  0.00  0.00    -0.030 A 
ATOM      4  C   LIG    1        8.218   7.915  -0.514  0.00  0.00    -0.230 A 
ATOM      5  C   LIG    1        8.096   6.627   0.002  0.00  0.00    +0.090 A 
ATOM      6  N   LIG    1        6.910   6.212   0.489  0.00  0.00    -0.510 NA
ATOM      7  C   LIG    1        5.854   6.989   0.482  0.00  0.00    +0.360 A 
ATOM      8  N   LIG    1        5.908   8.264  -0.010  0.00  0.00    -0.470 N 
ATOM      9  C   LIG    1        7.061   8.751  -0.509  0.00  0.00    +0.570 A 
ATOM     10  O   LIG    1        7.115   9.886  -0.949  0.00  0.00    -0.500 OA
ATOM     11  C   LIG    1        9.957   9.513  -1.589  0.00  0.00    +0.120 C 
ATOM     12  S   LIG    1        9.643   5.797  -0.113  0.00  0.00    +0.200 S 
ENDROOT
BRANCH   8  13
ATOM     13  C   LIG    1        4.760   9.066   0.005  0.00  0.00    +0.090 A 
ATOM     14  C   LIG    1        3.892   9.059  -1.079  0.00  0.00    +0.040 A 
ATOM     15  C   LIG    1        2.758   9.847  -1.059  0.00  0.00    +0.030 A 
ATOM     16  C   LIG    1        2.492  10.651   0.034  0.00  0.00    +0.040 A 
ATOM     17  C   LIG    1        3.358  10.666   1.112  0.00  0.00    +0.030 A 
ATOM     18  C   LIG    1        4.491   9.875   1.101  0.00  0.00    +0.040 A 
ENDBRANCH   8  13
BRANCH   7  19
ATOM     19  S   LIG    1        4.333   6.381   1.129  0.00  0.00    +0.120 S 
BRANCH  19  20
ATOM     20  C   LIG    1        4.842   4.713   1.614  0.00  0.00    +0.120 C 
BRANCH  20  21
ATOM     21  C   LIG    1        3.667   3.982   2.211  0.00  0.00    +0.530 C 
ATOM     22  N   LIG    1        3.812   2.715   2.646  0.00  0.00    -0.650 N 
ATOM     23  H   LIG    1        4.672   2.273   2.575  0.00  0.00    +0.420 HD
ATOM     24  O   LIG    1        2.591   4.535   2.300  0.00  0.00    -0.450 OA
BRANCH  22  25
ATOM     25  C   LIG    1        2.724   2.039   3.199  0.00  0.00    +0.380 A 
ATOM     26  N   LIG    1        1.553   2.647   3.293  0.00  0.00    -0.450 NA
ATOM     27  C   LIG    1        0.499   2.045   3.809  0.00  0.00    +0.340 A 
ATOM     28  C   LIG    1        0.582   0.746   4.273  0.00  0.00    -0.110 A 
ATOM     29  C   LIG    1        1.793   0.071   4.192  0.00  0.00    +0.130 A 
ATOM     30 CL   LIG    1       -0.814  -0.035   4.949  0.00  0.00    -0.040 Cl
ATOM     31  C   LIG    1        2.881   0.730   3.646  0.00  0.00    -0.120 A 
ATOM     32 CL   LIG    1        4.420  -0.064   3.520  0.00  0.00    -0.040 Cl
ENDBRANCH  22  25
ENDBRANCH  20  21
ENDBRANCH  19  20
ENDBRANCH   7  19
TORSDOF 5
