REMARK  Name = ZINCrD00000F5LCA.0
REMARK                            x       y       z     vdW  Elec       q    Type
REMARK                         _______ _______ _______ _____ _____    ______ ____
ROOT
ATOM      1  O   LIG    1       -2.487  -0.339   0.011  0.00  0.00    -0.340 OA
ENDROOT
BRANCH   1   2
ATOM      2  C   LIG    1       -2.500   1.009   0.019  0.00  0.00    +0.510 C 
ATOM      3  O   LIG    1       -3.558   1.607   0.027  0.00  0.00    -0.470 OA
BRANCH   2   4
ATOM      4  C   LIG    1       -1.231   1.757   0.017  0.00  0.00    -0.100 A 
ATOM      5  C   LIG    1       -0.013   1.076   0.008  0.00  0.00    +0.100 A 
ATOM      6  C   LIG    1        1.172   1.782   0.000  0.00  0.00    +0.010 A 
ATOM      7  C   LIG    1        1.164   3.167   0.008  0.00  0.00    +0.060 A 
ATOM      8  C   LIG    1       -0.028   3.861   0.024  0.00  0.00    -0.010 A 
ATOM      9  C   LIG    1       -1.238   3.167   0.031  0.00  0.00    +0.170 A 
BRANCH   9  10
ATOM     10  N   LIG    1       -2.423   3.849   0.046  0.00  0.00    -0.320 NA
ATOM     11  N   LIG    1       -2.424   5.139   0.053  0.00  0.00    +0.050 NA
BRANCH  11  12
ATOM     12  N   LIG    1       -3.638   5.838   0.069  0.00  0.00    -0.490 N 
ATOM     13  C   LIG    1       -3.640   7.303   0.077  0.00  0.00    +0.340 C 
ATOM     14  C   LIG    1       -4.906   5.104   0.077  0.00  0.00    +0.290 C 
ENDBRANCH  11  12
ENDBRANCH   9  10
ENDBRANCH   2   4
ENDBRANCH   1   2
BRANCH   1  15
ATOM     15  C   LIG    1       -3.775  -1.010   0.013  0.00  0.00    +0.270 C 
BRANCH  15  26
ATOM     16  C   LIG    1       -3.816  -5.296   1.243  0.00  0.00    +0.050 C 
ATOM     17  C   LIG    1       -4.546  -4.796  -0.005  0.00  0.00    +0.230 C 
ATOM     18  C   LIG    1       -6.006  -5.279  -0.001  0.00  0.00    +0.110 C 
ATOM     19  C   LIG    1       -6.826  -4.009   0.010  0.00  0.00    -0.130 A 
ATOM     20  C   LIG    1       -8.194  -3.814   0.019  0.00  0.00    +0.060 A 
ATOM     21  C   LIG    1       -8.713  -2.532   0.029  0.00  0.00    -0.010 A 
ATOM     22  C   LIG    1       -7.859  -1.445   0.032  0.00  0.00    +0.050 A 
ATOM     23  C   LIG    1       -6.494  -1.634   0.023  0.00  0.00    -0.030 A 
ATOM     24  C   LIG    1       -5.962  -2.925   0.018  0.00  0.00    +0.140 A 
ATOM     25  N   LIG    1       -4.625  -3.333   0.003  0.00  0.00    -0.550 N 
ATOM     26  C   LIG    1       -3.564  -2.502   0.003  0.00  0.00    +0.530 C 
ATOM     27  O   LIG    1       -2.439  -2.955  -0.004  0.00  0.00    -0.490 OA
ENDBRANCH  15  26
ENDBRANCH   1  15
TORSDOF 6
