REMARK  Name = ZINCrg00000IYkQu.0
REMARK                            x       y       z     vdW  Elec       q    Type
REMARK                         _______ _______ _______ _____ _____    ______ ____
ROOT
ATOM      1  C   LIG    1        2.478   1.075  -0.016  0.00  0.00    +0.570 C 
ATOM      2  N   LIG    1        3.631   1.766  -0.125  0.00  0.00    -0.610 N 
ATOM      3  C   LIG    1        3.624   3.235  -0.125  0.00  0.00    +0.270 C 
ATOM      4  C   LIG    1        4.564   3.724   0.991  0.00  0.00    +0.310 C 
ATOM      5  N   LIG    1        5.848   3.021   0.863  0.00  0.00    -0.990 NA
ATOM      6  C   LIG    1        5.854   1.551   0.857  0.00  0.00    +0.300 C 
ATOM      7  C   LIG    1        4.915   1.063  -0.253  0.00  0.00    +0.280 C 
ATOM      8  O   LIG    1        2.503  -0.136   0.085  0.00  0.00    -0.530 OA
ENDROOT
BRANCH   1  13
ATOM      9  C   LIG    1       -1.028   2.092   0.865  0.00  0.00    -0.090 A 
ATOM     10  C   LIG    1       -1.239   3.129  -0.027  0.00  0.00    +0.060 A 
ATOM     11  C   LIG    1       -0.247   3.496  -0.919  0.00  0.00    +0.000 A 
ATOM     12  C   LIG    1        0.963   2.833  -0.920  0.00  0.00    +0.040 A 
ATOM     13  C   LIG    1        1.185   1.790  -0.020  0.00  0.00    -0.130 A 
ATOM     14  C   LIG    1        0.180   1.425   0.877  0.00  0.00    +0.090 A 
BRANCH   9  15
ATOM     15  C   LIG    1       -2.117   1.695   1.828  0.00  0.00    +0.220 C 
BRANCH  15  17
ATOM     16  C   LIG    1       -2.973   2.148   4.021  0.00  0.00    +0.200 C 
ATOM     17  O   LIG    1       -1.984   2.450   3.034  0.00  0.00    -0.390 OA
ENDBRANCH  15  17
ENDBRANCH   9  15
ENDBRANCH   1  13
BRANCH   5  18
ATOM     18  S   LIG    1        7.264   3.870   0.728  0.00  0.00    +2.730 S 
ATOM     19  O   LIG    1        8.297   3.000   1.170  0.00  0.00    -0.940 OA
ATOM     20  O   LIG    1        7.023   5.146   1.304  0.00  0.00    -0.940 OA
BRANCH  18  21
ATOM     21  C   LIG    1        7.546   4.144  -0.990  0.00  0.00    -0.830 A 
ATOM     22  C   LIG    1        7.469   5.295  -1.643  0.00  0.00    +0.270 A 
ATOM     23  N   LIG    1        7.737   5.259  -2.980  0.00  0.00    -0.640 N 
ATOM     24  H   LIG    1        7.704   6.062  -3.523  0.00  0.00    +0.420 HD
ATOM     25  C   LIG    1        8.042   4.066  -3.514  0.00  0.00    +0.470 A 
ATOM     26  O   LIG    1        8.306   3.829  -4.679  0.00  0.00    -0.450 OA
ATOM     27  C   LIG    1        7.108   6.579  -0.943  0.00  0.00    +0.180 C 
ATOM     28  S   LIG    1        7.985   2.939  -2.213  0.00  0.00    +0.120 S 
ENDBRANCH  18  21
ENDBRANCH   5  18
TORSDOF 5
