REMARK  Name = ZINCpk00000Faipb.0
REMARK                            x       y       z     vdW  Elec       q    Type
REMARK                         _______ _______ _______ _____ _____    ______ ____
ROOT
ATOM      1  C   LIG    1       -1.615  -5.785   1.130  0.00  0.00    +0.160 C 
ATOM      2  C   LIG    1       -1.098  -6.964   0.265  0.00  0.00    +0.070 C 
ATOM      3  C   LIG    1        0.312  -6.497  -0.154  0.00  0.00    +0.230 C 
ATOM      4  N   LIG    1        0.339  -5.032  -0.035  0.00  0.00    -0.600 N 
ATOM      5  C   LIG    1        1.402  -4.243  -0.290  0.00  0.00    +0.580 C 
ATOM      6  O   LIG    1        1.346  -3.052  -0.051  0.00  0.00    -0.530 OA
ATOM      7  C   LIG    1       -0.990  -4.568   0.402  0.00  0.00    +0.250 C 
ENDROOT
BRANCH   5   8
ATOM      8  C   LIG    1        2.635  -4.825  -0.860  0.00  0.00    -0.150 A 
ATOM      9  C   LIG    1        2.860  -6.200  -0.785  0.00  0.00    +0.070 A 
ATOM     10  C   LIG    1        4.014  -6.738  -1.319  0.00  0.00    +0.030 A 
ATOM     11  C   LIG    1        4.944  -5.919  -1.926  0.00  0.00    -0.100 A 
ATOM     12  C   LIG    1        6.273  -6.198  -2.589  0.00  0.00    +0.270 C 
ATOM     13  O   LIG    1        6.568  -5.038  -3.389  0.00  0.00    -0.360 OA
ATOM     14  C   LIG    1        5.914  -3.947  -2.717  0.00  0.00    +0.270 C 
ATOM     15  C   LIG    1        4.726  -4.550  -2.004  0.00  0.00    -0.150 A 
ATOM     16  C   LIG    1        3.580  -4.001  -1.476  0.00  0.00    +0.110 A 
ENDBRANCH   5   8
BRANCH   1  18
ATOM     17  C   LIG    1       -1.940  -5.197   3.431  0.00  0.00    +0.210 C 
ATOM     18  O   LIG    1       -1.132  -5.882   2.471  0.00  0.00    -0.370 OA
ENDBRANCH   1  18
BRANCH   3  19
ATOM     19  C   LIG    1        0.591  -6.907  -1.601  0.00  0.00    +0.310 C 
BRANCH  19  20
ATOM     20  N   LIG    1        0.767  -8.360  -1.672  0.00  0.00    -0.370 N 
ATOM     21  C   LIG    1        0.089  -9.203  -2.478  0.00  0.00    +0.250 A 
ATOM     22  C   LIG    1        0.545 -10.455  -2.247  0.00  0.00    -0.170 A 
ATOM     23  C   LIG    1        1.534 -10.377  -1.253  0.00  0.00    +0.340 A 
ATOM     24  N   LIG    1        1.666  -9.117  -0.909  0.00  0.00    -0.350 NA
BRANCH  23  25
ATOM     25  N   LIG    1        2.253 -11.454  -0.722  0.00  0.00    -0.850 N 
ATOM     26  H   LIG    1        2.085 -12.354  -1.041  0.00  0.00    +0.410 HD
ATOM     27  H   LIG    1        2.920 -11.300  -0.035  0.00  0.00    +0.400 HD
ENDBRANCH  23  25
ENDBRANCH  19  20
ENDBRANCH   3  19
TORSDOF 5
