REMARK  Name = ZINC5l0000000007.0
REMARK                            x       y       z     vdW  Elec       q    Type
REMARK                         _______ _______ _______ _____ _____    ______ ____
ROOT
ATOM      1  C   LIG    1       -1.328   1.812   0.018  0.00  0.00    +0.110 C 
ENDROOT
BRANCH   1   3
ATOM      2  C   LIG    1        1.113   1.746   0.001  0.00  0.00    +0.050 C 
ATOM      3  C   LIG    1       -0.013   1.076   0.008  0.00  0.00    -0.030 C 
ENDBRANCH   1   3
BRANCH   1   4
ATOM      4  S   LIG    1       -2.216   1.484  -1.529  0.00  0.00    -0.260 S 
ATOM      5  C   LIG    1       -3.746   2.439  -1.332  0.00  0.00    +0.140 C 
ENDBRANCH   1   4
TORSDOF 2
