REMARK  Name = ZINCrg00000fRD9l.1
REMARK                            x       y       z     vdW  Elec       q    Type
REMARK                         _______ _______ _______ _____ _____    ______ ____
ROOT
ATOM      1  C   LIG    1        1.018   7.097  -0.925  0.00  0.00    +0.540 C 
ATOM      2  N   LIG    1        1.581   5.945  -0.510  0.00  0.00    -0.600 N 
ATOM      3  C   LIG    1        2.386   5.131  -1.431  0.00  0.00    +0.300 C 
ATOM      4  C   LIG    1        1.836   3.701  -1.434  0.00  0.00    +0.030 C 
ATOM      5  C   LIG    1        1.796   3.171   0.002  0.00  0.00    +0.120 C 
ATOM      6  C   LIG    1        0.863   4.046   0.843  0.00  0.00    +0.010 C 
ATOM      7  C   LIG    1        1.402   5.479   0.872  0.00  0.00    +0.310 C 
ATOM      8  O   LIG    1        1.173   7.471  -2.068  0.00  0.00    -0.510 OA
ENDROOT
BRANCH   1  14
ATOM      9  C   LIG    1        1.879  10.103   2.684  0.00  0.00    +0.300 C 
ATOM     10  N   LIG    1        1.011   9.697   1.575  0.00  0.00    -0.600 N 
ATOM     11  C   LIG    1        0.107  10.687   0.993  0.00  0.00    +0.240 C 
ATOM     12  C   LIG    1       -0.996   9.982   0.201  0.00  0.00    +0.240 C 
ATOM     13  O   LIG    1       -0.392   9.019  -0.671  0.00  0.00    -0.340 OA
ATOM     14  C   LIG    1        0.195   7.921   0.031  0.00  0.00    +0.180 C 
ATOM     15  C   LIG    1        1.077   8.435   1.135  0.00  0.00    +0.500 C 
ATOM     16  O   LIG    1        1.877   7.679   1.645  0.00  0.00    -0.520 OA
ENDBRANCH   1  14
BRANCH   5  17
ATOM     17  C   LIG    1        1.288   1.753  -0.001  0.00  0.00    +0.200 A 
ATOM     18  N   LIG    1        2.018   0.670  -0.014  0.00  0.00    -0.280 NA
ATOM     19  N   LIG    1        1.264  -0.371  -0.012  0.00  0.00    -0.270 NA
ATOM     20  C   LIG    1        0.002  -0.004   0.002  0.00  0.00    +0.220 A 
ATOM     21  N   LIG    1       -0.017   1.364   0.009  0.00  0.00    -0.580 N 
ATOM     22  H   LIG    1       -0.798   1.939   0.017  0.00  0.00    +0.430 HD
BRANCH  20  23
ATOM     23  C   LIG    1       -1.175  -0.900   0.008  0.00  0.00    -0.020 A 
ATOM     24  C   LIG    1       -2.463  -0.365   0.029  0.00  0.00    +0.010 A 
ATOM     25  C   LIG    1       -3.557  -1.206   0.031  0.00  0.00    +0.010 A 
ATOM     26  C   LIG    1       -3.378  -2.578   0.021  0.00  0.00    +0.030 A 
ATOM     27  C   LIG    1       -2.103  -3.115   0.006  0.00  0.00    +0.010 A 
ATOM     28  C   LIG    1       -1.001  -2.285  -0.001  0.00  0.00    +0.070 A 
ENDBRANCH  20  23
ENDBRANCH   5  17
TORSDOF 3
