REMARK  Name = ZINCrg00000fRD9l.0
REMARK                            x       y       z     vdW  Elec       q    Type
REMARK                         _______ _______ _______ _____ _____    ______ ____
ROOT
ATOM      1  C   LIG    1       -2.343  12.475   1.040  0.00  0.00    +0.540 C 
ATOM      2  N   LIG    1       -2.494  11.207   0.610  0.00  0.00    -0.600 N 
ATOM      3  C   LIG    1       -2.981  10.161   1.518  0.00  0.00    +0.300 C 
ATOM      4  C   LIG    1       -1.989   8.993   1.504  0.00  0.00    +0.040 C 
ATOM      5  C   LIG    1       -1.778   8.526   0.062  0.00  0.00    +0.110 C 
ATOM      6  C   LIG    1       -1.190   9.670  -0.766  0.00  0.00    +0.020 C 
ATOM      7  C   LIG    1       -2.173  10.845  -0.778  0.00  0.00    +0.310 C 
ATOM      8  O   LIG    1       -2.611  12.761   2.188  0.00  0.00    -0.510 OA
ENDROOT
BRANCH   1  14
ATOM      9  C   LIG    1       -4.160  15.072  -2.531  0.00  0.00    +0.300 C 
ATOM     10  N   LIG    1       -3.204  14.963  -1.426  0.00  0.00    -0.600 N 
ATOM     11  C   LIG    1       -2.678  16.188  -0.830  0.00  0.00    +0.240 C 
ATOM     12  C   LIG    1       -1.401  15.879  -0.044  0.00  0.00    +0.240 C 
ATOM     13  O   LIG    1       -1.650  14.759   0.814  0.00  0.00    -0.340 OA
ATOM     14  C   LIG    1       -1.842  13.537   0.096  0.00  0.00    +0.180 C 
ATOM     15  C   LIG    1       -2.847  13.744  -1.002  0.00  0.00    +0.500 C 
ATOM     16  O   LIG    1       -3.352  12.772  -1.524  0.00  0.00    -0.520 OA
ENDBRANCH   1  14
BRANCH   5  17
ATOM     17  C   LIG    1       -0.829   7.356   0.047  0.00  0.00    +0.300 A 
ATOM     18  N   LIG    1       -1.169   6.094   0.043  0.00  0.00    -0.530 NA
ATOM     19  C   LIG    1       -0.070   5.328   0.029  0.00  0.00    +0.270 A 
ATOM     20  N   LIG    1        0.988   6.109   0.029  0.00  0.00    -0.300 NA
ATOM     21  N   LIG    1        0.514   7.431   0.035  0.00  0.00    -0.480 N 
ATOM     22  H   LIG    1        1.050   8.239   0.034  0.00  0.00    +0.440 HD
BRANCH  19  23
ATOM     23  C   LIG    1       -0.050   3.844   0.022  0.00  0.00    -0.020 A 
ATOM     24  C   LIG    1        1.164   3.161   0.007  0.00  0.00    +0.050 A 
ATOM     25  C   LIG    1        1.177   1.781   0.000  0.00  0.00    +0.010 A 
ATOM     26  C   LIG    1       -0.013   1.076   0.008  0.00  0.00    +0.030 A 
ATOM     27  C   LIG    1       -1.221   1.748   0.017  0.00  0.00    +0.000 A 
ATOM     28  C   LIG    1       -1.246   3.128   0.030  0.00  0.00    +0.060 A 
ENDBRANCH  19  23
ENDBRANCH   5  17
TORSDOF 3
