REMARK  Name = ZINCpe00000MJJt4.0
REMARK                            x       y       z     vdW  Elec       q    Type
REMARK                         _______ _______ _______ _____ _____    ______ ____
ROOT
ATOM      1  C   LIG    1       -2.998   2.559   1.761  0.00  0.00    +0.260 C 
ATOM      2  C   LIG    1       -2.396   3.454   2.859  0.00  0.00    +0.280 C 
ATOM      3  N   LIG    1       -3.335   2.786   3.780  0.00  0.00    -0.640 N 
ATOM      4  C   LIG    1       -3.907   3.122   4.954  0.00  0.00    +0.620 C 
ATOM      5  O   LIG    1       -4.667   2.346   5.504  0.00  0.00    -0.530 OA
ATOM      6  C   LIG    1       -3.397   1.603   2.900  0.00  0.00    +0.280 C 
ENDROOT
BRANCH   4   7
ATOM      7  C   LIG    1       -3.613   4.425   5.569  0.00  0.00    -0.220 A 
ATOM      8  C   LIG    1       -2.793   5.396   5.084  0.00  0.00    +0.280 A 
ATOM      9  O   LIG    1       -2.778   6.439   5.922  0.00  0.00    -0.180 OA
ATOM     10  C   LIG    1       -3.573   6.222   6.990  0.00  0.00    +0.050 A 
ATOM     11  C   LIG    1       -3.887   6.981   8.111  0.00  0.00    +0.040 A 
ATOM     12  C   LIG    1       -4.766   6.489   9.052  0.00  0.00    +0.050 A 
ATOM     13  C   LIG    1       -5.335   5.234   8.901  0.00  0.00    +0.000 A 
ATOM     14  C   LIG    1       -5.032   4.464   7.798  0.00  0.00    +0.080 A 
ATOM     15  C   LIG    1       -4.152   4.953   6.838  0.00  0.00    -0.090 A 
ENDBRANCH   4   7
BRANCH   1  19
ATOM     16  C   LIG    1       -0.811   1.623  -1.203  0.00  0.00    +0.000 C 
ATOM     17  C   LIG    1       -0.013   1.086   0.008  0.00  0.00    +0.080 C 
ATOM     18  C   LIG    1       -0.771   1.598   1.213  0.00  0.00    +0.520 C 
ATOM     19  N   LIG    1       -2.003   2.000   0.844  0.00  0.00    -0.610 N 
ATOM     20  O   LIG    1       -0.333   1.640   2.343  0.00  0.00    -0.520 OA
ATOM     21  C   LIG    1       -2.219   1.807  -0.595  0.00  0.00    +0.300 C 
BRANCH  16  25
ATOM     22  C   LIG    1        1.561   4.292  -2.584  0.00  0.00    +0.290 C 
ATOM     23  N   LIG    1        1.018   3.011  -2.124  0.00  0.00    -0.730 N 
ATOM     24  H   LIG    1        1.571   2.215  -2.141  0.00  0.00    +0.400 HD
ATOM     25  C   LIG    1       -0.252   2.940  -1.676  0.00  0.00    +0.520 C 
ATOM     26  O   LIG    1       -0.944   3.936  -1.654  0.00  0.00    -0.530 OA
ENDBRANCH  16  25
ENDBRANCH   1  19
TORSDOF 3
