REMARK  Name = ZINCvU00000008nY.0
REMARK                            x       y       z     vdW  Elec       q    Type
REMARK                         _______ _______ _______ _____ _____    ______ ____
ROOT
ATOM      1  N   LIG    1        1.435  -7.102  -0.059  0.00  0.00    -0.720 N 
ATOM      2  H   LIG    1        1.357  -7.008   0.903  0.00  0.00    +0.400 HD
ATOM      3  C   LIG    1        1.229  -6.038  -0.860  0.00  0.00    +0.540 C 
ATOM      4  O   LIG    1        1.327  -6.156  -2.063  0.00  0.00    -0.520 OA
ENDROOT
BRANCH   1   6
ATOM      5  C   LIG    1        0.495  -9.136  -1.041  0.00  0.00    +0.040 C 
ATOM      6  C   LIG    1        1.777  -8.402  -0.642  0.00  0.00    +0.290 C 
BRANCH   6   7
ATOM      7  C   LIG    1        2.532  -9.224   0.371  0.00  0.00    -0.100 A 
ATOM      8  C   LIG    1        2.151  -9.208   1.699  0.00  0.00    +0.000 A 
ATOM      9  C   LIG    1        2.848  -9.961   2.621  0.00  0.00    +0.010 A 
ATOM     10  C   LIG    1        3.930 -10.736   2.226  0.00  0.00    -0.070 A 
ATOM     11  C   LIG    1        4.655 -11.522   3.287  0.00  0.00    +0.080 C 
ATOM     12  C   LIG    1        5.508 -12.620   2.653  0.00  0.00    +0.020 C 
ATOM     13  C   LIG    1        6.373 -11.989   1.556  0.00  0.00    +0.020 C 
ATOM     14  C   LIG    1        5.463 -11.581   0.400  0.00  0.00    +0.080 C 
ATOM     15  C   LIG    1        4.307 -10.756   0.901  0.00  0.00    -0.070 A 
ATOM     16  C   LIG    1        3.601 -10.000  -0.026  0.00  0.00    +0.010 A 
ENDBRANCH   6   7
ENDBRANCH   1   6
BRANCH   3  17
ATOM     17  C   LIG    1        0.877  -4.701  -0.260  0.00  0.00    +0.090 C 
BRANCH  17  18
ATOM     18  S   LIG    1        0.664  -3.483  -1.582  0.00  0.00    +0.090 S 
BRANCH  18  19
ATOM     19  C   LIG    1        0.271  -2.058  -0.625  0.00  0.00    +0.140 A 
ATOM     20  N   LIG    1        0.179  -1.996   0.683  0.00  0.00    -0.290 NA
ATOM     21  N   LIG    1       -0.125  -0.801   1.044  0.00  0.00    -0.270 NA
ATOM     22  C   LIG    1       -0.245  -0.035  -0.003  0.00  0.00    +0.200 A 
ATOM     23  N   LIG    1       -0.003  -0.808  -1.104  0.00  0.00    -0.430 N 
BRANCH  23  24
ATOM     24  C   LIG    1       -0.028  -0.385  -2.506  0.00  0.00    +0.190 C 
ATOM     25  C   LIG    1       -0.116  -1.478  -3.573  0.00  0.00    +0.070 C 
ATOM     26  C   LIG    1        1.194  -0.713  -3.366  0.00  0.00    +0.060 C 
ENDBRANCH  23  24
BRANCH  22  27
ATOM     27  C   LIG    1       -0.594   1.431  -0.001  0.00  0.00    +0.250 C 
BRANCH  27  28
ATOM     28  C   LIG    1        0.670   2.248   0.080  0.00  0.00    -0.190 A 
ATOM     29  C   LIG    1        1.378   2.676  -0.966  0.00  0.00    +0.010 A 
ATOM     30  C   LIG    1        2.504   3.414  -0.646  0.00  0.00    +0.000 A 
ATOM     31  C   LIG    1        2.716   3.578   0.660  0.00  0.00    -0.040 A 
ATOM     32  S   LIG    1        1.442   2.776   1.570  0.00  0.00    +0.130 S 
ENDBRANCH  27  28
ENDBRANCH  22  27
ENDBRANCH  18  19
ENDBRANCH  17  18
ENDBRANCH   3  17
TORSDOF 8
