REMARK  Name = ZINCqH0000001b9D.0
REMARK                            x       y       z     vdW  Elec       q    Type
REMARK                         _______ _______ _______ _____ _____    ______ ____
ROOT
ATOM      1  N   LIG    1       -0.064   5.565   0.011  0.00  0.00    -0.720 N 
ATOM      2  H   LIG    1        0.760   6.060  -0.119  0.00  0.00    +0.400 HD
ENDROOT
BRANCH   1   6
ATOM      3  C   LIG    1       -0.015   1.397   0.004  0.00  0.00    +0.090 A 
ATOM      4  C   LIG    1       -1.211   2.077   0.188  0.00  0.00    +0.020 A 
ATOM      5  C   LIG    1       -1.227   3.458   0.195  0.00  0.00    -0.050 A 
ATOM      6  C   LIG    1       -0.048   4.166   0.009  0.00  0.00    +0.210 A 
ATOM      7  C   LIG    1        1.149   3.486  -0.180  0.00  0.00    -0.050 A 
ATOM      8  C   LIG    1        1.165   2.106  -0.182  0.00  0.00    +0.060 A 
BRANCH   3  10
ATOM      9  C   LIG    1        1.074  -0.666   0.481  0.00  0.00    +0.510 C 
ATOM     10  N   LIG    1        0.002  -0.004   0.002  0.00  0.00    -0.670 N 
ATOM     11  H   LIG    1       -0.758  -0.497  -0.345  0.00  0.00    +0.410 HD
ATOM     12  O   LIG    1        1.982  -0.054   1.002  0.00  0.00    -0.520 OA
BRANCH   9  14
ATOM     13  C   LIG    1        2.453  -2.664   0.987  0.00  0.00    +0.050 C 
ATOM     14  C   LIG    1        1.143  -2.167   0.371  0.00  0.00    -0.010 C 
ATOM     15  C   LIG    1       -0.039  -2.789   1.116  0.00  0.00    +0.040 C 
ENDBRANCH   9  14
ENDBRANCH   3  10
ENDBRANCH   1   6
BRANCH   1  16
ATOM     16  C   LIG    1       -1.326   6.282   0.210  0.00  0.00    +0.290 C 
BRANCH  16  17
ATOM     17  C   LIG    1       -1.230   7.651  -0.413  0.00  0.00    -0.100 A 
ATOM     18  C   LIG    1       -0.063   8.383  -0.296  0.00  0.00    +0.020 A 
ATOM     19  C   LIG    1        0.027   9.637  -0.872  0.00  0.00    +0.020 A 
ATOM     20  C   LIG    1       -1.053  10.162  -1.556  0.00  0.00    +0.020 A 
ATOM     21  C   LIG    1       -2.221   9.432  -1.669  0.00  0.00    +0.020 A 
ATOM     22  C   LIG    1       -2.310   8.177  -1.097  0.00  0.00    +0.020 A 
ENDBRANCH  16  17
BRANCH  16  23
ATOM     23  C   LIG    1       -1.598   6.420   1.686  0.00  0.00    +0.500 C 
ATOM     24  N   LIG    1       -2.712   7.051   2.110  0.00  0.00    -0.700 N 
ATOM     25  H   LIG    1       -3.338   7.415   1.465  0.00  0.00    +0.400 HD
ATOM     26  O   LIG    1       -0.815   5.965   2.492  0.00  0.00    -0.510 OA
BRANCH  24  27
ATOM     27  C   LIG    1       -2.976   7.185   3.545  0.00  0.00    +0.220 C 
ATOM     28  C   LIG    1       -4.402   6.914   4.028  0.00  0.00    +0.010 C 
ATOM     29  C   LIG    1       -3.865   8.347   3.994  0.00  0.00    +0.010 C 
ENDBRANCH  24  27
ENDBRANCH  16  23
ENDBRANCH   1  16
TORSDOF 7
