REMARK  Name = ZINCrH000004nxQV.0
REMARK                            x       y       z     vdW  Elec       q    Type
REMARK                         _______ _______ _______ _____ _____    ______ ____
ROOT
ATOM      1  S   LIG    1        4.518   0.198   2.474  0.00  0.00    +0.090 S 
ENDROOT
BRANCH   1   6
ATOM      2  N   LIG    1        3.624  -0.663  -0.036  0.00  0.00    -0.410 N 
ATOM      3  C   LIG    1        4.110  -1.464  -1.035  0.00  0.00    +0.390 A 
ATOM      4  N   LIG    1        5.275  -1.902  -0.647  0.00  0.00    -0.280 NA
ATOM      5  N   LIG    1        5.557  -1.438   0.517  0.00  0.00    -0.300 NA
ATOM      6  C   LIG    1        4.582  -0.667   0.940  0.00  0.00    +0.160 A 
BRANCH   2  12
ATOM      7  C   LIG    1        2.380   1.417  -0.013  0.00  0.00    +0.150 A 
ATOM      8  C   LIG    1        1.169   2.089   0.002  0.00  0.00    -0.060 A 
ATOM      9  C   LIG    1       -0.017   1.378   0.010  0.00  0.00    +0.080 A 
ATOM     10  C   LIG    1        0.002  -0.004   0.002  0.00  0.00    -0.010 A 
ATOM     11  C   LIG    1        1.206  -0.682  -0.013  0.00  0.00    +0.080 A 
ATOM     12  C   LIG    1        2.400   0.024  -0.021  0.00  0.00    +0.060 A 
BRANCH   7  14
ATOM     13  C   LIG    1        3.450   3.540  -0.012  0.00  0.00    +0.260 C 
ATOM     14  O   LIG    1        3.547   2.115  -0.020  0.00  0.00    -0.300 OA
ENDBRANCH   7  14
ENDBRANCH   2  12
ENDBRANCH   1   6
BRANCH   1  15
ATOM     15  C   LIG    1        6.108  -0.301   3.182  0.00  0.00    +0.010 C 
ATOM     16  C   LIG    1        7.245   0.259   2.325  0.00  0.00    +0.090 C 
BRANCH  15  17
ATOM     17  C   LIG    1        6.223   0.236   4.585  0.00  0.00    +0.540 C 
ATOM     18  N   LIG    1        7.099  -0.316   5.447  0.00  0.00    -0.720 N 
ATOM     19  H   LIG    1        7.655  -1.059   5.165  0.00  0.00    +0.400 HD
ATOM     20  O   LIG    1        5.529   1.165   4.938  0.00  0.00    -0.520 OA
BRANCH  18  21
ATOM     21  C   LIG    1        7.212   0.206   6.812  0.00  0.00    +0.270 C 
BRANCH  21  22
ATOM     22  C   LIG    1        8.270  -0.591   7.577  0.00  0.00    +0.060 C 
BRANCH  22  23
ATOM     23  C   LIG    1        8.386  -0.054   8.980  0.00  0.00    -0.120 C 
ATOM     24  C   LIG    1        7.697  -0.633   9.911  0.00  0.00    -0.050 C 
ATOM     25  C   LIG    1        7.705  -0.209  11.351  0.00  0.00    +0.050 C 
ATOM     26  C   LIG    1        8.911   0.690  11.630  0.00  0.00    +0.010 C 
ATOM     27  C   LIG    1        8.962   1.782  10.553  0.00  0.00    +0.010 C 
ATOM     28  C   LIG    1        9.288   1.123   9.211  0.00  0.00    +0.060 C 
ENDBRANCH  22  23
ENDBRANCH  21  22
ENDBRANCH  18  21
ENDBRANCH  15  17
ENDBRANCH   1  15
TORSDOF 8
