REMARK  Name = ZINCqH0000007tWI.0
REMARK                            x       y       z     vdW  Elec       q    Type
REMARK                         _______ _______ _______ _____ _____    ______ ____
ROOT
ATOM      1  C   LIG    1       -3.553   6.308   0.733  0.00  0.00    +0.200 C 
ATOM      2  C   LIG    1       -3.450   7.671   0.005  0.00  0.00    +0.040 C 
ATOM      3  C   LIG    1       -2.793   7.260  -1.339  0.00  0.00    +0.000 C 
ATOM      4  C   LIG    1       -1.829   6.130  -0.923  0.00  0.00    +0.190 C 
ATOM      5  N   LIG    1       -2.321   5.585   0.356  0.00  0.00    -0.510 NA
ENDROOT
BRANCH   1   9
ATOM      6  C   LIG    1       -3.701   6.891   4.968  0.00  0.00    +0.170 A 
ATOM      7  C   LIG    1       -2.481   6.725   4.329  0.00  0.00    -0.120 A 
ATOM      8  C   LIG    1       -2.436   6.537   2.960  0.00  0.00    +0.140 A 
ATOM      9  C   LIG    1       -3.606   6.513   2.225  0.00  0.00    -0.150 A 
ATOM     10  C   LIG    1       -4.828   6.685   2.859  0.00  0.00    +0.170 A 
ATOM     11  C   LIG    1       -4.876   6.869   4.232  0.00  0.00    -0.110 A 
BRANCH   6  13
ATOM     12  C   LIG    1       -2.494   7.090   7.007  0.00  0.00    +0.250 C 
ATOM     13  O   LIG    1       -3.744   7.077   6.313  0.00  0.00    -0.320 OA
ENDBRANCH   6  13
BRANCH  10  14
ATOM     14  O   LIG    1       -5.978   6.668   2.135  0.00  0.00    -0.310 OA
ATOM     15  C   LIG    1       -7.200   6.850   2.853  0.00  0.00    +0.250 C 
ENDBRANCH  10  14
ENDBRANCH   1   9
BRANCH   5  16
ATOM     16  C   LIG    1       -2.569   4.140   0.252  0.00  0.00    +0.210 C 
BRANCH  16  17
ATOM     17  C   LIG    1       -1.255   3.412   0.128  0.00  0.00    +0.510 C 
ATOM     18  N   LIG    1       -1.237   2.069   0.019  0.00  0.00    -0.680 N 
ATOM     19  H   LIG    1       -2.070   1.577  -0.057  0.00  0.00    +0.410 HD
ATOM     20  O   LIG    1       -0.215   4.035   0.127  0.00  0.00    -0.500 OA
BRANCH  18  21
ATOM     21  C   LIG    1       -0.017   1.384   0.015  0.00  0.00    +0.140 A 
ATOM     22  C   LIG    1        0.127   0.222  -0.732  0.00  0.00    -0.020 A 
ATOM     23  C   LIG    1        1.330  -0.455  -0.729  0.00  0.00    +0.030 A 
ATOM     24  C   LIG    1        2.392   0.023   0.017  0.00  0.00    -0.100 A 
ATOM     25  C   LIG    1        2.252   1.180   0.762  0.00  0.00    +0.020 A 
ATOM     26  C   LIG    1        3.704  -0.718   0.017  0.00  0.00    +0.100 C 
ATOM     27  C   LIG    1        1.051   1.861   0.764  0.00  0.00    +0.010 A 
ENDBRANCH  18  21
ENDBRANCH  16  17
ENDBRANCH   5  16
TORSDOF 6
