REMARK  Name = ZINCqH0000008pbf.0
REMARK                            x       y       z     vdW  Elec       q    Type
REMARK                         _______ _______ _______ _____ _____    ______ ____
ROOT
ATOM      1  N   LIG    1       -4.165  -1.105   2.014  0.00  0.00    -0.730 N 
ATOM      2  H   LIG    1       -3.469  -1.560   1.513  0.00  0.00    +0.400 HD
ATOM      3  C   LIG    1       -3.920   0.101   2.564  0.00  0.00    +0.530 C 
ATOM      4  O   LIG    1       -4.789   0.669   3.191  0.00  0.00    -0.530 OA
ENDROOT
BRANCH   3   5
ATOM      5  C   LIG    1       -2.566   0.743   2.402  0.00  0.00    -0.020 C 
ATOM      6  C   LIG    1       -2.554   2.097   3.114  0.00  0.00    +0.060 C 
ATOM      7  C   LIG    1       -1.169   2.734   2.977  0.00  0.00    +0.030 C 
ATOM      8  C   LIG    1       -0.859   2.962   1.499  0.00  0.00    +0.260 C 
ATOM      9  N   LIG    1       -1.013   1.692   0.777  0.00  0.00    -0.600 N 
ATOM     10  C   LIG    1       -0.014   1.213   0.009  0.00  0.00    +0.600 C 
ATOM     11  O   LIG    1       -0.175   0.190  -0.631  0.00  0.00    -0.520 OA
ATOM     12  C   LIG    1       -2.274   0.950   0.912  0.00  0.00    +0.300 C 
BRANCH  10  13
ATOM     13  C   LIG    1        1.264   1.927  -0.061  0.00  0.00    -0.270 A 
ATOM     14  C   LIG    1        2.500   1.349   0.008  0.00  0.00    +0.090 A 
ATOM     15  C   LIG    1        3.530   2.254  -0.087  0.00  0.00    +0.000 A 
ATOM     16  C   LIG    1        3.152   3.531  -0.220  0.00  0.00    -0.070 A 
ATOM     17  S   LIG    1        1.452   3.666  -0.239  0.00  0.00    +0.220 S 
ENDBRANCH  10  13
ENDBRANCH   3   5
BRANCH   1  19
ATOM     18  C   LIG    1       -5.529  -2.489   3.499  0.00  0.00    +0.040 C 
ATOM     19  C   LIG    1       -5.481  -1.729   2.172  0.00  0.00    +0.280 C 
BRANCH  19  20
ATOM     20  C   LIG    1       -5.721  -2.688   1.035  0.00  0.00    -0.080 A 
ATOM     21  C   LIG    1       -4.690  -3.483   0.572  0.00  0.00    +0.040 A 
ATOM     22  C   LIG    1       -4.909  -4.368  -0.467  0.00  0.00    +0.030 A 
ATOM     23  C   LIG    1       -6.160  -4.450  -1.053  0.00  0.00    +0.070 A 
ATOM     24  C   LIG    1       -7.194  -3.649  -0.592  0.00  0.00    +0.070 A 
ATOM     25  F   LIG    1       -8.417  -3.728  -1.161  0.00  0.00    -0.120 F 
ATOM     26  F   LIG    1       -6.375  -5.310  -2.072  0.00  0.00    -0.130 F 
ATOM     27  C   LIG    1       -6.973  -2.769   0.453  0.00  0.00    +0.040 A 
ENDBRANCH  19  20
ENDBRANCH   1  19
TORSDOF 4
