REMARK  Name = ZINCpe00000VVGke.0
REMARK                            x       y       z     vdW  Elec       q    Type
REMARK                         _______ _______ _______ _____ _____    ______ ____
ROOT
ATOM      1  C   LIG    1        3.571   2.420  -0.019  0.00  0.00    +0.170 C 
ENDROOT
BRANCH   1   5
ATOM      2  C   LIG    1       -1.306   2.041   0.019  0.00  0.00    +0.350 C 
ATOM      3  N   LIG    1       -0.016   1.345   0.009  0.00  0.00    -0.440 N 
ATOM      4  N   LIG    1        1.160   2.095   0.002  0.00  0.00    -0.170 NA
ATOM      5  C   LIG    1        2.340   1.551  -0.012  0.00  0.00    +0.110 A 
ATOM      6  C   LIG    1        2.474   0.094  -0.021  0.00  0.00    -0.050 A 
ATOM      7  C   LIG    1        3.722  -0.530  -0.037  0.00  0.00    +0.040 A 
ATOM      8  C   LIG    1        3.793  -1.906  -0.045  0.00  0.00    +0.050 A 
ATOM      9  C   LIG    1        2.639  -2.677  -0.038  0.00  0.00    +0.030 A 
ATOM     10  C   LIG    1        1.396  -2.083  -0.023  0.00  0.00    +0.090 A 
ATOM     11  C   LIG    1        1.299  -0.693  -0.014  0.00  0.00    -0.130 A 
ATOM     12  C   LIG    1        0.002  -0.004   0.002  0.00  0.00    +0.520 A 
ATOM     13  O   LIG    1       -1.038  -0.639   0.009  0.00  0.00    -0.520 OA
ENDBRANCH   1   5
BRANCH   1  14
ATOM     14  C   LIG    1        3.161   3.871  -0.007  0.00  0.00    +0.510 C 
ATOM     15  N   LIG    1        4.102   4.836  -0.011  0.00  0.00    -0.730 N 
ATOM     16  H   LIG    1        5.042   4.598  -0.021  0.00  0.00    +0.410 HD
ATOM     17  O   LIG    1        1.986   4.169   0.005  0.00  0.00    -0.490 OA
BRANCH  15  18
ATOM     18  C   LIG    1        3.704   6.246   0.001  0.00  0.00    +0.240 C 
ATOM     19  C   LIG    1        4.830   7.090   0.606  0.00  0.00    +0.040 C 
ATOM     20  C   LIG    1        4.323   8.519   0.835  0.00  0.00    +0.160 C 
ATOM     21  C   LIG    1        3.650   8.990  -0.433  0.00  0.00    +0.200 A 
ATOM     22  N   LIG    1        3.347  10.213  -0.759  0.00  0.00    -0.490 NA
ATOM     23  C   LIG    1        2.760  10.215  -1.967  0.00  0.00    +0.140 A 
ATOM     24  C   LIG    1        2.699   8.941  -2.405  0.00  0.00    +0.130 A 
ATOM     25  N   LIG    1        3.260   8.166  -1.434  0.00  0.00    -0.450 N 
ATOM     26  C   LIG    1        3.430   6.711  -1.434  0.00  0.00    +0.280 C 
ENDBRANCH  15  18
ENDBRANCH   1  14
TORSDOF 3
