REMARK  Name = ZINCpk000000owsg.0
REMARK                            x       y       z     vdW  Elec       q    Type
REMARK                         _______ _______ _______ _____ _____    ______ ____
ROOT
ATOM      1  N   LIG    1        0.383   2.228   3.155  0.00  0.00    -0.560 N 
ATOM      2  C   LIG    1        0.010   3.333   2.500  0.00  0.00    +0.710 C 
ATOM      3  N   LIG    1       -0.656   3.057   1.364  0.00  0.00    -0.720 N 
ATOM      4  H   LIG    1       -1.019   3.699   0.734  0.00  0.00    +0.440 HD
ATOM      5  C   LIG    1       -0.728   1.589   1.264  0.00  0.00    +0.180 C 
ATOM      6  C   LIG    1       -0.011   1.100   0.004  0.00  0.00    +0.090 C 
ATOM      7  O   LIG    1        0.246   4.461   2.887  0.00  0.00    -0.540 OA
ATOM      8  C   LIG    1       -0.005   1.112   2.508  0.00  0.00    +0.540 C 
ATOM      9  O   LIG    1        0.184  -0.036   2.850  0.00  0.00    -0.440 OA
ENDROOT
BRANCH   5  10
ATOM     10  C   LIG    1       -2.161   1.123   1.272  0.00  0.00    -0.140 A 
ATOM     11  C   LIG    1       -3.188   2.046   1.295  0.00  0.00    +0.070 A 
ATOM     12  C   LIG    1       -4.503   1.619   1.297  0.00  0.00    -0.030 A 
ATOM     13  C   LIG    1       -4.793   0.268   1.287  0.00  0.00    +0.060 A 
ATOM     14  C   LIG    1       -3.770  -0.660   1.269  0.00  0.00    -0.080 A 
ATOM     15  C   LIG    1       -2.450  -0.234   1.261  0.00  0.00    +0.150 A 
BRANCH  15  16
ATOM     16  O   LIG    1       -1.441  -1.145   1.244  0.00  0.00    -0.290 OA
ATOM     17  C   LIG    1       -1.812  -2.524   1.234  0.00  0.00    +0.250 C 
ENDBRANCH  15  16
ENDBRANCH   5  10
BRANCH   1  18
ATOM     18  C   LIG    1        1.123   2.232   4.419  0.00  0.00    +0.360 C 
BRANCH  18  20
ATOM     19  N   LIG    1        3.485   2.224   5.155  0.00  0.00    -0.580 N 
ATOM     20  C   LIG    1        2.603   2.223   4.135  0.00  0.00    +0.510 C 
ATOM     21  O   LIG    1        3.001   2.214   2.990  0.00  0.00    -0.520 OA
BRANCH  19  22
ATOM     22  C   LIG    1        4.919   2.103   4.882  0.00  0.00    +0.210 C 
ATOM     23  C   LIG    1        5.839   1.793   6.065  0.00  0.00    +0.020 C 
ATOM     24  C   LIG    1        5.839   3.191   5.441  0.00  0.00    +0.010 C 
ENDBRANCH  19  22
BRANCH  19  26
ATOM     25  C   LIG    1        2.740   0.953   7.107  0.00  0.00    +0.020 C 
ATOM     26  C   LIG    1        3.009   2.346   6.535  0.00  0.00    +0.260 C 
ENDBRANCH  19  26
ENDBRANCH  18  20
ENDBRANCH   1  18
TORSDOF 6
