REMARK  Name = ZINCpe00000MJJ6F.0
REMARK                            x       y       z     vdW  Elec       q    Type
REMARK                         _______ _______ _______ _____ _____    ______ ____
ROOT
ATOM      1  N   LIG    1        0.362   3.596  -5.160  0.00  0.00    -0.640 N 
ATOM      2  H   LIG    1        1.327   3.552  -5.245  0.00  0.00    +0.410 HD
ATOM      3  C   LIG    1       -0.219   3.396  -3.960  0.00  0.00    +0.500 C 
ATOM      4  O   LIG    1       -1.426   3.452  -3.853  0.00  0.00    -0.520 OA
ENDROOT
BRANCH   1   7
ATOM      5  C   LIG    1        1.459   4.087  -7.993  0.00  0.00    +0.140 C 
ATOM      6  C   LIG    1        0.019   4.092  -7.550  0.00  0.00    +0.050 A 
ATOM      7  C   LIG    1       -0.433   3.871  -6.289  0.00  0.00    +0.000 A 
ATOM      8  C   LIG    1       -1.832   3.959  -6.312  0.00  0.00    +0.250 A 
ATOM      9  N   LIG    1       -2.207   4.232  -7.536  0.00  0.00    -0.280 NA
ATOM     10  N   LIG    1       -1.063   4.317  -8.339  0.00  0.00    -0.360 N 
BRANCH  10  11
ATOM     11  C   LIG    1       -1.038   4.600  -9.776  0.00  0.00    +0.270 C 
ATOM     12  C   LIG    1       -1.680   5.965 -10.041  0.00  0.00    -0.000 C 
ATOM     13  C   LIG    1       -1.721   6.217 -11.551  0.00  0.00    +0.210 C 
ATOM     14  O   LIG    1       -2.443   5.162 -12.189  0.00  0.00    -0.380 OA
ATOM     15  C   LIG    1       -1.862   3.868 -12.015  0.00  0.00    +0.210 C 
ATOM     16  C   LIG    1       -1.828   3.522 -10.524  0.00  0.00    +0.010 C 
ENDBRANCH  10  11
ENDBRANCH   1   7
BRANCH   3  17
ATOM     17  C   LIG    1        0.632   3.102  -2.751  0.00  0.00    +0.330 C 
BRANCH  17  18
ATOM     18  N   LIG    1       -0.229   2.925  -1.579  0.00  0.00    -0.590 N 
ATOM     19  C   LIG    1       -0.739   1.586  -1.242  0.00  0.00    +0.280 C 
ATOM     20  C   LIG    1       -0.013   1.086   0.008  0.00  0.00    +0.010 C 
ATOM     21  C   LIG    1       -0.710   1.569   1.267  0.00  0.00    +0.030 C 
ATOM     22  C   LIG    1       -0.633   3.071   1.472  0.00  0.00    +0.050 C 
ATOM     23  C   LIG    1       -1.431   3.805   0.392  0.00  0.00    +0.180 C 
ATOM     24  C   LIG    1       -0.547   3.978  -0.825  0.00  0.00    +0.490 C 
ATOM     25  O   LIG    1       -0.125   5.078  -1.115  0.00  0.00    -0.530 OA
BRANCH  23  26
ATOM     26  O   LIG    1       -1.832   5.087   0.880  0.00  0.00    -0.540 OA
ATOM     27  H   LIG    1       -2.330   5.614   0.240  0.00  0.00    +0.390 HD
ENDBRANCH  23  26
ENDBRANCH  17  18
ENDBRANCH   3  17
TORSDOF 5
