REMARK  Name = ZINCqH0000050hG7.0
REMARK                            x       y       z     vdW  Elec       q    Type
REMARK                         _______ _______ _______ _____ _____    ______ ____
ROOT
ATOM      1  C   LIG    1        2.731  -2.436   0.572  0.00  0.00    +0.570 C 
ATOM      2  N   LIG    1        1.692  -1.613   0.817  0.00  0.00    -0.720 N 
ATOM      3  H   LIG    1        1.079  -1.809   1.543  0.00  0.00    +0.400 HD
ATOM      4  O   LIG    1        3.498  -2.191  -0.339  0.00  0.00    -0.530 OA
ENDROOT
BRANCH   1   9
ATOM      5  C   LIG    1        4.163  -5.613   1.988  0.00  0.00    -0.100 A 
ATOM      6  C   LIG    1        3.243  -5.828   3.013  0.00  0.00    +0.300 A 
ATOM      7  N   LIG    1        2.242  -4.993   3.211  0.00  0.00    -0.470 NA
ATOM      8  C   LIG    1        2.067  -3.924   2.463  0.00  0.00    +0.290 A 
ATOM      9  C   LIG    1        2.938  -3.635   1.411  0.00  0.00    -0.190 A 
ATOM     10  C   LIG    1        4.013  -4.495   1.166  0.00  0.00    +0.140 A 
BRANCH   5  15
ATOM     11  C   LIG    1        8.519  -9.287   1.153  0.00  0.00    +0.090 C 
ATOM     12  C   LIG    1        7.379  -8.326   1.372  0.00  0.00    -0.080 A 
ATOM     13  C   LIG    1        6.474  -8.551   2.393  0.00  0.00    +0.010 A 
ATOM     14  C   LIG    1        5.428  -7.673   2.598  0.00  0.00    +0.030 A 
ATOM     15  C   LIG    1        5.285  -6.560   1.773  0.00  0.00    -0.060 A 
ATOM     16  C   LIG    1        6.197  -6.341   0.742  0.00  0.00    +0.030 A 
ATOM     17  C   LIG    1        7.242  -7.222   0.550  0.00  0.00    +0.010 A 
ENDBRANCH   5  15
ENDBRANCH   1   9
BRANCH   2  18
ATOM     18  C   LIG    1        1.486  -0.425  -0.014  0.00  0.00    +0.250 C 
ATOM     19  C   LIG    1        2.232   0.792   0.586  0.00  0.00    +0.010 C 
ATOM     20  C   LIG    1        1.453   1.995  -0.001  0.00  0.00    +0.040 C 
ATOM     21  C   LIG    1       -0.019   1.534   0.011  0.00  0.00    +0.040 C 
ATOM     22  C   LIG    1        0.002  -0.004   0.002  0.00  0.00    +0.230 C 
BRANCH  22  23
ATOM     23  N   LIG    1       -0.653  -0.521   1.206  0.00  0.00    -0.460 N 
ATOM     24  C   LIG    1       -1.741  -1.351   1.246  0.00  0.00    +0.130 A 
ATOM     25  C   LIG    1       -2.009  -1.579   2.546  0.00  0.00    +0.140 A 
ATOM     26  N   LIG    1       -1.115  -0.901   3.280  0.00  0.00    -0.480 NA
ATOM     27  C   LIG    1       -0.299  -0.265   2.484  0.00  0.00    +0.370 A 
ENDBRANCH  22  23
ENDBRANCH   2  18
TORSDOF 4
