REMARK  Name = ZINCvU0000000FAI.0
REMARK                            x       y       z     vdW  Elec       q    Type
REMARK                         _______ _______ _______ _____ _____    ______ ____
ROOT
ATOM      1  C   LIG    1        2.405   3.958  -0.047  0.00  0.00    +0.560 C 
ATOM      2  N   LIG    1        2.375   5.305  -0.013  0.00  0.00    -0.660 N 
ATOM      3  H   LIG    1        1.526   5.772  -0.060  0.00  0.00    +0.410 HD
ATOM      4  O   LIG    1        3.472   3.375  -0.095  0.00  0.00    -0.490 OA
ENDROOT
BRANCH   2   5
ATOM      5  C   LIG    1        3.568   6.030   0.089  0.00  0.00    +0.160 A 
ATOM      6  C   LIG    1        4.682   5.453   0.685  0.00  0.00    +0.050 A 
ATOM      7  C   LIG    1        5.862   6.165   0.782  0.00  0.00    +0.040 A 
ATOM      8  C   LIG    1        5.935   7.458   0.297  0.00  0.00    +0.060 A 
ATOM      9  C   LIG    1        4.820   8.043  -0.296  0.00  0.00    +0.140 A 
ATOM     10  F   LIG    1        7.088   8.154   0.397  0.00  0.00    -0.140 F 
ATOM     11  C   LIG    1        3.637   7.327  -0.399  0.00  0.00    +0.020 A 
BRANCH   9  12
ATOM     12  N   LIG    1        4.893   9.352  -0.788  0.00  0.00    -0.670 N 
ATOM     13  H   LIG    1        5.716   9.676  -1.185  0.00  0.00    +0.420 HD
ATOM     14  C   LIG    1        3.818  10.162  -0.708  0.00  0.00    +0.550 C 
ATOM     15  O   LIG    1        2.765   9.732  -0.289  0.00  0.00    -0.520 OA
BRANCH  14  16
ATOM     16  C   LIG    1        3.927  11.602  -1.140  0.00  0.00    -0.070 C 
ATOM     17  C   LIG    1        3.839  12.674  -0.053  0.00  0.00    +0.060 C 
ATOM     18  C   LIG    1        2.673  12.471  -1.024  0.00  0.00    +0.080 C 
ENDBRANCH  14  16
ENDBRANCH   9  12
ENDBRANCH   2   5
BRANCH   1  24
ATOM     19  C   LIG    1        1.173   1.788  -0.060  0.00  0.00    -0.040 A 
ATOM     20  C   LIG    1       -0.021   1.077  -0.038  0.00  0.00    -0.020 A 
ATOM     21  C   LIG    1       -1.225   1.750   0.013  0.00  0.00    +0.070 A 
ATOM     22  C   LIG    1       -1.254   3.135   0.053  0.00  0.00    +0.000 A 
ATOM     23  C   LIG    1       -0.081   3.857   0.032  0.00  0.00    +0.070 A 
ATOM     24  C   LIG    1        1.147   3.192  -0.025  0.00  0.00    -0.130 A 
BRANCH  19  25
ATOM     25  S   LIG    1        2.712   0.932  -0.130  0.00  0.00    +0.020 S 
BRANCH  25  26
ATOM     26  C   LIG    1        2.209  -0.810  -0.156  0.00  0.00    +0.120 C 
BRANCH  26  33
ATOM     27  C   LIG    1        3.729  -1.912  -2.802  0.00  0.00    +0.160 C 
ATOM     28  C   LIG    1        4.102  -2.170  -1.365  0.00  0.00    +0.040 A 
ATOM     29  N   LIG    1        5.104  -2.881  -0.934  0.00  0.00    -0.360 NA
ATOM     30  O   LIG    1        5.144  -2.909   0.274  0.00  0.00    +0.100 OA
ATOM     31  C   LIG    1        4.147  -2.196   0.816  0.00  0.00    -0.010 A 
ATOM     32  C   LIG    1        3.873  -2.001   2.285  0.00  0.00    +0.190 C 
ATOM     33  C   LIG    1        3.434  -1.686  -0.216  0.00  0.00    -0.190 A 
ENDBRANCH  26  33
ENDBRANCH  25  26
ENDBRANCH  19  25
ENDBRANCH   1  24
TORSDOF 7
