REMARK  Name = ZINCtV00000L6l3p.0
REMARK                            x       y       z     vdW  Elec       q    Type
REMARK                         _______ _______ _______ _____ _____    ______ ____
ROOT
ATOM      1  C   LIG    1       -5.651   2.396   1.311  0.00  0.00    +0.510 C 
ATOM      2  O   LIG    1       -6.789   1.971   1.312  0.00  0.00    -0.500 OA
ENDROOT
BRANCH   1   3
ATOM      3  C   LIG    1       -4.512   1.456   1.297  0.00  0.00    -0.120 A 
ATOM      4  C   LIG    1       -3.203   1.940   1.302  0.00  0.00    +0.070 A 
ATOM      5  C   LIG    1       -2.143   1.057   1.284  0.00  0.00    -0.080 A 
ATOM      6  C   LIG    1       -2.376  -0.307   1.272  0.00  0.00    +0.060 A 
ATOM      7  C   LIG    1       -3.671  -0.794   1.273  0.00  0.00    -0.080 A 
ATOM      8  C   LIG    1       -4.740   0.078   1.286  0.00  0.00    +0.080 A 
BRANCH   7   9
ATOM      9  C   LIG    1       -3.915  -2.281   1.260  0.00  0.00    -0.030 C 
ATOM     10  C   LIG    1       -3.290  -2.890   0.003  0.00  0.00    +0.040 C 
ATOM     11  C   LIG    1       -5.421  -2.551   1.264  0.00  0.00    +0.030 C 
ATOM     12  C   LIG    1       -3.281  -2.913   2.501  0.00  0.00    +0.040 C 
ENDBRANCH   7   9
BRANCH   5  13
ATOM     13  C   LIG    1       -0.729   1.578   1.285  0.00  0.00    -0.030 C 
ATOM     14  C   LIG    1       -0.750   3.108   1.299  0.00  0.00    +0.030 C 
ATOM     15  C   LIG    1        0.003   1.066   2.527  0.00  0.00    +0.040 C 
ATOM     16  C   LIG    1       -0.005   1.090   0.029  0.00  0.00    +0.040 C 
ENDBRANCH   5  13
ENDBRANCH   1   3
BRANCH   1  17
ATOM     17  O   LIG    1       -5.428   3.724   1.322  0.00  0.00    -0.330 OA
BRANCH  17  18
ATOM     18  C   LIG    1       -6.595   4.589   1.335  0.00  0.00    +0.270 C 
BRANCH  18  21
ATOM     19  N   LIG    1       -7.071   7.016   1.359  0.00  0.00    -0.670 N 
ATOM     20  H   LIG    1       -8.014   6.801   1.294  0.00  0.00    +0.420 HD
ATOM     21  C   LIG    1       -6.153   6.029   1.347  0.00  0.00    +0.520 C 
ATOM     22  O   LIG    1       -4.971   6.301   1.344  0.00  0.00    -0.490 OA
BRANCH  19  27
ATOM     23  C   LIG    1       -5.420  12.427   1.798  0.00  0.00    +0.100 C 
ATOM     24  C   LIG    1       -5.858  10.989   1.682  0.00  0.00    -0.090 A 
ATOM     25  C   LIG    1       -7.032  10.576   2.281  0.00  0.00    +0.050 A 
ATOM     26  C   LIG    1       -7.440   9.260   2.172  0.00  0.00    +0.000 A 
ATOM     27  C   LIG    1       -6.663   8.350   1.468  0.00  0.00    +0.150 A 
ATOM     28  C   LIG    1       -5.483   8.768   0.866  0.00  0.00    +0.040 A 
ATOM     29  C   LIG    1       -5.083  10.086   0.975  0.00  0.00    -0.020 A 
ATOM     30 CL   LIG    1       -3.608  10.610   0.223  0.00  0.00    -0.060 Cl
ENDBRANCH  19  27
ENDBRANCH  18  21
ENDBRANCH  17  18
ENDBRANCH   1  17
TORSDOF 7
