REMARK  Name = ZINCrg000000sA1A.0
REMARK                            x       y       z     vdW  Elec       q    Type
REMARK                         _______ _______ _______ _____ _____    ______ ____
ROOT
ATOM      1  C   LIG    1        0.119  -4.276   0.192  0.00  0.00    +0.370 C 
ENDROOT
BRANCH   1  11
ATOM      2  C   LIG    1       -2.992  -5.238  -4.365  0.00  0.00    +0.350 C 
ATOM      3  N   LIG    1       -3.078  -5.331  -2.906  0.00  0.00    -0.550 N 
ATOM      4  C   LIG    1       -2.018  -4.970  -2.153  0.00  0.00    +0.600 A 
ATOM      5  C   LIG    1       -2.108  -5.062  -0.747  0.00  0.00    -0.140 A 
ATOM      6  C   LIG    1       -3.286  -5.523  -0.173  0.00  0.00    +0.320 A 
ATOM      7  N   LIG    1       -4.339  -5.878  -1.000  0.00  0.00    -0.510 N 
ATOM      8  C   LIG    1       -5.592  -6.367  -0.420  0.00  0.00    +0.350 C 
ATOM      9  N   LIG    1       -3.111  -5.513   1.151  0.00  0.00    -0.490 NA
ATOM     10  C   LIG    1       -1.907  -5.085   1.436  0.00  0.00    +0.510 A 
ATOM     11  N   LIG    1       -1.250  -4.787   0.299  0.00  0.00    -0.400 N 
ATOM     12  O   LIG    1       -0.996  -4.569  -2.680  0.00  0.00    -0.510 OA
ATOM     13  C   LIG    1       -4.212  -5.776  -2.336  0.00  0.00    +0.710 A 
ATOM     14  O   LIG    1       -5.147  -6.092  -3.046  0.00  0.00    -0.530 OA
ENDBRANCH   1  11
BRANCH   1  15
ATOM     15  C   LIG    1        0.086  -2.772   0.087  0.00  0.00    +0.510 C 
ATOM     16  N   LIG    1        1.237  -2.079  -0.021  0.00  0.00    -0.670 N 
ATOM     17  H   LIG    1        2.080  -2.550  -0.113  0.00  0.00    +0.420 HD
ATOM     18  O   LIG    1       -0.976  -2.187   0.101  0.00  0.00    -0.490 OA
BRANCH  16  19
ATOM     19  C   LIG    1        1.216  -0.680  -0.002  0.00  0.00    +0.200 A 
ATOM     20  C   LIG    1        0.171  -0.009   0.620  0.00  0.00    +0.030 A 
ATOM     21  C   LIG    1        0.153   1.372   0.636  0.00  0.00    +0.080 A 
ATOM     22  C   LIG    1        1.173   2.086   0.035  0.00  0.00    +0.000 A 
ATOM     23  C   LIG    1        2.215   1.420  -0.585  0.00  0.00    +0.090 A 
ATOM     24  C   LIG    1        2.239   0.040  -0.605  0.00  0.00    -0.220 A 
BRANCH  24  25
ATOM     25  C   LIG    1        3.374  -0.685  -1.282  0.00  0.00    +0.510 C 
ATOM     26  F   LIG    1        2.869  -1.483  -2.314  0.00  0.00    -0.170 F 
ATOM     27  F   LIG    1        4.034  -1.492  -0.348  0.00  0.00    -0.180 F 
ATOM     28  F   LIG    1        4.273   0.247  -1.810  0.00  0.00    -0.170 F 
ENDBRANCH  24  25
ENDBRANCH  16  19
ENDBRANCH   1  15
TORSDOF 4
