REMARK  Name = ZINC450000002hc1.0
REMARK                            x       y       z     vdW  Elec       q    Type
REMARK                         _______ _______ _______ _____ _____    ______ ____
ROOT
ATOM      1  C   LIG    1       -0.013   1.086   0.008  0.00  0.00    +0.070 C 
ATOM      2  C   LIG    1       -0.946   1.687   1.075  0.00  0.00    +0.300 C 
ATOM      3  N   LIG    1       -1.996   1.654   0.028  0.00  0.00    -0.540 N 
ATOM      4  H   LIG    1       -2.523   0.794   0.029  0.00  0.00    +0.440 HD
ATOM      5  H   LIG    1       -2.587   2.471   0.037  0.00  0.00    +0.420 HD
ATOM      6  C   LIG    1       -0.966   1.698  -1.034  0.00  0.00    +0.300 C 
ENDROOT
TORSDOF 0
