REMARK  Name = ZINCpk000000pJ7v.0
REMARK                            x       y       z     vdW  Elec       q    Type
REMARK                         _______ _______ _______ _____ _____    ______ ____
ROOT
ATOM      1  N   LIG    1        3.592   3.278  -0.011  0.00  0.00    -0.500 N 
ATOM      2  H   LIG    1        3.607   2.308  -0.016  0.00  0.00    +0.430 HD
ATOM      3  C   LIG    1        2.415   3.934   0.002  0.00  0.00    +0.570 C 
ATOM      4  O   LIG    1        2.397   5.149   0.008  0.00  0.00    -0.500 OA
ENDROOT
BRANCH   3   5
ATOM      5  C   LIG    1        1.149   3.177   0.008  0.00  0.00    -0.090 A 
ATOM      6  C   LIG    1        1.172   1.779   0.000  0.00  0.00    +0.050 A 
ATOM      7  C   LIG    1       -0.013   1.076   0.008  0.00  0.00    +0.090 A 
ATOM      8  C   LIG    1       -1.225   1.752   0.017  0.00  0.00    -0.110 A 
ATOM      9  S   LIG    1       -2.741   0.849   0.041  0.00  0.00    -0.060 S 
ATOM     10  C   LIG    1       -3.833   1.973   0.961  0.00  0.00    +0.030 C 
ATOM     11  C   LIG    1       -3.640   3.373   0.446  0.00  0.00    +0.520 C 
ATOM     12  N   LIG    1       -2.468   3.848   0.033  0.00  0.00    -0.660 N 
ATOM     13  H   LIG    1       -2.452   4.762  -0.293  0.00  0.00    +0.420 HD
ATOM     14  O   LIG    1       -4.605   4.107   0.405  0.00  0.00    -0.500 OA
ATOM     15  C   LIG    1       -5.290   1.550   0.761  0.00  0.00    +0.120 C 
ATOM     16  C   LIG    1       -1.262   3.151   0.026  0.00  0.00    +0.160 A 
ATOM     17  C   LIG    1       -0.070   3.858   0.020  0.00  0.00    +0.080 A 
ENDBRANCH   3   5
BRANCH   1  22
ATOM     18  C   LIG    1        6.768   4.978   0.586  0.00  0.00    +0.130 C 
ATOM     19  N   LIG    1        6.454   5.246  -0.829  0.00  0.00    -0.710 N 
ATOM     20  H   LIG    1        6.987   5.764  -1.452  0.00  0.00    +0.440 HD
ATOM     21  C   LIG    1        5.288   4.629  -1.088  0.00  0.00    +0.710 C 
ATOM     22  N   LIG    1        4.795   3.996  -0.016  0.00  0.00    -0.380 N 
ATOM     23  O   LIG    1        4.740   4.646  -2.173  0.00  0.00    -0.520 OA
ATOM     24  C   LIG    1        6.841   6.282   1.381  0.00  0.00    +0.100 C 
ATOM     25  C   LIG    1        5.601   4.132   1.055  0.00  0.00    +0.530 C 
ATOM     26  O   LIG    1        5.429   3.672   2.163  0.00  0.00    -0.450 OA
BRANCH  18  28
ATOM     27  C   LIG    1        9.239   5.077   0.228  0.00  0.00    +0.050 C 
ATOM     28  C   LIG    1        8.080   4.200   0.708  0.00  0.00    +0.050 C 
ENDBRANCH  18  28
ENDBRANCH   1  22
TORSDOF 3
