REMARK  Name = ZINCvU0000000Ewk.0
REMARK                            x       y       z     vdW  Elec       q    Type
REMARK                         _______ _______ _______ _____ _____    ______ ____
ROOT
ATOM      1  C   LIG    1       -0.843   3.806   1.770  0.00  0.00    +0.150 A 
ATOM      2  N   LIG    1       -0.373   4.442   0.720  0.00  0.00    -0.290 NA
ATOM      3  N   LIG    1       -0.613   5.700   0.822  0.00  0.00    -0.260 NA
ATOM      4  C   LIG    1       -1.252   5.945   1.942  0.00  0.00    +0.230 A 
ATOM      5  N   LIG    1       -1.424   4.739   2.581  0.00  0.00    -0.460 N 
ENDROOT
BRANCH   4   6
ATOM      6  C   LIG    1       -1.706   7.267   2.424  0.00  0.00    -0.010 A 
ATOM      7  C   LIG    1       -2.053   7.443   3.764  0.00  0.00    +0.030 A 
ATOM      8  C   LIG    1       -2.472   8.680   4.208  0.00  0.00    +0.040 A 
ATOM      9  C   LIG    1       -2.558   9.743   3.325  0.00  0.00    -0.020 A 
ATOM     10  C   LIG    1       -2.219   9.573   1.993  0.00  0.00    +0.050 A 
ATOM     11 CL   LIG    1       -3.093  11.295   3.890  0.00  0.00    -0.060 Cl
ATOM     12  C   LIG    1       -1.794   8.342   1.538  0.00  0.00    +0.090 A 
ENDBRANCH   4   6
BRANCH   1  13
ATOM     13  S   LIG    1       -0.749   2.072   2.071  0.00  0.00    +0.100 S 
BRANCH  13  14
ATOM     14  C   LIG    1        0.131   1.542   0.582  0.00  0.00    +0.110 C 
BRANCH  14  17
ATOM     15  N   LIG    1        0.968  -0.573  -0.391  0.00  0.00    -0.660 N 
ATOM     16  H   LIG    1        1.222  -0.074  -1.183  0.00  0.00    +0.420 HD
ATOM     17  C   LIG    1        0.331   0.049   0.621  0.00  0.00    +0.530 C 
ATOM     18  O   LIG    1       -0.082  -0.594   1.563  0.00  0.00    -0.500 OA
BRANCH  15  24
ATOM     19  C   LIG    1        1.807  -4.545   2.382  0.00  0.00    +0.100 C 
ATOM     20  C   LIG    1        1.673  -3.889   1.031  0.00  0.00    -0.070 A 
ATOM     21  C   LIG    1        1.841  -4.637  -0.119  0.00  0.00    -0.010 A 
ATOM     22  C   LIG    1        1.719  -4.039  -1.360  0.00  0.00    +0.030 A 
ATOM     23  C   LIG    1        1.424  -2.694  -1.454  0.00  0.00    -0.120 A 
ATOM     24  C   LIG    1        1.261  -1.938  -0.300  0.00  0.00    +0.150 A 
ATOM     25  C   LIG    1        1.285  -2.044  -2.807  0.00  0.00    +0.080 C 
ATOM     26  C   LIG    1        1.383  -2.542   0.945  0.00  0.00    +0.020 A 
ENDBRANCH  15  24
ENDBRANCH  14  17
ENDBRANCH  13  14
ENDBRANCH   1  13
BRANCH   5  27
ATOM     27  C   LIG    1       -2.089   4.504   3.865  0.00  0.00    +0.440 C 
BRANCH  27  28
ATOM     28  C   LIG    1       -1.056   4.438   4.961  0.00  0.00    -0.060 A 
ATOM     29  C   LIG    1       -0.690   5.456   5.760  0.00  0.00    -0.020 A 
ATOM     30  C   LIG    1        0.299   4.954   6.636  0.00  0.00    -0.060 A 
ATOM     31  C   LIG    1        0.477   3.658   6.321  0.00  0.00    +0.200 A 
ATOM     32  O   LIG    1       -0.350   3.350   5.309  0.00  0.00    -0.160 OA
ENDBRANCH  27  28
ENDBRANCH   5  27
TORSDOF 7
