REMARK  Name = ZINCqH0000038W2h.0
REMARK                            x       y       z     vdW  Elec       q    Type
REMARK                         _______ _______ _______ _____ _____    ______ ____
ROOT
ATOM      1  C   LIG    1       -1.308   1.681  -0.013  0.00  0.00    +0.410 C 
ENDROOT
BRANCH   1   2
ATOM      2  C   LIG    1       -2.530   0.881   0.359  0.00  0.00    -0.130 A 
ATOM      3  C   LIG    1       -2.530  -0.492   0.205  0.00  0.00    +0.060 A 
ATOM      4  C   LIG    1       -3.651  -1.226   0.546  0.00  0.00    +0.020 A 
ATOM      5  C   LIG    1       -4.773  -0.587   1.041  0.00  0.00    +0.060 A 
ATOM      6  C   LIG    1       -4.775   0.786   1.195  0.00  0.00    -0.010 A 
ATOM      7  C   LIG    1       -3.651   1.522   0.860  0.00  0.00    +0.110 A 
ATOM      8  F   LIG    1       -3.649   2.863   1.017  0.00  0.00    -0.140 F 
ENDBRANCH   1   2
BRANCH   1  14
ATOM      9  C   LIG    1       -1.965   4.577  -0.897  0.00  0.00    +0.320 C 
ATOM     10  N   LIG    1       -1.731   3.444  -1.796  0.00  0.00    -0.440 N 
ATOM     11  C   LIG    1       -1.761   3.473  -3.164  0.00  0.00    +0.130 A 
ATOM     12  C   LIG    1       -1.492   2.223  -3.587  0.00  0.00    +0.140 A 
ATOM     13  N   LIG    1       -1.297   1.452  -2.506  0.00  0.00    -0.470 NA
ATOM     14  C   LIG    1       -1.443   2.176  -1.430  0.00  0.00    +0.190 A 
ENDBRANCH   1  14
BRANCH   1  15
ATOM     15  N   LIG    1       -0.118   0.834   0.097  0.00  0.00    -0.720 N 
ATOM     16  H   LIG    1       -0.207  -0.132   0.081  0.00  0.00    +0.400 HD
ATOM     17  C   LIG    1        1.101   1.396   0.214  0.00  0.00    +0.720 C 
ATOM     18  N   LIG    1        2.197   0.617   0.309  0.00  0.00    -0.680 N 
ATOM     19  H   LIG    1        2.114  -0.347   0.240  0.00  0.00    +0.410 HD
ATOM     20  O   LIG    1        1.213   2.607   0.234  0.00  0.00    -0.570 OA
BRANCH  18  21
ATOM     21  C   LIG    1        3.457   1.199   0.506  0.00  0.00    +0.130 A 
ATOM     22  C   LIG    1        3.693   2.501   0.089  0.00  0.00    +0.090 A 
ATOM     23  C   LIG    1        4.934   3.075   0.290  0.00  0.00    +0.010 A 
ATOM     24  C   LIG    1        5.945   2.349   0.896  0.00  0.00    +0.110 A 
ATOM     25  C   LIG    1        5.714   1.048   1.309  0.00  0.00    -0.020 A 
ATOM     26  F   LIG    1        7.159   2.912   1.086  0.00  0.00    -0.130 F 
ATOM     27  C   LIG    1        4.473   0.471   1.116  0.00  0.00    +0.100 A 
ATOM     28  F   LIG    1        4.247  -0.799   1.518  0.00  0.00    -0.130 F 
ENDBRANCH  18  21
ENDBRANCH   1  15
TORSDOF 4
