REMARK  Name = ZINCpk000000noZ9.0
REMARK                            x       y       z     vdW  Elec       q    Type
REMARK                         _______ _______ _______ _____ _____    ______ ____
ROOT
ATOM      1  N   LIG    1       -4.986   1.002  -0.052  0.00  0.00    -0.600 N 
ATOM      2  C   LIG    1       -3.839   1.706   0.012  0.00  0.00    +0.520 C 
ATOM      3  O   LIG    1       -3.873   2.912   0.131  0.00  0.00    -0.540 OA
ENDROOT
BRANCH   1   4
ATOM      4  C   LIG    1       -4.947  -0.463  -0.074  0.00  0.00    +0.260 C 
BRANCH   4   6
ATOM      5  C   LIG    1       -5.144  -2.530   1.315  0.00  0.00    +0.020 C 
ATOM      6  C   LIG    1       -5.174  -1.001   1.340  0.00  0.00    +0.110 C 
ATOM      7  C   LIG    1       -4.069  -0.484   2.265  0.00  0.00    +0.050 C 
BRANCH   6   8
ATOM      8  O   LIG    1       -6.444  -0.556   1.821  0.00  0.00    -0.550 OA
ATOM      9  H   LIG    1       -7.192  -0.848   1.282  0.00  0.00    +0.370 HD
ENDBRANCH   6   8
ENDBRANCH   4   6
ENDBRANCH   1   4
BRANCH   2  10
ATOM     10  C   LIG    1       -2.513   0.994  -0.063  0.00  0.00    +0.070 C 
BRANCH  10  11
ATOM     11  C   LIG    1       -1.382   2.024  -0.104  0.00  0.00    +0.080 C 
BRANCH  11  12
ATOM     12  C   LIG    1       -0.056   1.312  -0.179  0.00  0.00    +0.520 C 
ATOM     13  N   LIG    1        1.088   2.022  -0.231  0.00  0.00    -0.620 N 
ATOM     14  C   LIG    1        1.068   3.493  -0.214  0.00  0.00    +0.250 C 
ATOM     15  C   LIG    1        2.045   3.974   0.870  0.00  0.00    +0.220 C 
ATOM     16  O   LIG    1        3.319   3.359   0.659  0.00  0.00    -0.380 OA
ATOM     17  C   LIG    1        3.307   1.934   0.773  0.00  0.00    +0.220 C 
ATOM     18  C   LIG    1        2.394   1.349  -0.310  0.00  0.00    +0.260 C 
ATOM     19  O   LIG    1       -0.019   0.100  -0.199  0.00  0.00    -0.540 OA
ENDBRANCH  11  12
ENDBRANCH  10  11
ENDBRANCH   2  10
BRANCH   1  20
ATOM     20  C   LIG    1       -6.273   1.701  -0.100  0.00  0.00    +0.340 C 
BRANCH  20  21
ATOM     21  C   LIG    1       -6.649   1.964  -1.535  0.00  0.00    -0.110 A 
ATOM     22  C   LIG    1       -6.256   3.139  -2.148  0.00  0.00    +0.030 A 
ATOM     23  C   LIG    1       -6.597   3.378  -3.466  0.00  0.00    +0.000 A 
ATOM     24  C   LIG    1       -7.340   2.447  -4.168  0.00  0.00    +0.000 A 
ATOM     25  C   LIG    1       -7.737   1.274  -3.553  0.00  0.00    +0.000 A 
ATOM     26  C   LIG    1       -7.391   1.033  -2.237  0.00  0.00    +0.010 A 
ENDBRANCH  20  21
ENDBRANCH   1  20
TORSDOF 8
