REMARK  Name = ZINCqH0000003JQQ.0
REMARK                            x       y       z     vdW  Elec       q    Type
REMARK                         _______ _______ _______ _____ _____    ______ ____
ROOT
ATOM      1  N   LIG    1       -3.376  -3.762   2.825  0.00  0.00    -0.610 N 
ATOM      2  C   LIG    1       -2.359  -3.097   2.242  0.00  0.00    +0.520 C 
ATOM      3  O   LIG    1       -1.427  -2.705   2.912  0.00  0.00    -0.520 OA
ATOM      4  C   LIG    1       -4.502  -4.235   2.015  0.00  0.00    +0.270 C 
ENDROOT
BRANCH   1   5
ATOM      5  C   LIG    1       -3.356  -4.011   4.268  0.00  0.00    +0.340 C 
BRANCH   5   9
ATOM      6  C   LIG    1       -5.255  -0.768   6.302  0.00  0.00    +0.140 A 
ATOM      7  C   LIG    1       -6.002  -1.861   5.888  0.00  0.00    -0.030 A 
ATOM      8  C   LIG    1       -5.386  -2.909   5.231  0.00  0.00    +0.060 A 
ATOM      9  C   LIG    1       -4.026  -2.868   4.985  0.00  0.00    -0.150 A 
ATOM     10  C   LIG    1       -3.278  -1.782   5.402  0.00  0.00    +0.080 A 
ATOM     11  C   LIG    1       -3.890  -0.729   6.054  0.00  0.00    -0.080 A 
BRANCH   6  12
ATOM     12  O   LIG    1       -5.859   0.263   6.949  0.00  0.00    -0.320 OA
BRANCH  12  14
ATOM     13  C   LIG    1       -5.878   2.412   8.055  0.00  0.00    +0.070 C 
ATOM     14  C   LIG    1       -5.028   1.356   7.346  0.00  0.00    +0.170 C 
ENDBRANCH  12  14
ENDBRANCH   6  12
ENDBRANCH   5   9
ENDBRANCH   1   5
BRANCH   2  15
ATOM     15  C   LIG    1       -2.380  -2.840   0.757  0.00  0.00    +0.120 C 
BRANCH  15  16
ATOM     16  C   LIG    1       -1.138  -2.085   0.360  0.00  0.00    -0.050 A 
ATOM     17  C   LIG    1        0.001  -2.775  -0.009  0.00  0.00    +0.050 A 
ATOM     18  C   LIG    1        1.144  -2.085  -0.372  0.00  0.00    -0.030 A 
ATOM     19  C   LIG    1        1.149  -0.698  -0.367  0.00  0.00    +0.060 A 
ATOM     20  O   LIG    1        2.282  -0.032  -0.721  0.00  0.00    -0.290 OA
ATOM     21  C   LIG    1        2.136   1.351  -1.063  0.00  0.00    +0.230 C 
ATOM     22  C   LIG    1        1.254   2.018   0.001  0.00  0.00    +0.230 C 
ATOM     23  O   LIG    1       -0.016   1.357   0.009  0.00  0.00    -0.300 OA
ATOM     24  C   LIG    1        0.002  -0.004   0.002  0.00  0.00    +0.060 A 
ATOM     25 CL   LIG    1        2.573  -2.956  -0.834  0.00  0.00    -0.050 Cl
ATOM     26  C   LIG    1       -1.139  -0.702   0.366  0.00  0.00    +0.050 A 
ENDBRANCH  15  16
ENDBRANCH   2  15
TORSDOF 6
