REMARK  Name = ZINCnE00000rhngF.0
REMARK                            x       y       z     vdW  Elec       q    Type
REMARK                         _______ _______ _______ _____ _____    ______ ____
ROOT
ATOM      1  N   LIG    1       -6.235   5.986   0.172  0.00  0.00    -0.320 N 
ATOM      2  C   LIG    1       -6.397   7.357   0.199  0.00  0.00    +0.170 A 
ATOM      3  C   LIG    1       -7.713   7.613   0.316  0.00  0.00    +0.080 A 
ATOM      4  N   LIG    1       -8.374   6.388   0.373  0.00  0.00    -0.560 N 
ATOM      5  H   LIG    1       -9.332   6.260   0.461  0.00  0.00    +0.450 HD
ATOM      6  C   LIG    1       -7.449   5.413   0.283  0.00  0.00    +0.500 A 
ATOM      7  S   LIG    1       -7.763   3.730   0.306  0.00  0.00    -0.580 S 
ENDROOT
BRANCH   3   8
ATOM      8  C   LIG    1       -8.341   8.950   0.380  0.00  0.00    -0.020 A 
ATOM      9  C   LIG    1       -7.552  10.099   0.316  0.00  0.00    +0.030 A 
ATOM     10  C   LIG    1       -8.145  11.344   0.370  0.00  0.00    +0.020 A 
ATOM     11  C   LIG    1       -9.519  11.454   0.498  0.00  0.00    +0.020 A 
ATOM     12  C   LIG    1      -10.306  10.318   0.568  0.00  0.00    +0.020 A 
ATOM     13  C   LIG    1       -9.726   9.068   0.509  0.00  0.00    +0.010 A 
ENDBRANCH   3   8
BRANCH   1  15
ATOM     14  C   LIG    1       -3.899   5.971   0.056  0.00  0.00    +0.310 C 
ATOM     15  N   LIG    1       -5.015   5.306   0.056  0.00  0.00    -0.230 NA
BRANCH  14  19
ATOM     16  C   LIG    1       -0.201   3.902   0.026  0.00  0.00    -0.090 A 
ATOM     17  C   LIG    1       -1.404   3.186   0.021  0.00  0.00    +0.040 A 
ATOM     18  C   LIG    1       -2.595   3.853   0.036  0.00  0.00    +0.060 A 
ATOM     19  C   LIG    1       -2.614   5.252   0.046  0.00  0.00    -0.100 A 
ATOM     20  C   LIG    1       -1.412   5.968   0.046  0.00  0.00    +0.030 A 
ATOM     21  C   LIG    1       -0.220   5.301   0.036  0.00  0.00    +0.040 A 
BRANCH  16  23
ATOM     22  O   LIG    1        2.135   3.808   0.015  0.00  0.00    -0.680 OA
ATOM     23  C   LIG    1        1.084   3.183   0.015  0.00  0.00    +0.510 C 
ATOM     24  O   LIG    1        1.100   1.959   0.011  0.00  0.00    -0.680 OA
ENDBRANCH  16  23
ENDBRANCH  14  19
ENDBRANCH   1  15
TORSDOF 4
