REMARK  Name = ZINCrH000004muzh.0
REMARK                            x       y       z     vdW  Elec       q    Type
REMARK                         _______ _______ _______ _____ _____    ______ ____
ROOT
ATOM      1  C   LIG    1       -2.508   1.292   0.020  0.00  0.00    +0.560 C 
ATOM      2  N   LIG    1       -3.682   1.956   0.030  0.00  0.00    -0.630 N 
ATOM      3  H   LIG    1       -3.690   2.926   0.035  0.00  0.00    +0.420 HD
ATOM      4  O   LIG    1       -2.497   0.076   0.013  0.00  0.00    -0.440 OA
ENDROOT
BRANCH   2   5
ATOM      5  C   LIG    1       -4.875   1.252   0.031  0.00  0.00    +0.350 A 
ATOM      6  N   LIG    1       -4.971  -0.032   0.018  0.00  0.00    -0.460 NA
ATOM      7  C   LIG    1       -6.207  -0.572   0.026  0.00  0.00    +0.120 A 
ATOM      8  C   LIG    1       -6.572  -1.936   0.020  0.00  0.00    +0.080 A 
ATOM      9  C   LIG    1       -7.898  -2.300   0.022  0.00  0.00    +0.090 A 
ATOM     10  C   LIG    1       -8.896  -1.330   0.031  0.00  0.00    +0.080 A 
ATOM     11  O   LIG    1      -10.207  -1.711   0.028  0.00  0.00    -0.310 OA
ATOM     12  C   LIG    1      -10.676  -2.351   1.216  0.00  0.00    +0.230 C 
ATOM     13  C   LIG    1      -10.361  -3.838   1.188  0.00  0.00    -0.010 C 
ATOM     14  C   LIG    1       -8.865  -4.113   1.203  0.00  0.00    +0.230 C 
ATOM     15  C   LIG    1       -8.561   0.008   0.039  0.00  0.00    +0.080 A 
ATOM     16  O   LIG    1       -8.246  -3.621   0.013  0.00  0.00    -0.310 OA
ATOM     17  C   LIG    1       -7.220   0.391   0.036  0.00  0.00    -0.170 A 
ATOM     18  S   LIG    1       -6.472   1.986   0.042  0.00  0.00    +0.080 S 
ENDBRANCH   2   5
BRANCH   1  22
ATOM     19  C   LIG    1        1.150   3.450   0.010  0.00  0.00    +0.200 A 
ATOM     20  C   LIG    1       -0.062   4.134   0.025  0.00  0.00    -0.110 A 
ATOM     21  C   LIG    1       -1.249   3.438   0.032  0.00  0.00    +0.130 A 
ATOM     22  C   LIG    1       -1.240   2.040   0.019  0.00  0.00    -0.210 A 
ATOM     23  C   LIG    1       -0.016   1.352   0.009  0.00  0.00    +0.230 A 
ATOM     24  C   LIG    1        1.171   2.063   0.002  0.00  0.00    -0.110 A 
BRANCH  19  26
ATOM     25  C   LIG    1        2.224   5.570   0.012  0.00  0.00    +0.250 C 
ATOM     26  O   LIG    1        2.317   4.144   0.003  0.00  0.00    -0.310 OA
ENDBRANCH  19  26
BRANCH  23  27
ATOM     27  O   LIG    1        0.002  -0.004   0.002  0.00  0.00    -0.280 OA
ATOM     28  C   LIG    1        1.284  -0.635  -0.014  0.00  0.00    +0.250 C 
ENDBRANCH  23  27
ENDBRANCH   1  22
TORSDOF 4
