REMARK  Name = ZINCtV00000L6jQb.0
REMARK                            x       y       z     vdW  Elec       q    Type
REMARK                         _______ _______ _______ _____ _____    ______ ____
ROOT
ATOM      1  C   LIG    1       -3.659   1.486   6.460  0.00  0.00    +0.170 C 
ATOM      2  C   LIG    1       -2.936   1.792   5.174  0.00  0.00    +0.150 A 
ATOM      3  N   LIG    1       -2.685   2.990   4.706  0.00  0.00    -0.330 NA
ATOM      4  N   LIG    1       -1.999   2.877   3.492  0.00  0.00    -0.340 N 
ATOM      5  C   LIG    1       -1.514   3.811   2.615  0.00  0.00    +0.490 A 
ATOM      6  C   LIG    1       -0.866   3.380   1.476  0.00  0.00    -0.170 A 
ATOM      7  C   LIG    1       -0.724   2.012   1.250  0.00  0.00    +0.260 A 
ATOM      8  N   LIG    1       -1.208   1.142   2.112  0.00  0.00    -0.500 NA
ATOM      9  C   LIG    1       -1.833   1.544   3.223  0.00  0.00    +0.320 A 
ATOM     10  C   LIG    1       -2.423   0.842   4.282  0.00  0.00    -0.220 A 
ENDROOT
BRANCH  10  11
ATOM     11  C   LIG    1       -2.491  -0.630   4.431  0.00  0.00    +0.020 A 
ATOM     12  C   LIG    1       -1.321  -1.373   4.591  0.00  0.00    +0.020 A 
ATOM     13  C   LIG    1       -1.391  -2.743   4.735  0.00  0.00    +0.000 A 
ATOM     14  C   LIG    1       -2.618  -3.382   4.709  0.00  0.00    +0.000 A 
ATOM     15  C   LIG    1       -3.782  -2.652   4.545  0.00  0.00    +0.000 A 
ATOM     16  C   LIG    1       -3.725  -1.280   4.406  0.00  0.00    +0.010 A 
ENDBRANCH  10  11
BRANCH   7  17
ATOM     17  C   LIG    1       -0.019   1.526   0.010  0.00  0.00    -0.020 C 
ATOM     18  C   LIG    1       -0.759   2.033  -1.229  0.00  0.00    +0.050 C 
ATOM     19  C   LIG    1        1.417   2.055  -0.000  0.00  0.00    +0.050 C 
ATOM     20  C   LIG    1        0.002  -0.004   0.002  0.00  0.00    +0.050 C 
ENDBRANCH   7  17
BRANCH   5  21
ATOM     21  N   LIG    1       -1.671   5.156   2.867  0.00  0.00    -0.710 N 
ATOM     22  H   LIG    1       -2.127   5.450   3.671  0.00  0.00    +0.410 HD
BRANCH  21  23
ATOM     23  C   LIG    1       -1.147   6.144   1.920  0.00  0.00    +0.290 C 
ATOM     24  C   LIG    1       -2.173   6.382   0.811  0.00  0.00    +0.040 C 
BRANCH  23  25
ATOM     25  C   LIG    1       -0.879   7.439   2.643  0.00  0.00    -0.100 A 
ATOM     26  C   LIG    1       -1.766   7.893   3.601  0.00  0.00    +0.010 A 
ATOM     27  C   LIG    1       -1.519   9.079   4.266  0.00  0.00    +0.020 A 
ATOM     28  C   LIG    1       -0.388   9.816   3.967  0.00  0.00    +0.020 A 
ATOM     29  C   LIG    1        0.496   9.365   3.006  0.00  0.00    +0.020 A 
ATOM     30  C   LIG    1        0.251   8.177   2.343  0.00  0.00    +0.030 A 
ENDBRANCH  23  25
ENDBRANCH  21  23
ENDBRANCH   5  21
TORSDOF 5
