REMARK  Name = ZINCvU0000000DNz.0
REMARK                            x       y       z     vdW  Elec       q    Type
REMARK                         _______ _______ _______ _____ _____    ______ ____
ROOT
ATOM      1  C   LIG    1        5.024   0.474  -1.634  0.00  0.00    +0.000 A 
ATOM      2  C   LIG    1        4.710  -0.491  -0.661  0.00  0.00    -0.220 A 
ATOM      3  C   LIG    1        5.623  -1.526  -0.398  0.00  0.00    +0.310 A 
ATOM      4  O   LIG    1        5.079  -2.298   0.564  0.00  0.00    -0.070 OA
ATOM      5  N   LIG    1        3.820  -1.775   0.938  0.00  0.00    -0.260 NA
ATOM      6  N   LIG    1        6.766  -1.585  -1.064  0.00  0.00    -0.460 NA
ATOM      7  C   LIG    1        7.087  -0.697  -1.980  0.00  0.00    +0.240 A 
ATOM      8  C   LIG    1        3.562  -0.707   0.231  0.00  0.00    +0.190 A 
ATOM      9  C   LIG    1        6.244   0.354  -2.300  0.00  0.00    +0.000 A 
ENDROOT
BRANCH   8  10
ATOM     10  C   LIG    1        2.343   0.134   0.316  0.00  0.00    -0.050 A 
ATOM     11  C   LIG    1        1.086  -0.464   0.388  0.00  0.00    +0.060 A 
ATOM     12  C   LIG    1       -0.045   0.323   0.468  0.00  0.00    +0.020 A 
ATOM     13  C   LIG    1        0.068   1.702   0.477  0.00  0.00    +0.050 A 
ATOM     14  C   LIG    1        1.313   2.300   0.406  0.00  0.00    +0.020 A 
ATOM     15  C   LIG    1        2.451   1.523   0.325  0.00  0.00    +0.050 A 
ENDBRANCH   8  10
BRANCH   1  17
ATOM     16  O   LIG    1        4.379   2.721  -1.639  0.00  0.00    -0.510 OA
ATOM     17  C   LIG    1        4.090   1.581  -1.942  0.00  0.00    +0.570 C 
ATOM     18  N   LIG    1        2.919   1.323  -2.558  0.00  0.00    -0.700 N 
ATOM     19  H   LIG    1        2.660   0.407  -2.744  0.00  0.00    +0.400 HD
BRANCH  18  20
ATOM     20  C   LIG    1        2.038   2.427  -2.947  0.00  0.00    +0.330 C 
BRANCH  20  21
ATOM     21  C   LIG    1        0.608   1.952  -2.945  0.00  0.00    -0.080 A 
ATOM     22  C   LIG    1        0.295   0.695  -3.428  0.00  0.00    +0.000 A 
ATOM     23  C   LIG    1       -1.016   0.258  -3.421  0.00  0.00    +0.010 A 
ATOM     24  C   LIG    1       -2.017   1.082  -2.941  0.00  0.00    +0.010 A 
ATOM     25  C   LIG    1       -1.705   2.341  -2.462  0.00  0.00    +0.010 A 
ATOM     26  C   LIG    1       -0.393   2.776  -2.464  0.00  0.00    +0.020 A 
ENDBRANCH  20  21
BRANCH  20  27
ATOM     27  C   LIG    1        2.413   2.909  -4.350  0.00  0.00    -0.060 C 
ATOM     28  C   LIG    1        3.424   2.072  -5.138  0.00  0.00    +0.010 C 
ATOM     29  C   LIG    1        3.836   3.429  -4.562  0.00  0.00    +0.020 C 
ENDBRANCH  20  27
ENDBRANCH  18  20
ENDBRANCH   1  17
BRANCH   7  30
ATOM     30  C   LIG    1        8.405  -0.827  -2.700  0.00  0.00    +0.020 C 
ATOM     31  C   LIG    1        8.585  -0.032  -3.994  0.00  0.00    +0.040 C 
ATOM     32  C   LIG    1        8.406  -1.551  -4.048  0.00  0.00    +0.060 C 
ENDBRANCH   7  30
TORSDOF 6
