REMARK  Name = ZINCqH0000061syu.0
REMARK                            x       y       z     vdW  Elec       q    Type
REMARK                         _______ _______ _______ _____ _____    ______ ____
ROOT
ATOM      1  C   LIG    1        3.568   7.563   0.676  0.00  0.00    +0.010 C 
ATOM      2  C   LIG    1        3.483   6.253  -0.112  0.00  0.00    +0.330 C 
ATOM      3  N   LIG    1        2.215   5.580   0.181  0.00  0.00    -0.560 N 
ATOM      4  C   LIG    1        1.049   6.351   0.243  0.00  0.00    +0.050 A 
ATOM      5  C   LIG    1        0.092   6.296  -0.747  0.00  0.00    +0.300 A 
ATOM      6  N   LIG    1       -0.985   7.059  -0.681  0.00  0.00    -0.470 NA
ATOM      7  C   LIG    1       -1.194   7.894   0.319  0.00  0.00    +0.310 A 
ATOM      8  C   LIG    1       -0.291   7.998   1.361  0.00  0.00    -0.030 A 
ATOM      9  C   LIG    1        0.846   7.205   1.338  0.00  0.00    +0.190 A 
ATOM     10  N   LIG    1        1.784   7.231   2.369  0.00  0.00    -0.680 N 
ATOM     11  H   LIG    1        1.489   7.160   3.291  0.00  0.00    +0.420 HD
ATOM     12  C   LIG    1        2.173   4.248   0.382  0.00  0.00    +0.570 C 
ATOM     13  O   LIG    1        3.202   3.602   0.393  0.00  0.00    -0.500 OA
ATOM     14  C   LIG    1        3.102   7.353   2.091  0.00  0.00    +0.540 C 
ATOM     15  O   LIG    1        3.915   7.294   2.990  0.00  0.00    -0.510 OA
ENDROOT
BRANCH  12  16
ATOM     16  C   LIG    1        0.874   3.573   0.587  0.00  0.00    -0.080 A 
ATOM     17  C   LIG    1        0.662   2.291   0.077  0.00  0.00    +0.080 A 
ATOM     18  C   LIG    1       -0.552   1.665   0.272  0.00  0.00    +0.090 A 
ATOM     19  C   LIG    1       -1.557   2.302   0.977  0.00  0.00    -0.180 A 
ATOM     20  C   LIG    1       -1.357   3.577   1.481  0.00  0.00    +0.140 A 
ATOM     21  F   LIG    1       -2.346   4.196   2.163  0.00  0.00    -0.120 F 
ATOM     22  C   LIG    1       -0.146   4.215   1.292  0.00  0.00    +0.010 A 
BRANCH  19  23
ATOM     23  C   LIG    1       -2.878   1.609   1.191  0.00  0.00    +0.440 C 
ATOM     24  F   LIG    1       -3.902   2.368   0.614  0.00  0.00    -0.190 F 
ATOM     25  F   LIG    1       -3.116   1.473   2.563  0.00  0.00    -0.190 F 
ENDBRANCH  19  23
ENDBRANCH  12  16
BRANCH   1  27
ATOM     26  C   LIG    1        3.274   8.989  -1.355  0.00  0.00    +0.030 C 
ATOM     27  C   LIG    1        2.682   8.615   0.006  0.00  0.00    +0.010 C 
ENDBRANCH   1  27
TORSDOF 3
