REMARK  Name = ZINCqH0000000KRb.0
REMARK                            x       y       z     vdW  Elec       q    Type
REMARK                         _______ _______ _______ _____ _____    ______ ____
ROOT
ATOM      1  C   LIG    1       -0.288   7.155  -1.052  0.00  0.00    +0.660 C 
ATOM      2  N   LIG    1       -0.348   6.107  -0.207  0.00  0.00    -0.600 N 
ATOM      3  C   LIG    1       -1.589   5.781   0.512  0.00  0.00    +0.320 C 
ATOM      4  C   LIG    1       -2.096   4.416   0.041  0.00  0.00    +0.130 C 
ATOM      5  C   LIG    1       -0.937   3.431   0.028  0.00  0.00    +0.110 A 
ATOM      6  C   LIG    1        0.351   3.815   0.019  0.00  0.00    -0.310 A 
ATOM      7  S   LIG    1        1.370   2.383   0.002  0.00  0.00    +0.270 S 
ATOM      8  C   LIG    1       -0.017   1.385   0.010  0.00  0.00    +0.240 A 
ATOM      9  N   LIG    1       -1.086   2.111   0.018  0.00  0.00    -0.510 NA
ATOM     10  C   LIG    1        0.827   5.250   0.027  0.00  0.00    +0.400 C 
ATOM     11  O   LIG    1       -1.270   7.849  -1.230  0.00  0.00    -0.560 OA
ENDROOT
BRANCH   8  12
ATOM     12  N   LIG    1        0.002  -0.004   0.002  0.00  0.00    -0.600 N 
ATOM     13  H   LIG    1       -0.831  -0.500   0.007  0.00  0.00    +0.440 HD
ATOM     14  C   LIG    1        1.178  -0.662  -0.012  0.00  0.00    +0.580 C 
ATOM     15  O   LIG    1        2.222  -0.040  -0.018  0.00  0.00    -0.490 OA
BRANCH  14  16
ATOM     16  C   LIG    1        1.198  -2.143  -0.020  0.00  0.00    +0.090 A 
ATOM     17  C   LIG    1        2.417  -2.817  -0.041  0.00  0.00    +0.060 A 
ATOM     18  C   LIG    1        2.419  -4.205  -0.043  0.00  0.00    -0.000 A 
ATOM     19  C   LIG    1        1.201  -4.868  -0.036  0.00  0.00    +0.030 A 
ATOM     20  C   LIG    1        0.027  -4.132  -0.021  0.00  0.00    +0.300 A 
ATOM     21 CL   LIG    1        3.912  -5.090  -0.062  0.00  0.00    -0.030 Cl
ATOM     22  N   LIG    1        0.054  -2.817  -0.014  0.00  0.00    -0.450 NA
ENDBRANCH  14  16
ENDBRANCH   8  12
BRANCH   1  23
ATOM     23  O   LIG    1        0.859   7.434  -1.699  0.00  0.00    -0.360 OA
BRANCH  23  25
ATOM     24  C   LIG    1        0.508   9.841  -1.802  0.00  0.00    +0.040 C 
ATOM     25  C   LIG    1        0.851   8.577  -2.594  0.00  0.00    +0.140 C 
ATOM     26  C   LIG    1       -0.196   8.361  -3.688  0.00  0.00    +0.040 C 
ATOM     27  C   LIG    1        2.232   8.735  -3.233  0.00  0.00    +0.080 C 
ENDBRANCH  23  25
ENDBRANCH   1  23
TORSDOF 4
