REMARK  Name = ZINCvU0000000Hdq.0
REMARK                            x       y       z     vdW  Elec       q    Type
REMARK                         _______ _______ _______ _____ _____    ______ ____
ROOT
ATOM      1  O   LIG    1        2.494   5.836   1.170  0.00  0.00    -0.470 OA
ATOM      2  C   LIG    1        1.550   6.200   1.838  0.00  0.00    +0.500 C 
ATOM      3  N   LIG    1        0.299   5.838   1.491  0.00  0.00    -0.560 N 
ENDROOT
BRANCH   3   4
ATOM      4  C   LIG    1       -0.782   6.181   2.312  0.00  0.00    +0.120 A 
ATOM      5  C   LIG    1       -0.917   5.596   3.565  0.00  0.00    +0.020 A 
ATOM      6  C   LIG    1       -1.981   5.939   4.375  0.00  0.00    +0.050 A 
ATOM      7  C   LIG    1       -2.919   6.858   3.936  0.00  0.00    -0.030 A 
ATOM      8  C   LIG    1       -2.790   7.438   2.686  0.00  0.00    +0.050 A 
ATOM      9 CL   LIG    1       -4.259   7.282   4.954  0.00  0.00    -0.060 Cl
ATOM     10  C   LIG    1       -1.724   7.102   1.874  0.00  0.00    +0.040 A 
ENDBRANCH   3   4
BRANCH   3  11
ATOM     11  C   LIG    1        0.070   5.087   0.255  0.00  0.00    +0.380 C 
BRANCH  11  12
ATOM     12  C   LIG    1        0.147   3.610   0.543  0.00  0.00    +0.100 A 
ATOM     13  C   LIG    1       -1.013   2.903   0.801  0.00  0.00    -0.030 A 
ATOM     14  C   LIG    1       -0.932   1.543   1.060  0.00  0.00    +0.060 A 
ATOM     15  C   LIG    1        0.319   0.945   1.061  0.00  0.00    -0.030 A 
ATOM     16  C   LIG    1        1.435   1.716   0.795  0.00  0.00    +0.260 A 
ATOM     17  N   LIG    1        1.319   3.006   0.548  0.00  0.00    -0.450 NA
ENDBRANCH  11  12
ENDBRANCH   3  11
BRANCH   2  18
ATOM     18  C   LIG    1        1.776   7.058   3.057  0.00  0.00    +0.340 C 
BRANCH  18  19
ATOM     19  N   LIG    1        3.193   7.418   3.145  0.00  0.00    -0.450 N 
ATOM     20  C   LIG    1        3.790   8.531   2.588  0.00  0.00    +0.080 A 
ATOM     21  C   LIG    1        3.329   9.598   1.829  0.00  0.00    +0.020 A 
ATOM     22  C   LIG    1        4.211  10.575   1.419  0.00  0.00    +0.060 A 
ATOM     23  C   LIG    1        5.553  10.499   1.759  0.00  0.00    +0.010 A 
ATOM     24  C   LIG    1        6.025   9.457   2.506  0.00  0.00    +0.090 A 
ATOM     25  C   LIG    1        5.150   8.455   2.933  0.00  0.00    +0.040 A 
ATOM     26  N   LIG    1        5.309   7.323   3.667  0.00  0.00    -0.420 NA
ATOM     27  C   LIG    1        4.163   6.721   3.795  0.00  0.00    +0.190 A 
BRANCH  27  28
ATOM     28  C   LIG    1        3.944   5.435   4.550  0.00  0.00    +0.560 C 
ATOM     29  F   LIG    1        3.779   4.383   3.642  0.00  0.00    -0.150 F 
ATOM     30  F   LIG    1        2.797   5.550   5.344  0.00  0.00    -0.170 F 
ATOM     31  F   LIG    1        5.051   5.178   5.365  0.00  0.00    -0.140 F 
ENDBRANCH  27  28
ENDBRANCH  18  19
ENDBRANCH   2  18
TORSDOF 6
