REMARK  Name = ZINCvU0000000HdQ.1
REMARK                            x       y       z     vdW  Elec       q    Type
REMARK                         _______ _______ _______ _____ _____    ______ ____
ROOT
ATOM      1  O   LIG    1       -3.895   3.709   6.785  0.00  0.00    -0.510 OA
ATOM      2  C   LIG    1       -3.506   4.619   6.085  0.00  0.00    +0.520 C 
ATOM      3  N   LIG    1       -3.729   5.896   6.453  0.00  0.00    -0.720 N 
ATOM      4  H   LIG    1       -3.417   6.625   5.893  0.00  0.00    +0.400 HD
ENDROOT
BRANCH   3   5
ATOM      5  C   LIG    1       -4.441   6.185   7.700  0.00  0.00    +0.240 C 
ATOM      6  C   LIG    1       -5.951   6.157   7.445  0.00  0.00    +0.010 C 
ATOM      7  C   LIG    1       -6.688   6.519   8.737  0.00  0.00    +0.170 C 
ATOM      8  N   LIG    1       -6.273   7.855   9.181  0.00  0.00    -0.530 NA
ATOM      9  C   LIG    1       -4.836   7.894   9.478  0.00  0.00    +0.180 C 
ATOM     10  C   LIG    1       -4.043   7.573   8.208  0.00  0.00    +0.040 C 
BRANCH   8  11
ATOM     11  C   LIG    1       -7.062   8.293  10.341  0.00  0.00    +0.230 C 
BRANCH  11  12
ATOM     12  C   LIG    1       -8.500   8.476   9.930  0.00  0.00    -0.070 A 
ATOM     13  C   LIG    1       -8.936   9.704   9.469  0.00  0.00    +0.040 A 
ATOM     14  C   LIG    1      -10.254   9.871   9.086  0.00  0.00    +0.020 A 
ATOM     15  C   LIG    1      -11.139   8.812   9.176  0.00  0.00    -0.030 A 
ATOM     16  C   LIG    1      -10.704   7.585   9.643  0.00  0.00    +0.020 A 
ATOM     17 CL   LIG    1      -12.796   9.023   8.702  0.00  0.00    -0.070 Cl
ATOM     18  C   LIG    1       -9.385   7.418  10.020  0.00  0.00    +0.030 A 
ENDBRANCH  11  12
ENDBRANCH   8  11
ENDBRANCH   3   5
BRANCH   2  19
ATOM     19  C   LIG    1       -2.772   4.323   4.802  0.00  0.00    +0.240 C 
BRANCH  19  20
ATOM     20  O   LIG    1       -2.662   2.908   4.633  0.00  0.00    -0.290 OA
BRANCH  20  21
ATOM     21  C   LIG    1       -2.022   2.469   3.517  0.00  0.00    +0.140 A 
ATOM     22  C   LIG    1       -1.879   1.108   3.289  0.00  0.00    -0.010 A 
ATOM     23  C   LIG    1       -1.228   0.663   2.154  0.00  0.00    +0.080 A 
ATOM     24  C   LIG    1       -0.721   1.573   1.245  0.00  0.00    -0.100 A 
ATOM     25  C   LIG    1       -0.858   2.930   1.473  0.00  0.00    +0.100 A 
ATOM     26  C   LIG    1       -1.512   3.380   2.603  0.00  0.00    -0.080 A 
BRANCH  24  27
ATOM     27  C   LIG    1       -0.013   1.086   0.008  0.00  0.00    +0.140 C 
ATOM     28  S   LIG    1       -0.880   1.689  -1.468  0.00  0.00    -0.220 S 
ATOM     29  C   LIG    1        0.156   1.077  -2.824  0.00  0.00    +0.100 C 
ATOM     30  C   LIG    1        1.547   1.696  -2.741  0.00  0.00    +0.060 C 
ATOM     31  C   LIG    1        2.337   1.099  -1.582  0.00  0.00    +0.100 C 
ATOM     32  S   LIG    1        1.690   1.716  -0.005  0.00  0.00    -0.220 S 
ENDBRANCH  24  27
ENDBRANCH  20  21
ENDBRANCH  19  20
ENDBRANCH   2  19
TORSDOF 7
