REMARK  Name = ZINCkj000005h8dQ.0
REMARK                            x       y       z     vdW  Elec       q    Type
REMARK                         _______ _______ _______ _____ _____    ______ ____
ROOT
ATOM      1  C   LIG    1       -5.562   4.035  -0.560  0.00  0.00    -0.030 C 
ATOM      2  C   LIG    1       -4.627   5.104   0.065  0.00  0.00    +0.070 C 
ATOM      3  C   LIG    1       -3.291   4.348   0.223  0.00  0.00    +0.270 C 
ATOM      4  N   LIG    1       -3.602   2.911   0.239  0.00  0.00    -0.610 N 
ATOM      5  C   LIG    1       -2.701   1.913   0.339  0.00  0.00    +0.630 C 
ATOM      6  O   LIG    1       -3.074   0.756   0.348  0.00  0.00    -0.520 OA
ATOM      7  C   LIG    1       -5.062   2.742   0.133  0.00  0.00    +0.260 C 
ENDROOT
BRANCH   5   8
ATOM      8  C   LIG    1       -1.261   2.226   0.439  0.00  0.00    -0.020 A 
ATOM      9  N   LIG    1       -0.712   3.429   0.444  0.00  0.00    -0.260 NA
ATOM     10  N   LIG    1        0.569   3.332   0.538  0.00  0.00    -0.370 N 
ATOM     11  H   LIG    1        1.184   4.082   0.556  0.00  0.00    +0.450 HD
ATOM     12  C   LIG    1        0.929   2.039   0.607  0.00  0.00    +0.020 A 
ATOM     13  C   LIG    1        2.309   1.446   0.728  0.00  0.00    +0.120 C 
ATOM     14  C   LIG    1        2.170  -0.011   1.186  0.00  0.00    +0.030 C 
ATOM     15  C   LIG    1        1.154  -0.735   0.298  0.00  0.00    +0.020 C 
ATOM     16  C   LIG    1       -0.255  -0.200   0.591  0.00  0.00    +0.120 C 
ATOM     17  C   LIG    1       -0.207   1.302   0.548  0.00  0.00    -0.140 A 
ENDBRANCH   5   8
BRANCH   1  18
ATOM     18  C   LIG    1       -7.025   4.314  -0.210  0.00  0.00    +0.280 C 
BRANCH  18  20
ATOM     19  C   LIG    1       -9.251   3.422  -0.270  0.00  0.00    +0.320 C 
ATOM     20  N   LIG    1       -7.868   3.229  -0.728  0.00  0.00    -0.390 N 
ATOM     21  C   LIG    1       -7.832   3.239  -2.196  0.00  0.00    +0.320 C 
ATOM     22  H   LIG    1       -7.522   2.343  -0.389  0.00  0.00    +0.430 HD
ENDBRANCH  18  20
ENDBRANCH   1  18
TORSDOF 3
