REMARK  Name = ZINCrD0000074kvu.0
REMARK                            x       y       z     vdW  Elec       q    Type
REMARK                         _______ _______ _______ _____ _____    ______ ____
ROOT
ATOM      1  C   LIG    1       -1.125   3.583   0.034  0.00  0.00    +0.160 C 
ATOM      2  C   LIG    1       -1.071   4.143  -1.388  0.00  0.00    +0.080 C 
ENDROOT
BRANCH   1   3
ATOM      3  C   LIG    1       -2.338   4.128   0.743  0.00  0.00    +0.450 C 
ATOM      4  O   LIG    1       -3.327   3.437   0.873  0.00  0.00    -0.420 OA
BRANCH   3   7
ATOM      5  C   LIG    1       -1.213   4.950   3.512  0.00  0.00    +0.150 C 
ATOM      6  C   LIG    1       -1.835   5.856   2.480  0.00  0.00    +0.150 A 
ATOM      7  C   LIG    1       -2.324   5.449   1.257  0.00  0.00    -0.280 A 
ATOM      8  C   LIG    1       -2.836   6.664   0.594  0.00  0.00    -0.060 A 
ATOM      9  C   LIG    1       -3.444   6.913  -0.633  0.00  0.00    +0.040 A 
ATOM     10  C   LIG    1       -3.814   8.199  -0.963  0.00  0.00    +0.000 A 
ATOM     11  C   LIG    1       -3.582   9.242  -0.079  0.00  0.00    +0.030 A 
ATOM     12  C   LIG    1       -2.981   9.009   1.139  0.00  0.00    +0.000 A 
ATOM     13  C   LIG    1       -2.600   7.718   1.490  0.00  0.00    +0.090 A 
ATOM     14  N   LIG    1       -1.994   7.187   2.611  0.00  0.00    -0.570 N 
ATOM     15  H   LIG    1       -1.722   7.701   3.387  0.00  0.00    +0.420 HD
ENDBRANCH   3   7
ENDBRANCH   1   3
BRANCH   1  16
ATOM     16  O   LIG    1       -1.207   2.134  -0.019  0.00  0.00    -0.320 OA
BRANCH  16  17
ATOM     17  C   LIG    1       -0.043   1.456  -0.022  0.00  0.00    +0.490 C 
ATOM     18  O   LIG    1        1.011   2.058   0.013  0.00  0.00    -0.480 OA
BRANCH  17  19
ATOM     19  C   LIG    1       -0.049  -0.021  -0.075  0.00  0.00    -0.040 A 
ATOM     20  C   LIG    1       -1.259  -0.716  -0.110  0.00  0.00    +0.080 A 
ATOM     21  C   LIG    1       -1.257  -2.095  -0.165  0.00  0.00    +0.060 A 
ATOM     22  C   LIG    1       -0.060  -2.788  -0.173  0.00  0.00    +0.040 A 
ATOM     23  C   LIG    1        1.143  -2.105  -0.134  0.00  0.00    +0.130 A 
ATOM     24  C   LIG    1        1.156  -0.727  -0.085  0.00  0.00    -0.610 A 
BRANCH  24  25
ATOM     25  S   LIG    1        2.688   0.141  -0.035  0.00  0.00    +2.510 S 
ATOM     26  O   LIG    1        3.672  -0.885  -0.032  0.00  0.00    -0.950 OA
ATOM     27  O   LIG    1        2.553   1.028   1.067  0.00  0.00    -0.910 OA
ATOM     28  C   LIG    1        2.736   1.065  -1.595  0.00  0.00    -0.250 C 
ENDBRANCH  24  25
ENDBRANCH  17  19
ENDBRANCH  16  17
ENDBRANCH   1  16
TORSDOF 6
