REMARK  Name = ZINCqH0000037hpE.0
REMARK                            x       y       z     vdW  Elec       q    Type
REMARK                         _______ _______ _______ _____ _____    ______ ____
ROOT
ATOM      1  C   LIG    1       -0.013   1.086   0.008  0.00  0.00    +0.080 C 
ATOM      2  C   LIG    1       -0.729   1.579   1.267  0.00  0.00    +0.270 C 
ENDROOT
BRANCH   2   3
ATOM      3  C   LIG    1       -0.749   3.086   1.275  0.00  0.00    +0.170 A 
ATOM      4  N   LIG    1       -0.008   3.873   2.017  0.00  0.00    -0.470 NA
ATOM      5  C   LIG    1       -0.368   5.126   1.688  0.00  0.00    +0.180 A 
ATOM      6  N   LIG    1       -1.293   5.039   0.779  0.00  0.00    -0.380 NA
ATOM      7  O   LIG    1       -1.522   3.876   0.523  0.00  0.00    +0.100 OA
BRANCH   5   8
ATOM      8  C   LIG    1        0.197   6.398   2.265  0.00  0.00    +0.220 C 
BRANCH   8   9
ATOM      9  C   LIG    1        1.380   6.841   1.444  0.00  0.00    -0.090 A 
ATOM     10  C   LIG    1        2.651   6.406   1.771  0.00  0.00    +0.030 A 
ATOM     11  C   LIG    1        3.736   6.809   1.015  0.00  0.00    +0.000 A 
ATOM     12  C   LIG    1        3.551   7.653  -0.064  0.00  0.00    +0.000 A 
ATOM     13  C   LIG    1        2.281   8.092  -0.388  0.00  0.00    +0.000 A 
ATOM     14  C   LIG    1        1.196   7.686   0.366  0.00  0.00    +0.010 A 
ENDBRANCH   8   9
ENDBRANCH   5   8
ENDBRANCH   2   3
BRANCH   2  15
ATOM     15  N   LIG    1       -2.107   1.071   1.277  0.00  0.00    -0.670 NA
ATOM     16  H   LIG    1       -2.721   1.700   1.772  0.00  0.00    +0.350 HD
BRANCH  15  17
ATOM     17  C   LIG    1       -2.165  -0.281   1.850  0.00  0.00    +0.150 C 
ATOM     18  C   LIG    1       -3.337  -1.024   1.227  0.00  0.00    +0.060 C 
ATOM     19  C   LIG    1       -3.317  -2.501   1.623  0.00  0.00    +0.080 C 
ATOM     20  C   LIG    1       -3.974  -2.649   2.982  0.00  0.00    -0.110 A 
ATOM     21  C   LIG    1       -5.179  -3.308   3.100  0.00  0.00    +0.030 A 
ATOM     22  C   LIG    1       -5.755  -3.465   4.349  0.00  0.00    +0.010 A 
ATOM     23  C   LIG    1       -5.123  -2.961   5.470  0.00  0.00    +0.020 A 
ATOM     24  C   LIG    1       -3.920  -2.292   5.350  0.00  0.00    +0.000 A 
ATOM     25  C   LIG    1       -3.345  -2.129   4.096  0.00  0.00    +0.090 A 
ATOM     26  O   LIG    1       -2.170  -1.454   3.974  0.00  0.00    -0.320 OA
ATOM     27  C   LIG    1       -2.257  -0.165   3.357  0.00  0.00    +0.190 C 
ENDBRANCH  15  17
ENDBRANCH   2  15
TORSDOF 5
