REMARK  Name = ZINCb80000001O5S.0
REMARK                            x       y       z     vdW  Elec       q    Type
REMARK                         _______ _______ _______ _____ _____    ______ ____
ROOT
ATOM      1  C   LIG    1        0.002  -0.004   0.002  0.00  0.00    +0.220 C 
ATOM      2  C   LIG    1       -0.092  -0.526   1.439  0.00  0.00    +0.010 C 
ATOM      3  C   LIG    1        0.009  -2.053   1.427  0.00  0.00    +0.230 C 
ATOM      4  O   LIG    1        1.235  -2.443   0.805  0.00  0.00    -0.370 OA
ATOM      5  C   LIG    1        1.358  -2.024  -0.556  0.00  0.00    +0.220 C 
ATOM      6  C   LIG    1        1.311  -0.495  -0.623  0.00  0.00    +0.150 C 
ATOM      7  F   LIG    1        1.375  -0.084  -1.959  0.00  0.00    -0.200 F 
ENDROOT
BRANCH   1  10
ATOM      8  C   LIG    1       -1.214   3.626   0.028  0.00  0.00    +0.110 C 
ATOM      9  C   LIG    1       -1.194   2.119   0.019  0.00  0.00    +0.510 C 
ATOM     10  N   LIG    1       -0.018   1.461   0.010  0.00  0.00    -0.730 N 
ATOM     11  H   LIG    1        0.816   1.957   0.005  0.00  0.00    +0.400 HD
ATOM     12  O   LIG    1       -2.236   1.498   0.021  0.00  0.00    -0.540 OA
ENDBRANCH   1  10
TORSDOF 1
