REMARK  Name = ZINCqH00000076Xn.0
REMARK                            x       y       z     vdW  Elec       q    Type
REMARK                         _______ _______ _______ _____ _____    ______ ____
ROOT
ATOM      1  N   LIG    1        2.284   5.316   6.492  0.00  0.00    -0.690 N 
ATOM      2  H   LIG    1        2.578   4.603   7.080  0.00  0.00    +0.400 HD
ATOM      3  C   LIG    1        1.598   5.024   5.369  0.00  0.00    +0.570 C 
ATOM      4  O   LIG    1        1.147   5.920   4.682  0.00  0.00    -0.510 OA
ENDROOT
BRANCH   3   5
ATOM      5  C   LIG    1        1.393   3.615   4.974  0.00  0.00    -0.210 A 
ATOM      6  C   LIG    1        1.908   2.576   5.757  0.00  0.00    +0.370 A 
ATOM      7  N   LIG    1        1.737   1.315   5.425  0.00  0.00    -0.460 NA
ATOM      8  C   LIG    1        1.073   0.965   4.335  0.00  0.00    +0.230 A 
ATOM      9  O   LIG    1        0.746  -0.202   3.754  0.00  0.00    +0.090 OA
ATOM     10  N   LIG    1        0.106  -0.064   2.739  0.00  0.00    -0.310 NA
ATOM     11  C   LIG    1       -0.113   1.180   2.429  0.00  0.00    +0.080 A 
ATOM     12  C   LIG    1        0.525   1.960   3.494  0.00  0.00    -0.220 A 
ATOM     13  C   LIG    1        0.682   3.300   3.810  0.00  0.00    +0.230 A 
BRANCH  11  14
ATOM     14  C   LIG    1       -0.868   1.706   1.236  0.00  0.00    +0.080 C 
ATOM     15  C   LIG    1       -2.304   1.180   1.266  0.00  0.00    +0.040 C 
ATOM     16  C   LIG    1       -0.180   1.239  -0.049  0.00  0.00    +0.040 C 
ENDBRANCH  11  14
ENDBRANCH   3   5
BRANCH   1  17
ATOM     17  C   LIG    1        2.587   6.710   6.823  0.00  0.00    +0.140 C 
ATOM     18  C   LIG    1        2.312   7.172   8.255  0.00  0.00    +0.060 C 
ATOM     19  C   LIG    1        1.407   7.640   7.114  0.00  0.00    +0.060 C 
BRANCH  17  23
ATOM     20  C   LIG    1        5.973   8.386   4.825  0.00  0.00    +0.130 A 
ATOM     21  C   LIG    1        5.291   9.128   5.778  0.00  0.00    -0.020 A 
ATOM     22  C   LIG    1        4.197   8.584   6.423  0.00  0.00    +0.060 A 
ATOM     23  C   LIG    1        3.781   7.301   6.119  0.00  0.00    -0.090 A 
ATOM     24  C   LIG    1        4.463   6.557   5.173  0.00  0.00    +0.060 A 
ATOM     25  C   LIG    1        5.554   7.098   4.522  0.00  0.00    -0.070 A 
BRANCH  20  27
ATOM     26  C   LIG    1        7.703   8.097   3.221  0.00  0.00    +0.250 C 
ATOM     27  O   LIG    1        7.050   8.918   4.190  0.00  0.00    -0.320 OA
ENDBRANCH  20  27
ENDBRANCH  17  23
ENDBRANCH   1  17
TORSDOF 5
