REMARK  Name = ZINCrH000004mtSo.0
REMARK                            x       y       z     vdW  Elec       q    Type
REMARK                         _______ _______ _______ _____ _____    ______ ____
ROOT
ATOM      1  N   LIG    1       -1.156  -0.694   0.009  0.00  0.00    -0.520 N 
ATOM      2  H   LIG    1       -2.002  -0.220   0.020  0.00  0.00    +0.430 HD
ATOM      3  C   LIG    1        0.002  -0.004   0.002  0.00  0.00    +0.600 C 
ATOM      4  O   LIG    1        1.064  -0.598  -0.011  0.00  0.00    -0.520 OA
ENDROOT
BRANCH   3   5
ATOM      5  C   LIG    1       -0.018   1.460   0.010  0.00  0.00    -0.260 A 
ATOM      6  C   LIG    1        1.088   2.263   0.004  0.00  0.00    +0.130 A 
ATOM      7  C   LIG    1        0.822   3.605   0.013  0.00  0.00    +0.020 A 
ATOM      8  C   LIG    1       -0.505   3.924   0.026  0.00  0.00    -0.110 A 
ATOM      9  S   LIG    1       -1.469   2.454   0.022  0.00  0.00    +0.180 S 
BRANCH   8  10
ATOM     10  C   LIG    1       -1.049   5.298   0.038  0.00  0.00    -0.040 A 
ATOM     11  C   LIG    1       -0.184   6.394   0.041  0.00  0.00    +0.080 A 
ATOM     12  C   LIG    1       -0.697   7.674   0.047  0.00  0.00    -0.010 A 
ATOM     13  C   LIG    1       -2.069   7.873   0.060  0.00  0.00    +0.110 A 
ATOM     14  C   LIG    1       -2.932   6.789   0.063  0.00  0.00    -0.010 A 
ATOM     15  F   LIG    1       -2.566   9.129   0.071  0.00  0.00    -0.130 F 
ATOM     16  C   LIG    1       -2.429   5.505   0.052  0.00  0.00    +0.050 A 
ENDBRANCH   8  10
ENDBRANCH   3   5
BRANCH   1  18
ATOM     17  C   LIG    1       -2.295  -2.784   0.009  0.00  0.00    +0.570 C 
ATOM     18  N   LIG    1       -1.137  -2.095   0.002  0.00  0.00    -0.520 N 
ATOM     19  H   LIG    1       -0.290  -2.568  -0.009  0.00  0.00    +0.430 HD
ATOM     20  O   LIG    1       -3.356  -2.191   0.022  0.00  0.00    -0.530 OA
BRANCH  17  24
ATOM     21  C   LIG    1       -2.240  -7.032  -0.015  0.00  0.00    +0.130 A 
ATOM     22  C   LIG    1       -3.452  -6.354   0.000  0.00  0.00    -0.040 A 
ATOM     23  C   LIG    1       -3.474  -4.977   0.009  0.00  0.00    +0.130 A 
ATOM     24  C   LIG    1       -2.275  -4.260   0.001  0.00  0.00    -0.140 A 
ATOM     25  C   LIG    1       -1.056  -4.944  -0.020  0.00  0.00    +0.070 A 
ATOM     26  C   LIG    1       -1.042  -6.323  -0.022  0.00  0.00    +0.070 A 
ATOM     27  F   LIG    1        0.135  -6.986  -0.037  0.00  0.00    -0.120 F 
BRANCH  21  29
ATOM     28  C   LIG    1       -3.488  -9.054  -0.014  0.00  0.00    +0.250 C 
ATOM     29  O   LIG    1       -2.223  -8.389  -0.022  0.00  0.00    -0.300 OA
ENDBRANCH  21  29
ENDBRANCH  17  24
ENDBRANCH   1  18
TORSDOF 5
