REMARK  Name = ZINCrD000006fiyi.1
REMARK                            x       y       z     vdW  Elec       q    Type
REMARK                         _______ _______ _______ _____ _____    ______ ____
ROOT
ATOM      1  C   LIG    1        3.267   2.850  -1.843  0.00  0.00    +0.550 C 
ATOM      2  N   LIG    1        3.180   2.528  -0.537  0.00  0.00    -0.600 N 
ATOM      3  C   LIG    1        3.965   3.139   0.551  0.00  0.00    +0.260 C 
ATOM      4  C   LIG    1        3.982   2.071   1.674  0.00  0.00    +0.040 C 
ATOM      5  C   LIG    1        2.555   1.473   1.557  0.00  0.00    +0.060 C 
ATOM      6  C   LIG    1        2.289   1.510   0.037  0.00  0.00    +0.320 C 
ATOM      7  O   LIG    1        2.644   2.214  -2.667  0.00  0.00    -0.530 OA
ENDROOT
BRANCH   6   8
ATOM      8  C   LIG    1        0.852   1.883  -0.222  0.00  0.00    +0.290 A 
ATOM      9  N   LIG    1        0.420   3.093  -0.424  0.00  0.00    -0.470 NA
ATOM     10  C   LIG    1       -0.923   3.072  -0.625  0.00  0.00    +0.050 A 
ATOM     11  C   LIG    1       -1.874   4.062  -0.881  0.00  0.00    +0.090 A 
ATOM     12  C   LIG    1       -3.187   3.720  -1.042  0.00  0.00    +0.020 A 
ATOM     13  C   LIG    1       -3.589   2.394  -0.953  0.00  0.00    -0.020 A 
ATOM     14  C   LIG    1       -2.667   1.400  -0.700  0.00  0.00    +0.030 A 
ATOM     15 CL   LIG    1       -5.263   1.985  -1.161  0.00  0.00    -0.060 Cl
ATOM     16  C   LIG    1       -1.328   1.729  -0.540  0.00  0.00    +0.060 A 
ATOM     17  N   LIG    1       -0.184   1.002  -0.279  0.00  0.00    -0.590 N 
ATOM     18  H   LIG    1       -0.128   0.040  -0.163  0.00  0.00    +0.420 HD
ENDBRANCH   6   8
BRANCH   1  24
ATOM     19  C   LIG    1        7.479   5.130  -2.134  0.00  0.00    +0.550 C 
ATOM     20  N   LIG    1        6.427   4.647  -2.824  0.00  0.00    -0.610 N 
ATOM     21  C   LIG    1        6.080   5.196  -4.141  0.00  0.00    +0.260 C 
ATOM     22  C   LIG    1        4.607   5.617  -4.128  0.00  0.00    +0.010 C 
ATOM     23  C   LIG    1        3.745   4.429  -3.696  0.00  0.00    +0.050 C 
ATOM     24  C   LIG    1        4.138   3.999  -2.280  0.00  0.00    -0.010 C 
ATOM     25  C   LIG    1        5.606   3.560  -2.272  0.00  0.00    +0.290 C 
ATOM     26  O   LIG    1        7.812   4.607  -1.087  0.00  0.00    -0.540 OA
BRANCH  19  28
ATOM     27  C   LIG    1        9.194   6.833  -1.915  0.00  0.00    +0.140 C 
ATOM     28  C   LIG    1        8.225   6.289  -2.646  0.00  0.00    -0.090 C 
ENDBRANCH  19  28
ENDBRANCH   1  24
TORSDOF 3
