REMARK  Name = ZINCrD000006fiyi.0
REMARK                            x       y       z     vdW  Elec       q    Type
REMARK                         _______ _______ _______ _____ _____    ______ ____
ROOT
ATOM      1  C   LIG    1       -0.755   1.064  -2.378  0.00  0.00    +0.550 C 
ATOM      2  N   LIG    1       -0.590   1.756  -1.233  0.00  0.00    -0.600 N 
ATOM      3  C   LIG    1        0.357   1.418  -0.155  0.00  0.00    +0.260 C 
ATOM      4  C   LIG    1       -0.237   2.072   1.117  0.00  0.00    +0.040 C 
ATOM      5  C   LIG    1       -0.821   3.392   0.544  0.00  0.00    +0.060 C 
ATOM      6  C   LIG    1       -1.323   2.972  -0.853  0.00  0.00    +0.320 C 
ATOM      7  O   LIG    1       -1.633   1.377  -3.154  0.00  0.00    -0.530 OA
ENDROOT
BRANCH   6   8
ATOM      8  C   LIG    1       -1.050   4.068  -1.850  0.00  0.00    +0.290 A 
ATOM      9  N   LIG    1        0.016   4.153  -2.591  0.00  0.00    -0.470 NA
ATOM     10  C   LIG    1       -0.061   5.257  -3.377  0.00  0.00    +0.060 A 
ATOM     11  C   LIG    1        0.786   5.815  -4.339  0.00  0.00    +0.090 A 
ATOM     12  C   LIG    1        0.420   6.979  -4.978  0.00  0.00    -0.040 A 
ATOM     13  C   LIG    1       -0.782   7.603  -4.673  0.00  0.00    +0.050 A 
ATOM     14  C   LIG    1       -1.628   7.065  -3.727  0.00  0.00    +0.030 A 
ATOM     15 CL   LIG    1        1.472   7.673  -6.173  0.00  0.00    -0.060 Cl
ATOM     16  C   LIG    1       -1.276   5.893  -3.073  0.00  0.00    +0.050 A 
ATOM     17  N   LIG    1       -1.880   5.116  -2.103  0.00  0.00    -0.590 N 
ATOM     18  H   LIG    1       -2.736   5.286  -1.681  0.00  0.00    +0.420 HD
ENDBRANCH   6   8
BRANCH   1  24
ATOM     19  C   LIG    1        1.211  -3.197  -1.378  0.00  0.00    +0.550 C 
ATOM     20  N   LIG    1        0.529  -2.474  -2.288  0.00  0.00    -0.610 N 
ATOM     21  C   LIG    1        0.578  -2.827  -3.714  0.00  0.00    +0.260 C 
ATOM     22  C   LIG    1        0.998  -1.589  -4.513  0.00  0.00    +0.010 C 
ATOM     23  C   LIG    1        0.054  -0.430  -4.185  0.00  0.00    +0.050 C 
ATOM     24  C   LIG    1        0.150  -0.098  -2.694  0.00  0.00    -0.010 C 
ATOM     25  C   LIG    1       -0.278  -1.318  -1.873  0.00  0.00    +0.290 C 
ATOM     26  O   LIG    1        1.090  -2.952  -0.193  0.00  0.00    -0.540 OA
BRANCH  19  28
ATOM     27  C   LIG    1        2.855  -4.925  -0.931  0.00  0.00    +0.140 C 
ATOM     28  C   LIG    1        2.101  -4.283  -1.818  0.00  0.00    -0.090 C 
ENDBRANCH  19  28
ENDBRANCH   1  24
TORSDOF 3
