REMARK  Name = ZINCrg00000SjSv2.0
REMARK                            x       y       z     vdW  Elec       q    Type
REMARK                         _______ _______ _______ _____ _____    ______ ____
ROOT
ATOM      1  N   LIG    1       -0.400   2.955   1.539  0.00  0.00    -0.510 NA
ATOM      2  C   LIG    1       -0.669   1.560   1.287  0.00  0.00    +0.180 C 
ATOM      3  C   LIG    1        0.090   1.134   0.014  0.00  0.00    +0.040 C 
ATOM      4  C   LIG    1       -0.598   1.567  -1.200  0.00  0.00    +0.180 C 
ATOM      5  N   LIG    1       -0.729   3.041  -1.274  0.00  0.00    -0.490 N 
ATOM      6  C   LIG    1       -1.837   3.478  -0.459  0.00  0.00    +0.180 C 
ATOM      7  C   LIG    1       -1.402   3.881   0.961  0.00  0.00    +0.200 C 
ENDROOT
BRANCH   5   8
ATOM      8  C   LIG    1       -0.882   3.465  -2.596  0.00  0.00    +0.210 A 
ATOM      9  C   LIG    1       -2.005   3.090  -3.321  0.00  0.00    -0.020 A 
ATOM     10  C   LIG    1       -2.153   3.510  -4.628  0.00  0.00    +0.190 A 
ATOM     11  C   LIG    1       -1.185   4.304  -5.215  0.00  0.00    -0.670 A 
ATOM     12  C   LIG    1       -0.065   4.679  -4.495  0.00  0.00    +0.210 A 
ATOM     13  C   LIG    1        0.087   4.266  -3.186  0.00  0.00    -0.050 A 
BRANCH  11  14
ATOM     14  S   LIG    1       -1.377   4.838  -6.883  0.00  0.00    +2.500 S 
ATOM     15  O   LIG    1       -2.203   3.845  -7.476  0.00  0.00    -0.930 OA
ATOM     16  O   LIG    1       -0.048   5.052  -7.338  0.00  0.00    -0.920 OA
ATOM     17  C   LIG    1       -2.267   6.413  -6.754  0.00  0.00    -0.240 C 
ENDBRANCH  11  14
BRANCH  13  18
ATOM     18  N   LIG    1        1.283   4.673  -2.415  0.00  0.00    +0.020 N 
ATOM     19  O   LIG    1        1.464   4.231  -1.295  0.00  0.00    -0.070 OA
ATOM     20  O   LIG    1        2.085   5.451  -2.900  0.00  0.00    -0.200 OA
ENDBRANCH  13  18
ENDBRANCH   5   8
BRANCH   1  21
ATOM     21  C   LIG    1       -0.218   3.206   2.975  0.00  0.00    +0.260 C 
BRANCH  21  24
ATOM     22  N   LIG    1       -1.556   3.015   5.047  0.00  0.00    -0.730 N 
ATOM     23  H   LIG    1       -0.787   3.345   5.537  0.00  0.00    +0.400 HD
ATOM     24  C   LIG    1       -1.489   2.864   3.710  0.00  0.00    +0.480 C 
ATOM     25  O   LIG    1       -2.451   2.451   3.097  0.00  0.00    -0.540 OA
BRANCH  22  27
ATOM     26  C   LIG    1       -2.463   2.337   7.215  0.00  0.00    +0.030 C 
ATOM     27  C   LIG    1       -2.792   2.683   5.761  0.00  0.00    +0.220 C 
ATOM     28  C   LIG    1       -3.741   3.882   5.724  0.00  0.00    +0.030 C 
ENDBRANCH  22  27
ENDBRANCH  21  24
ENDBRANCH   1  21
TORSDOF 6
