REMARK  Name = ZINCnE000001FOmS.0
REMARK                            x       y       z     vdW  Elec       q    Type
REMARK                         _______ _______ _______ _____ _____    ______ ____
ROOT
ATOM      1  C   LIG    1        2.917   3.865  -0.006  0.00  0.00    -0.050 A 
ATOM      2  C   LIG    1        3.366   2.541  -0.018  0.00  0.00    +0.040 A 
ATOM      3  C   LIG    1        2.479   1.503  -0.014  0.00  0.00    -0.100 A 
ATOM      4  C   LIG    1        1.111   1.755   0.001  0.00  0.00    +0.060 A 
ATOM      5  N   LIG    1       -0.011   0.966   0.007  0.00  0.00    -0.440 N 
ATOM      6  H   LIG    1        0.002  -0.004   0.002  0.00  0.00    +0.430 HD
ATOM      7  N   LIG    1       -1.081   1.675   0.016  0.00  0.00    -0.230 NA
ATOM      8  C   LIG    1       -0.815   2.966   0.026  0.00  0.00    +0.030 A 
ATOM      9  C   LIG    1        0.650   3.087   0.012  0.00  0.00    -0.120 A 
ATOM     10  C   LIG    1        2.983   0.083  -0.027  0.00  0.00    +0.080 C 
ATOM     11  C   LIG    1        1.556   4.140   0.009  0.00  0.00    +0.130 A 
ENDROOT
BRANCH   1  15
ATOM     12  N   LIG    1        5.493   6.355   0.587  0.00  0.00    -0.370 N 
ATOM     13  N   LIG    1        5.029   6.745  -0.675  0.00  0.00    -0.300 NA
ATOM     14  C   LIG    1        4.076   5.928  -1.038  0.00  0.00    +0.100 A 
ATOM     15  C   LIG    1        3.898   4.980  -0.011  0.00  0.00    -0.180 A 
ATOM     16  C   LIG    1        3.302   5.989  -2.329  0.00  0.00    +0.160 C 
ATOM     17  C   LIG    1        4.787   5.276   0.981  0.00  0.00    +0.090 A 
ATOM     18  C   LIG    1        4.951   4.531   2.280  0.00  0.00    +0.150 C 
BRANCH  12  19
ATOM     19  C   LIG    1        6.559   7.010   1.351  0.00  0.00    +0.320 C 
BRANCH  19  21
ATOM     20  C   LIG    1        7.067   8.781   3.038  0.00  0.00    +0.030 C 
ATOM     21  C   LIG    1        5.954   8.097   2.241  0.00  0.00    +0.000 C 
ENDBRANCH  19  21
ENDBRANCH  12  19
ENDBRANCH   1  15
BRANCH   8  22
ATOM     22  C   LIG    1       -1.790   4.066   0.041  0.00  0.00    +0.560 C 
ATOM     23  O   LIG    1       -2.989   3.821   0.051  0.00  0.00    -0.670 OA
ATOM     24  O   LIG    1       -1.402   5.227   0.044  0.00  0.00    -0.670 OA
ENDBRANCH   8  22
TORSDOF 4
