REMARK  Name = ZINCtj00001mYyip.0
REMARK                            x       y       z     vdW  Elec       q    Type
REMARK                         _______ _______ _______ _____ _____    ______ ____
ROOT
ATOM      1  C   LIG    1        9.279  -3.216   2.913  0.00  0.00    +0.080 C 
ENDROOT
BRANCH   1   8
ATOM      2  C   LIG    1       10.047  -6.659   4.430  0.00  0.00    +0.290 C 
ATOM      3  C   LIG    1       10.165  -7.887   3.519  0.00  0.00    +0.250 C 
ATOM      4  O   LIG    1       11.311  -7.740   2.678  0.00  0.00    -0.370 OA
ATOM      5  C   LIG    1       11.247  -6.620   1.791  0.00  0.00    +0.220 C 
ATOM      6  C   LIG    1       11.181  -5.331   2.610  0.00  0.00    +0.260 C 
ATOM      7  N   LIG    1       10.091  -5.452   3.590  0.00  0.00    -0.610 N 
ATOM      8  C   LIG    1        9.156  -4.488   3.711  0.00  0.00    +0.510 C 
ATOM      9  O   LIG    1        8.217  -4.645   4.462  0.00  0.00    -0.510 OA
BRANCH   2  15
ATOM     10  C   LIG    1        9.648  -6.333   7.495  0.00  0.00    +0.360 C 
ATOM     11  N   LIG    1        8.589  -6.564   6.510  0.00  0.00    -0.370 N 
ATOM     12  N   LIG    1        7.213  -6.676   6.764  0.00  0.00    -0.310 NA
ATOM     13  C   LIG    1        6.631  -6.883   5.612  0.00  0.00    +0.420 A 
ATOM     14  N   LIG    1        7.559  -6.902   4.656  0.00  0.00    -0.520 NA
ATOM     15  C   LIG    1        8.741  -6.707   5.182  0.00  0.00    +0.300 A 
ENDBRANCH   2  15
ENDBRANCH   1   8
BRANCH   1  16
ATOM     16  C   LIG    1        8.098  -2.297   3.233  0.00  0.00    +0.050 C 
BRANCH  16  17
ATOM     17  C   LIG    1        8.222  -1.005   2.423  0.00  0.00    +0.250 C 
BRANCH  17  18
ATOM     18  N   LIG    1        7.088  -0.123   2.731  0.00  0.00    -0.390 N 
ATOM     19  C   LIG    1        7.142   1.063   1.867  0.00  0.00    +0.280 C 
ATOM     20  C   LIG    1        5.972   1.991   2.200  0.00  0.00    +0.220 C 
ATOM     21  N   LIG    1        4.707   1.272   1.994  0.00  0.00    -0.490 N 
ATOM     22  C   LIG    1        4.648   0.068   2.835  0.00  0.00    +0.230 C 
ATOM     23  C   LIG    1        5.830  -0.844   2.497  0.00  0.00    +0.270 C 
ATOM     24  H   LIG    1        7.137   0.162   3.697  0.00  0.00    +0.420 HD
BRANCH  21  25
ATOM     25  C   LIG    1        3.612   2.105   2.237  0.00  0.00    +0.080 A 
ATOM     26  C   LIG    1        2.320   1.615   2.098  0.00  0.00    +0.000 A 
ATOM     27  C   LIG    1        1.240   2.441   2.339  0.00  0.00    +0.040 A 
ATOM     28  C   LIG    1        1.444   3.755   2.719  0.00  0.00    +0.000 A 
ATOM     29  C   LIG    1        2.729   4.246   2.858  0.00  0.00    +0.040 A 
ATOM     30  C   LIG    1        3.814   3.425   2.619  0.00  0.00    -0.030 A 
ENDBRANCH  21  25
ENDBRANCH  17  18
ENDBRANCH  16  17
ENDBRANCH   1  16
TORSDOF 6
