REMARK  Name = ZINCvU0000000AYV.0
REMARK                            x       y       z     vdW  Elec       q    Type
REMARK                         _______ _______ _______ _____ _____    ______ ____
ROOT
ATOM      1  O   LIG    1        7.283   2.026   0.031  0.00  0.00    -0.520 OA
ATOM      2  C   LIG    1        6.376   1.254   0.257  0.00  0.00    +0.520 C 
ATOM      3  C   LIG    1        5.333   1.113  -0.804  0.00  0.00    +0.330 C 
ATOM      4  N   LIG    1        4.843  -0.253  -0.848  0.00  0.00    -0.590 N 
ATOM      5  C   LIG    1        4.029  -0.836   0.186  0.00  0.00    +0.350 C 
ATOM      6  C   LIG    1        4.772  -1.204   1.432  0.00  0.00    -0.120 A 
ATOM      7  C   LIG    1        4.321  -2.343   2.095  0.00  0.00    +0.100 A 
ATOM      8  C   LIG    1        4.919  -2.782   3.256  0.00  0.00    -0.110 A 
ATOM      9  C   LIG    1        5.992  -2.078   3.775  0.00  0.00    +0.090 A 
ATOM     10  C   LIG    1        6.445  -0.955   3.127  0.00  0.00    -0.020 A 
ATOM     11 BR   LIG    1        4.282  -4.332   4.132  0.00  0.00    -0.040 Br
ATOM     12  C   LIG    1        5.844  -0.499   1.941  0.00  0.00    +0.200 A 
ATOM     13  C   LIG    1        5.166  -1.014  -1.912  0.00  0.00    +0.600 C 
ATOM     14  O   LIG    1        4.691  -2.127  -2.030  0.00  0.00    -0.520 OA
ATOM     15  N   LIG    1        6.408   0.632   1.400  0.00  0.00    -0.650 N 
ATOM     16  H   LIG    1        6.982   1.085   2.038  0.00  0.00    +0.400 HD
ENDROOT
BRANCH   5  17
ATOM     17  C   LIG    1        2.945   0.144   0.549  0.00  0.00    -0.100 A 
ATOM     18  C   LIG    1        3.272   1.348   1.144  0.00  0.00    +0.000 A 
ATOM     19  C   LIG    1        2.277   2.248   1.478  0.00  0.00    +0.000 A 
ATOM     20  C   LIG    1        0.954   1.944   1.216  0.00  0.00    +0.010 A 
ATOM     21  C   LIG    1        0.627   0.740   0.622  0.00  0.00    +0.020 A 
ATOM     22  C   LIG    1        1.622  -0.160   0.289  0.00  0.00    +0.030 A 
ENDBRANCH   5  17
BRANCH  13  23
ATOM     23  C   LIG    1        6.096  -0.498  -2.931  0.00  0.00    -0.240 A 
ATOM     24  C   LIG    1        5.951  -0.573  -4.289  0.00  0.00    +0.120 A 
ATOM     25  N   LIG    1        7.017   0.017  -4.863  0.00  0.00    -0.550 N 
ATOM     26  H   LIG    1        7.157   0.099  -5.819  0.00  0.00    +0.420 HD
ATOM     27  C   LIG    1        7.871   0.484  -3.907  0.00  0.00    +0.170 A 
ATOM     28  C   LIG    1        7.362   0.204  -2.694  0.00  0.00    -0.030 A 
BRANCH  24  29
ATOM     29  C   LIG    1        4.795  -1.207  -5.018  0.00  0.00    +0.070 C 
ATOM     30  C   LIG    1        5.310  -2.310  -5.966  0.00  0.00    +0.020 C 
ATOM     31  C   LIG    1        4.398  -2.196  -7.213  0.00  0.00    +0.010 C 
ATOM     32  C   LIG    1        4.203  -0.666  -7.355  0.00  0.00    +0.000 C 
ATOM     33  C   LIG    1        4.091  -0.162  -5.901  0.00  0.00    +0.010 C 
ENDBRANCH  24  29
ENDBRANCH  13  23
TORSDOF 3
