REMARK  Name = ZINCrD000000fO5J.0
REMARK                            x       y       z     vdW  Elec       q    Type
REMARK                         _______ _______ _______ _____ _____    ______ ____
ROOT
ATOM      1  C   LIG    1        6.830  -0.730  -0.674  0.00  0.00    -0.020 C 
ATOM      2  C   LIG    1        6.234  -1.123  -2.027  0.00  0.00    +0.080 C 
ENDROOT
BRANCH   1   3
ATOM      3  C   LIG    1        8.333  -0.810  -0.744  0.00  0.00    +0.440 C 
ATOM      4  O   LIG    1        8.983   0.185  -0.992  0.00  0.00    -0.430 OA
BRANCH   3   9
ATOM      5  C   LIG    1       10.554  -3.628  -0.277  0.00  0.00    -0.260 A 
ATOM      6  C   LIG    1        9.304  -4.199  -0.084  0.00  0.00    +0.120 A 
ATOM      7  N   LIG    1        8.372  -3.247  -0.231  0.00  0.00    -0.520 N 
ATOM      8  H   LIG    1        7.415  -3.382  -0.147  0.00  0.00    +0.420 HD
ATOM      9  C   LIG    1        8.987  -2.046  -0.520  0.00  0.00    -0.100 A 
ATOM     10  C   LIG    1        9.039  -5.647   0.238  0.00  0.00    +0.160 C 
ATOM     11  C   LIG    1       10.347  -2.259  -0.560  0.00  0.00    -0.000 A 
ATOM     12  C   LIG    1       11.410  -1.230  -0.846  0.00  0.00    +0.140 C 
BRANCH   5  14
ATOM     13  C   LIG    1       12.537  -4.491   1.122  0.00  0.00    +0.080 C 
ATOM     14  C   LIG    1       11.847  -4.318  -0.206  0.00  0.00    +0.430 C 
ATOM     15  O   LIG    1       12.361  -4.748  -1.218  0.00  0.00    -0.450 OA
ENDBRANCH   5  14
ENDBRANCH   3   9
ENDBRANCH   1   3
BRANCH   1  16
ATOM     16  S   LIG    1        6.334   0.962  -0.265  0.00  0.00    +0.070 S 
BRANCH  16  17
ATOM     17  C   LIG    1        4.594   0.740  -0.101  0.00  0.00    +0.150 A 
ATOM     18  N   LIG    1        3.933  -0.387  -0.255  0.00  0.00    -0.290 NA
ATOM     19  N   LIG    1        2.677  -0.192  -0.063  0.00  0.00    -0.250 NA
ATOM     20  C   LIG    1        2.459   1.071   0.224  0.00  0.00    +0.220 A 
ATOM     21  N   LIG    1        3.680   1.707   0.203  0.00  0.00    -0.450 N 
ATOM     22  C   LIG    1        3.943   3.126   0.457  0.00  0.00    +0.350 C 
BRANCH  20  23
ATOM     23  C   LIG    1        1.150   1.693   0.510  0.00  0.00    +0.030 A 
ATOM     24  C   LIG    1        1.068   2.951   1.119  0.00  0.00    -0.030 A 
ATOM     25  C   LIG    1       -0.175   3.492   1.372  0.00  0.00    +0.270 A 
ATOM     26  N   LIG    1       -1.276   2.846   1.038  0.00  0.00    -0.480 NA
ATOM     27  C   LIG    1       -1.244   1.659   0.463  0.00  0.00    +0.280 A 
ATOM     28  C   LIG    1       -0.044   1.041   0.178  0.00  0.00    +0.020 A 
ENDBRANCH  20  23
ENDBRANCH  16  17
ENDBRANCH   1  16
TORSDOF 6
