REMARK  Name = ZINCrH000004uiA9.0
REMARK                            x       y       z     vdW  Elec       q    Type
REMARK                         _______ _______ _______ _____ _____    ______ ____
ROOT
ATOM      1  O   LIG    1       -0.445   5.620   3.247  0.00  0.00    -0.520 OA
ATOM      2  C   LIG    1       -1.246   4.849   3.736  0.00  0.00    +0.560 C 
ATOM      3  N   LIG    1       -1.946   5.209   4.831  0.00  0.00    -0.730 N 
ATOM      4  H   LIG    1       -2.586   4.594   5.221  0.00  0.00    +0.400 HD
ENDROOT
BRANCH   2   5
ATOM      5  C   LIG    1       -1.454   3.516   3.132  0.00  0.00    -0.160 A 
ATOM      6  C   LIG    1       -2.374   2.628   3.692  0.00  0.00    +0.100 A 
ATOM      7  C   LIG    1       -2.563   1.385   3.122  0.00  0.00    +0.000 A 
ATOM      8  C   LIG    1       -1.844   1.019   1.999  0.00  0.00    +0.160 A 
ATOM      9  C   LIG    1       -0.930   1.894   1.440  0.00  0.00    -0.690 A 
ATOM     10  C   LIG    1       -0.727   3.137   2.002  0.00  0.00    +0.200 A 
BRANCH   9  11
ATOM     11  S   LIG    1       -0.017   1.417   0.010  0.00  0.00    +2.710 S 
ATOM     12  O   LIG    1        1.162   2.210   0.003  0.00  0.00    -0.940 OA
ATOM     13  O   LIG    1        0.002  -0.004   0.002  0.00  0.00    -0.950 OA
BRANCH  11  14
ATOM     14  N   LIG    1       -0.900   1.880  -1.312  0.00  0.00    -1.010 NA
ATOM     15  C   LIG    1       -1.907   1.059  -2.001  0.00  0.00    +0.270 C 
ATOM     16  C   LIG    1       -2.446   1.891  -3.183  0.00  0.00    +0.030 C 
ATOM     17  C   LIG    1       -1.304   2.909  -3.438  0.00  0.00    +0.040 C 
ATOM     18  C   LIG    1       -0.803   3.181  -1.998  0.00  0.00    +0.270 C 
ENDBRANCH  11  14
ENDBRANCH   9  11
ENDBRANCH   2   5
BRANCH   3  19
ATOM     19  C   LIG    1       -1.740   6.530   5.430  0.00  0.00    +0.310 C 
BRANCH  19  20
ATOM     20  C   LIG    1       -2.650   6.684   6.650  0.00  0.00    +0.060 C 
BRANCH  20  21
ATOM     21  S   LIG    1       -2.395   8.320   7.392  0.00  0.00    -0.070 S 
BRANCH  21  22
ATOM     22  C   LIG    1       -3.508   8.313   8.758  0.00  0.00    -0.070 A 
ATOM     23  C   LIG    1       -4.301   7.199   9.005  0.00  0.00    +0.000 A 
ATOM     24  C   LIG    1       -5.167   7.195  10.080  0.00  0.00    +0.070 A 
ATOM     25  C   LIG    1       -5.256   8.303  10.904  0.00  0.00    -0.100 A 
ATOM     26  C   LIG    1       -4.472   9.416  10.657  0.00  0.00    +0.070 A 
ATOM     27 BR   LIG    1       -6.450   8.296  12.370  0.00  0.00    -0.040 Br
ATOM     28  C   LIG    1       -3.599   9.425   9.587  0.00  0.00    +0.050 A 
ENDBRANCH  21  22
ENDBRANCH  20  21
ENDBRANCH  19  20
ENDBRANCH   3  19
TORSDOF 7
