REMARK  Name = ZINCpe00000xXK4k.0
REMARK                            x       y       z     vdW  Elec       q    Type
REMARK                         _______ _______ _______ _____ _____    ______ ____
ROOT
ATOM      1  C   LIG    1        8.532   3.915   2.660  0.00  0.00    +0.200 A 
ATOM      2  C   LIG    1        9.068   2.676   2.535  0.00  0.00    +0.170 A 
ATOM      3  N   LIG    1        8.374   2.012   1.595  0.00  0.00    -0.450 NA
ATOM      4  C   LIG    1        7.437   2.782   1.130  0.00  0.00    +0.200 A 
ATOM      5  C   LIG    1        6.422   2.457   0.057  0.00  0.00    +0.440 C 
ATOM      6  N   LIG    1        5.420   3.539   0.070  0.00  0.00    -0.600 N 
ATOM      7  C   LIG    1        5.898   4.926   0.177  0.00  0.00    +0.320 C 
ATOM      8  C   LIG    1        6.591   5.110   1.538  0.00  0.00    +0.280 C 
ATOM      9  C   LIG    1        4.104   3.265  -0.020  0.00  0.00    +0.630 C 
ATOM     10  O   LIG    1        3.295   4.174  -0.072  0.00  0.00    -0.530 OA
ATOM     11  N   LIG    1        7.495   3.983   1.775  0.00  0.00    -0.470 N 
ENDROOT
BRANCH   9  12
ATOM     12  C   LIG    1        3.645   1.874  -0.056  0.00  0.00    +0.070 A 
ATOM     13  N   LIG    1        4.410   0.796  -0.120  0.00  0.00    -0.190 NA
ATOM     14  N   LIG    1        3.680  -0.262  -0.135  0.00  0.00    -0.270 NA
ATOM     15  C   LIG    1        2.394   0.078  -0.082  0.00  0.00    +0.210 A 
ATOM     16  C   LIG    1        1.204  -0.667  -0.071  0.00  0.00    +0.090 A 
ATOM     17  C   LIG    1        0.009  -0.013  -0.009  0.00  0.00    +0.090 A 
ATOM     18  C   LIG    1       -0.012   1.388   0.043  0.00  0.00    -0.090 A 
ATOM     19  C   LIG    1        1.147   2.087   0.032  0.00  0.00    +0.250 A 
ATOM     20  C   LIG    1       -1.329   2.118   0.106  0.00  0.00    +0.130 C 
ATOM     21  N   LIG    1        2.340   1.444  -0.030  0.00  0.00    -0.350 N 
ENDBRANCH   9  12
BRANCH   1  24
ATOM     22  C   LIG    1       10.463   5.801   5.283  0.00  0.00    +0.110 C 
ATOM     23  C   LIG    1       10.004   4.711   4.349  0.00  0.00    +0.520 C 
ATOM     24  N   LIG    1        8.958   4.925   3.526  0.00  0.00    -0.650 N 
ATOM     25  H   LIG    1        8.501   5.781   3.535  0.00  0.00    +0.410 HD
ATOM     26  O   LIG    1       10.575   3.641   4.338  0.00  0.00    -0.510 OA
ENDBRANCH   1  24
TORSDOF 2
