REMARK  Name = ZINCb80000002vOm.0
REMARK                            x       y       z     vdW  Elec       q    Type
REMARK                         _______ _______ _______ _____ _____    ______ ____
ROOT
ATOM      1  C   LIG    1       -0.013   1.086   0.008  0.00  0.00    +0.360 C 
ATOM      2  N   LIG    1       -0.698   1.558   1.213  0.00  0.00    -0.400 N 
ATOM      3  N   LIG    1       -2.069   1.813   1.312  0.00  0.00    -0.500 N 
ATOM      4  H   LIG    1       -2.713   1.705   0.595  0.00  0.00    +0.440 HD
ATOM      5  C   LIG    1       -2.358   2.230   2.562  0.00  0.00    +0.560 A 
ATOM      6  C   LIG    1       -1.091   2.253   3.312  0.00  0.00    -0.280 A 
ATOM      7  C   LIG    1       -0.749   2.593   4.619  0.00  0.00    +0.180 A 
ATOM      8  C   LIG    1        0.582   2.492   4.993  0.00  0.00    -0.080 A 
ATOM      9  C   LIG    1        1.516   2.064   4.066  0.00  0.00    +0.360 A 
ATOM     10  N   LIG    1        1.169   1.748   2.834  0.00  0.00    -0.520 NA
ATOM     11  O   LIG    1       -3.456   2.534   2.988  0.00  0.00    -0.520 OA
ATOM     12  C   LIG    1       -0.088   1.825   2.423  0.00  0.00    +0.400 A 
ENDROOT
TORSDOF 0
