REMARK  Name = ZINCvU00000009ug.0
REMARK                            x       y       z     vdW  Elec       q    Type
REMARK                         _______ _______ _______ _____ _____    ______ ____
ROOT
ATOM      1  C   LIG    1        1.251   0.970  -2.577  0.00  0.00    +0.290 C 
ATOM      2  N   LIG    1       -0.088   1.538  -2.404  0.00  0.00    -0.600 N 
ATOM      3  C   LIG    1       -0.529   1.862  -1.172  0.00  0.00    +0.540 C 
ATOM      4  O   LIG    1       -1.637   2.333  -1.029  0.00  0.00    -0.510 OA
ENDROOT
BRANCH   2   5
ATOM      5  C   LIG    1       -0.948   1.754  -3.570  0.00  0.00    +0.340 C 
BRANCH   5   6
ATOM      6  C   LIG    1       -2.171   0.880  -3.461  0.00  0.00    -0.090 A 
ATOM      7  C   LIG    1       -2.044  -0.441  -3.073  0.00  0.00    +0.010 A 
ATOM      8  C   LIG    1       -3.166  -1.241  -2.968  0.00  0.00    +0.000 A 
ATOM      9  C   LIG    1       -4.414  -0.725  -3.262  0.00  0.00    +0.000 A 
ATOM     10  C   LIG    1       -4.540   0.595  -3.656  0.00  0.00    +0.000 A 
ATOM     11  C   LIG    1       -3.419   1.397  -3.756  0.00  0.00    +0.020 A 
ENDBRANCH   5   6
BRANCH   5  12
ATOM     12  C   LIG    1       -0.191   1.404  -4.825  0.00  0.00    -0.100 A 
ATOM     13  C   LIG    1        0.363   0.146  -4.970  0.00  0.00    +0.030 A 
ATOM     14  C   LIG    1        1.054  -0.176  -6.123  0.00  0.00    +0.010 A 
ATOM     15  C   LIG    1        1.200   0.763  -7.127  0.00  0.00    +0.010 A 
ATOM     16  C   LIG    1        0.650   2.023  -6.980  0.00  0.00    +0.010 A 
ATOM     17  C   LIG    1       -0.045   2.343  -5.829  0.00  0.00    +0.020 A 
ENDBRANCH   5  12
ENDBRANCH   2   5
BRANCH   3  18
ATOM     18  C   LIG    1        0.356   1.640   0.027  0.00  0.00    +0.100 C 
BRANCH  18  19
ATOM     19  S   LIG    1       -0.512   2.170   1.524  0.00  0.00    +0.160 S 
BRANCH  19  20
ATOM     20  C   LIG    1        0.716   1.808   2.734  0.00  0.00    +0.120 A 
ATOM     21  N   LIG    1        1.904   1.296   2.508  0.00  0.00    -0.290 NA
ATOM     22  N   LIG    1        2.535   1.169   3.621  0.00  0.00    -0.260 NA
ATOM     23  C   LIG    1        1.777   1.593   4.603  0.00  0.00    +0.210 A 
ATOM     24  O   LIG    1        0.611   2.012   4.061  0.00  0.00    -0.200 OA
BRANCH  23  25
ATOM     25  C   LIG    1        2.133   1.615   6.037  0.00  0.00    -0.010 A 
ATOM     26  C   LIG    1        1.225   2.104   6.977  0.00  0.00    +0.060 A 
ATOM     27  C   LIG    1        1.561   2.117   8.315  0.00  0.00    +0.050 A 
ATOM     28  C   LIG    1        2.800   1.657   8.725  0.00  0.00    +0.060 A 
ATOM     29  C   LIG    1        3.708   1.177   7.797  0.00  0.00    -0.040 A 
ATOM     30 CL   LIG    1        5.261   0.602   8.321  0.00  0.00    -0.050 Cl
ATOM     31  C   LIG    1        3.382   1.153   6.456  0.00  0.00    +0.090 A 
ENDBRANCH  23  25
ENDBRANCH  19  20
ENDBRANCH  18  19
ENDBRANCH   3  18
TORSDOF 7
