REMARK  Name = ZINCkj000005h7w2.1
REMARK                            x       y       z     vdW  Elec       q    Type
REMARK                         _______ _______ _______ _____ _____    ______ ____
ROOT
ATOM      1  C   LIG    1        1.098   3.404   0.268  0.00  0.00    -0.090 A 
ATOM      2  C   LIG    1        1.188   2.025   0.268  0.00  0.00    +0.060 A 
ATOM      3  C   LIG    1        0.041   1.257   0.215  0.00  0.00    -0.010 A 
ATOM      4  C   LIG    1       -1.202   1.871   0.158  0.00  0.00    +0.110 A 
ATOM      5  C   LIG    1       -1.290   3.256   0.164  0.00  0.00    -0.070 A 
ATOM      6  C   LIG    1       -0.140   4.019   0.216  0.00  0.00    +0.070 A 
ENDROOT
BRANCH   1   7
ATOM      7  C   LIG    1        2.351   4.239   0.325  0.00  0.00    +0.230 C 
BRANCH   7  12
ATOM      8  C   LIG    1        5.199   4.875  -4.511  0.00  0.00    +0.190 C 
ATOM      9  N   LIG    1        4.732   4.599  -3.146  0.00  0.00    -0.550 NA
ATOM     10  C   LIG    1        4.296   5.834  -2.479  0.00  0.00    +0.180 C 
ATOM     11  C   LIG    1        3.893   5.517  -1.037  0.00  0.00    +0.190 C 
ATOM     12  N   LIG    1        2.818   4.515  -1.040  0.00  0.00    -0.540 NA
ATOM     13  C   LIG    1        3.255   3.280  -1.707  0.00  0.00    +0.170 C 
ATOM     14  C   LIG    1        3.657   3.598  -3.149  0.00  0.00    +0.180 C 
ENDBRANCH   7  12
ENDBRANCH   1   7
BRANCH   4  15
ATOM     15  O   LIG    1       -2.332   1.118   0.101  0.00  0.00    -0.330 OA
BRANCH  15  16
ATOM     16  C   LIG    1       -3.576   1.818   0.043  0.00  0.00    +0.230 C 
BRANCH  16  17
ATOM     17  C   LIG    1       -4.726   0.810  -0.016  0.00  0.00    +0.290 C 
BRANCH  17  18
ATOM     18  N   LIG    1       -4.752   0.024   1.224  0.00  0.00    -0.390 N 
ATOM     19  C   LIG    1       -5.760  -1.039   1.109  0.00  0.00    +0.320 C 
ATOM     20  C   LIG    1       -5.091   0.900   2.353  0.00  0.00    +0.320 C 
ATOM     21  H   LIG    1       -3.844  -0.389   1.379  0.00  0.00    +0.430 HD
ENDBRANCH  17  18
ENDBRANCH  16  17
ENDBRANCH  15  16
ENDBRANCH   4  15
TORSDOF 6
