REMARK  Name = ZINCbw0000000Hk5.0
REMARK                            x       y       z     vdW  Elec       q    Type
REMARK                         _______ _______ _______ _____ _____    ______ ____
ROOT
ATOM      1  C   LIG    1       -3.776  -0.019   0.040  0.00  0.00    +0.170 C 
ATOM      2  C   LIG    1       -2.309   0.327   0.027  0.00  0.00    -0.160 A 
ATOM      3  C   LIG    1       -1.337  -0.564   0.012  0.00  0.00    +0.050 A 
ATOM      4  C   LIG    1        0.002  -0.004   0.002  0.00  0.00    -0.160 A 
ATOM      5  C   LIG    1        1.261  -0.640  -0.013  0.00  0.00    +0.270 A 
ATOM      6  N   LIG    1        2.353   0.100  -0.020  0.00  0.00    -0.510 NA
ATOM      7  C   LIG    1        2.288   1.420  -0.012  0.00  0.00    +0.550 A 
ATOM      8  N   LIG    1        1.142   2.062   0.002  0.00  0.00    -0.480 NA
ATOM      9 CL   LIG    1        1.372  -2.373  -0.024  0.00  0.00    +0.000 Cl
ATOM     10  C   LIG    1       -0.017   1.397   0.010  0.00  0.00    +0.090 A 
ATOM     11  S   LIG    1       -1.680   1.963   0.036  0.00  0.00    +0.190 S 
ENDROOT
TORSDOF 0
