REMARK  Name = ZINCrg000000swEf.0
REMARK                            x       y       z     vdW  Elec       q    Type
REMARK                         _______ _______ _______ _____ _____    ______ ____
ROOT
ATOM      1  C   LIG    1        2.877   4.203  -1.446  0.00  0.00    +0.280 C 
ENDROOT
BRANCH   1   7
ATOM      2  C   LIG    1        1.186   3.521  -3.974  0.00  0.00    +0.210 C 
ATOM      3  C   LIG    1        1.162   4.801  -3.179  0.00  0.00    +0.190 A 
ATOM      4  N   LIG    1        0.420   5.856  -3.417  0.00  0.00    -0.300 NA
ATOM      5  N   LIG    1        0.686   6.740  -2.518  0.00  0.00    -0.070 NA
ATOM      6  N   LIG    1        1.574   6.275  -1.711  0.00  0.00    -0.080 NA
ATOM      7  N   LIG    1        1.898   5.084  -2.088  0.00  0.00    -0.310 N 
ENDBRANCH   1   7
BRANCH   1   8
ATOM      8  C   LIG    1        4.231   4.865  -1.457  0.00  0.00    +0.510 C 
ATOM      9  N   LIG    1        4.809   5.196  -2.629  0.00  0.00    -0.720 N 
ATOM     10  H   LIG    1        4.354   5.008  -3.465  0.00  0.00    +0.400 HD
ATOM     11  O   LIG    1        4.800   5.099  -0.412  0.00  0.00    -0.500 OA
BRANCH   9  12
ATOM     12  C   LIG    1        6.126   5.839  -2.639  0.00  0.00    +0.280 C 
BRANCH  12  13
ATOM     13  C   LIG    1        6.551   6.106  -4.085  0.00  0.00    -0.010 C 
BRANCH  13  14
ATOM     14  C   LIG    1        7.926   6.777  -4.096  0.00  0.00    +0.310 C 
BRANCH  14  15
ATOM     15  N   LIG    1        8.333   7.034  -5.480  0.00  0.00    -0.620 N 
ATOM     16  C   LIG    1        9.099   6.092  -6.305  0.00  0.00    +0.250 C 
ATOM     17  C   LIG    1        8.909   6.576  -7.762  0.00  0.00    +0.040 C 
ATOM     18  C   LIG    1        8.619   8.081  -7.557  0.00  0.00    +0.050 C 
ATOM     19  C   LIG    1        8.057   8.163  -6.155  0.00  0.00    +0.510 C 
ATOM     20  O   LIG    1        7.448   9.110  -5.705  0.00  0.00    -0.530 OA
ENDBRANCH  14  15
ENDBRANCH  13  14
ENDBRANCH  12  13
ENDBRANCH   9  12
ENDBRANCH   1   8
BRANCH   1  21
ATOM     21  C   LIG    1        2.451   3.936  -0.001  0.00  0.00    +0.150 C 
BRANCH  21  22
ATOM     22  C   LIG    1        1.156   3.166   0.007  0.00  0.00    -0.110 A 
ATOM     23  C   LIG    1        1.175   1.783   0.000  0.00  0.00    +0.060 A 
ATOM     24  C   LIG    1       -0.013   1.076   0.008  0.00  0.00    -0.010 A 
ATOM     25  C   LIG    1       -1.221   1.752   0.017  0.00  0.00    +0.110 A 
ATOM     26  C   LIG    1       -1.238   3.136   0.030  0.00  0.00    -0.010 A 
ATOM     27  F   LIG    1       -2.382   1.062   0.019  0.00  0.00    -0.140 F 
ATOM     28  C   LIG    1       -0.050   3.842   0.022  0.00  0.00    +0.050 A 
ENDBRANCH  21  22
ENDBRANCH   1  21
TORSDOF 8
