REMARK  Name = ZINCpe000000XIhE.0
REMARK                            x       y       z     vdW  Elec       q    Type
REMARK                         _______ _______ _______ _____ _____    ______ ____
ROOT
ATOM      1  N   LIG    1        3.974   0.994  -0.383  0.00  0.00    -0.520 NA
ATOM      2  C   LIG    1        4.063   1.521  -1.751  0.00  0.00    +0.170 C 
ATOM      3  C   LIG    1        4.638   2.941  -1.711  0.00  0.00    +0.280 C 
ATOM      4  N   LIG    1        5.910   2.910  -0.973  0.00  0.00    -0.630 N 
ATOM      5  C   LIG    1        5.930   2.272   0.352  0.00  0.00    +0.300 C 
ATOM      6  C   LIG    1        7.027   3.451  -1.498  0.00  0.00    +0.710 C 
ATOM      7  N   LIG    1        6.953   4.200  -2.616  0.00  0.00    -0.630 N 
ATOM      8  C   LIG    1        5.682   4.816  -3.021  0.00  0.00    +0.260 C 
ATOM      9  C   LIG    1        5.911   6.321  -3.223  0.00  0.00    +0.010 C 
ATOM     10  C   LIG    1        7.055   6.528  -4.219  0.00  0.00    +0.010 C 
ATOM     11  C   LIG    1        8.340   5.916  -3.656  0.00  0.00    +0.000 C 
ATOM     12  C   LIG    1        8.140   4.411  -3.455  0.00  0.00    +0.280 C 
ATOM     13  O   LIG    1        8.102   3.263  -0.962  0.00  0.00    -0.590 OA
ATOM     14  C   LIG    1        5.304   0.879   0.231  0.00  0.00    +0.170 C 
ENDROOT
BRANCH   1  15
ATOM     15  C   LIG    1        3.270  -0.295  -0.360  0.00  0.00    +0.220 C 
BRANCH  15  18
ATOM     16  N   LIG    1        0.992  -1.141  -0.818  0.00  0.00    -0.650 N 
ATOM     17  H   LIG    1        1.310  -2.030  -0.593  0.00  0.00    +0.410 HD
ATOM     18  C   LIG    1        1.834  -0.091  -0.767  0.00  0.00    +0.520 C 
ATOM     19  O   LIG    1        1.436   1.020  -1.048  0.00  0.00    -0.480 OA
BRANCH  16  24
ATOM     20  C   LIG    1       -3.267   1.007  -2.288  0.00  0.00    +0.160 C 
ATOM     21  C   LIG    1       -2.253  -0.021  -1.857  0.00  0.00    +0.090 A 
ATOM     22  N   LIG    1       -2.474  -1.303  -1.713  0.00  0.00    -0.290 NA
ATOM     23  N   LIG    1       -1.283  -1.913  -1.300  0.00  0.00    -0.390 N 
ATOM     24  C   LIG    1       -0.336  -0.953  -1.200  0.00  0.00    +0.300 A 
ATOM     25  C   LIG    1       -1.096  -3.340  -1.025  0.00  0.00    +0.360 C 
ATOM     26  C   LIG    1       -0.916   0.232  -1.536  0.00  0.00    -0.100 A 
ENDBRANCH  16  24
ENDBRANCH  15  18
ENDBRANCH   1  15
TORSDOF 3
