REMARK  Name = ZINCpk00000y6vgu.0
REMARK                            x       y       z     vdW  Elec       q    Type
REMARK                         _______ _______ _______ _____ _____    ______ ____
ROOT
ATOM      1  C   LIG    1       -2.542   4.040   0.046  0.00  0.00    +0.570 C 
ATOM      2  N   LIG    1       -3.688   3.329   0.053  0.00  0.00    -0.700 N 
ATOM      3  H   LIG    1       -3.657   2.360   0.049  0.00  0.00    +0.410 HD
ATOM      4  O   LIG    1       -2.580   5.254   0.052  0.00  0.00    -0.520 OA
ENDROOT
BRANCH   1   7
ATOM      5  C   LIG    1       -0.017   1.380   0.010  0.00  0.00    +0.570 A 
ATOM      6  N   LIG    1       -1.181   2.008   0.019  0.00  0.00    -0.550 NA
ATOM      7  C   LIG    1       -1.234   3.338   0.031  0.00  0.00    +0.180 A 
ATOM      8  C   LIG    1       -0.042   4.062   0.023  0.00  0.00    -0.070 A 
ATOM      9  C   LIG    1        1.157   3.362   0.009  0.00  0.00    +0.220 A 
ATOM     10  C   LIG    1        2.470   4.101   0.001  0.00  0.00    +0.160 C 
ATOM     11  N   LIG    1        1.133   2.041   0.002  0.00  0.00    -0.560 NA
BRANCH   5  13
ATOM     12  C   LIG    1       -1.256  -0.754   0.010  0.00  0.00    +0.300 C 
ATOM     13  N   LIG    1        0.002  -0.004   0.002  0.00  0.00    -0.700 N 
ATOM     14  H   LIG    1        0.849  -0.478  -0.009  0.00  0.00    +0.420 HD
ENDBRANCH   5  13
ENDBRANCH   1   7
BRANCH   2  15
ATOM     15  C   LIG    1       -4.979   4.022   0.068  0.00  0.00    +0.260 C 
BRANCH  15  16
ATOM     16  C   LIG    1       -6.110   2.992   0.074  0.00  0.00    -0.020 C 
ATOM     17  C   LIG    1       -6.091   2.204  -1.240  0.00  0.00    +0.020 C 
ATOM     18  C   LIG    1       -7.275   1.232  -1.256  0.00  0.00    +0.000 C 
ATOM     19  C   LIG    1       -8.575   2.018  -1.066  0.00  0.00    +0.210 C 
ATOM     20  O   LIG    1       -8.513   2.750   0.159  0.00  0.00    -0.350 OA
ATOM     21  C   LIG    1       -7.455   3.709   0.212  0.00  0.00    +0.270 C 
BRANCH  21  22
ATOM     22  C   LIG    1       -7.503   4.438   1.531  0.00  0.00    +0.200 A 
ATOM     23  N   LIG    1       -7.672   3.884   2.700  0.00  0.00    -0.460 NA
ATOM     24  C   LIG    1       -7.661   4.834   3.646  0.00  0.00    +0.140 A 
ATOM     25  C   LIG    1       -7.478   6.023   3.040  0.00  0.00    +0.130 A 
ATOM     26  N   LIG    1       -7.372   5.771   1.698  0.00  0.00    -0.450 N 
ATOM     27  C   LIG    1       -7.159   6.764   0.642  0.00  0.00    +0.320 C 
ENDBRANCH  21  22
ENDBRANCH  15  16
ENDBRANCH   2  15
TORSDOF 5
