REMARK  Name = ZINCkj000005juIo.0
REMARK                            x       y       z     vdW  Elec       q    Type
REMARK                         _______ _______ _______ _____ _____    ______ ____
ROOT
ATOM      1  N   LIG    1       -2.308  -2.913   0.627  0.00  0.00    -0.720 N 
ATOM      2  H   LIG    1       -3.083  -2.561   0.162  0.00  0.00    +0.410 HD
ATOM      3  C   LIG    1       -2.358  -4.138   1.187  0.00  0.00    +0.510 C 
ATOM      4  O   LIG    1       -1.389  -4.579   1.769  0.00  0.00    -0.540 OA
ENDROOT
BRANCH   1   5
ATOM      5  C   LIG    1       -1.084  -2.113   0.723  0.00  0.00    +0.250 C 
BRANCH   5   7
ATOM      6  C   LIG    1       -1.745  -1.028  -1.429  0.00  0.00    +0.070 C 
ATOM      7  C   LIG    1       -1.293  -0.775   0.011  0.00  0.00    +0.170 C 
BRANCH   7   8
ATOM      8  C   LIG    1        0.002  -0.004   0.002  0.00  0.00    -0.130 A 
ATOM      9  C   LIG    1       -0.017   1.378   0.010  0.00  0.00    +0.030 A 
ATOM     10  C   LIG    1        1.171   2.086   0.002  0.00  0.00    +0.010 A 
ATOM     11  C   LIG    1        2.377   1.411  -0.015  0.00  0.00    +0.020 A 
ATOM     12  C   LIG    1        2.396   0.029  -0.021  0.00  0.00    +0.010 A 
ATOM     13  C   LIG    1        1.208  -0.679  -0.013  0.00  0.00    +0.010 A 
ENDBRANCH   7   8
BRANCH   7  14
ATOM     14  O   LIG    1       -2.292  -0.020   0.699  0.00  0.00    -0.550 OA
ATOM     15  H   LIG    1       -2.072   0.178   1.619  0.00  0.00    +0.380 HD
ENDBRANCH   7  14
ENDBRANCH   5   7
ENDBRANCH   1   5
BRANCH   3  16
ATOM     16  C   LIG    1       -3.617  -4.961   1.088  0.00  0.00    +0.070 C 
BRANCH  16  17
ATOM     17  C   LIG    1       -3.409  -6.299   1.800  0.00  0.00    +0.060 C 
ATOM     18  C   LIG    1       -2.380  -7.130   1.069  0.00  0.00    +0.090 C 
ATOM     19  C   LIG    1       -2.775  -8.368   0.950  0.00  0.00    -0.100 C 
ATOM     20  C   LIG    1       -4.132  -8.570   1.583  0.00  0.00    +0.210 C 
ATOM     21  C   LIG    1       -4.703  -7.143   1.750  0.00  0.00    +0.070 C 
BRANCH  20  22
ATOM     22  N   LIG    1       -4.995  -9.366   0.700  0.00  0.00    -0.630 N 
ATOM     23  H   LIG    1       -5.091  -8.898  -0.189  0.00  0.00    +0.430 HD
ATOM     24  H   LIG    1       -5.904  -9.472   1.124  0.00  0.00    +0.440 HD
ATOM     25  H   LIG    1       -4.582 -10.276   0.557  0.00  0.00    +0.440 HD
ENDBRANCH  20  22
ENDBRANCH  16  17
ENDBRANCH   3  16
TORSDOF 7
