REMARK  Name = ZINCrD00000eBLte.0
REMARK                            x       y       z     vdW  Elec       q    Type
REMARK                         _______ _______ _______ _____ _____    ______ ____
ROOT
ATOM      1  C   LIG    1       -0.417   0.885  -2.439  0.00  0.00    +0.360 A 
ATOM      2  N   LIG    1        0.592   0.045  -2.513  0.00  0.00    -0.300 NA
ATOM      3  N   LIG    1        1.122   0.092  -3.682  0.00  0.00    -0.240 NA
ATOM      4  C   LIG    1        0.488   0.972  -4.426  0.00  0.00    +0.240 A 
ATOM      5  N   LIG    1       -0.518   1.505  -3.650  0.00  0.00    -0.460 N 
ATOM      6  C   LIG    1       -1.492   2.526  -4.044  0.00  0.00    +0.360 C 
ENDROOT
BRANCH   4   7
ATOM      7  C   LIG    1        0.794   1.320  -5.823  0.00  0.00    +0.090 A 
ATOM      8  C   LIG    1        1.944   1.005  -6.472  0.00  0.00    +0.050 A 
ATOM      9  C   LIG    1        1.808   1.547  -7.825  0.00  0.00    -0.130 A 
ATOM     10  C   LIG    1        2.627   1.560  -8.955  0.00  0.00    +0.070 A 
ATOM     11  C   LIG    1        2.192   2.169 -10.100  0.00  0.00    +0.000 A 
ATOM     12  C   LIG    1        0.945   2.774 -10.143  0.00  0.00    +0.060 A 
ATOM     13  C   LIG    1        0.122   2.772  -9.036  0.00  0.00    +0.020 A 
ATOM     14  C   LIG    1        0.542   2.159  -7.863  0.00  0.00    +0.070 A 
ATOM     15  O   LIG    1       -0.028   1.994  -6.652  0.00  0.00    -0.190 OA
ENDBRANCH   4   7
BRANCH   1  19
ATOM     16  C   LIG    1       -4.418  -0.513  -0.081  0.00  0.00    +0.060 C 
ATOM     17  C   LIG    1       -3.263   0.488  -0.129  0.00  0.00    +0.150 C 
ATOM     18  C   LIG    1       -2.354   0.164  -1.316  0.00  0.00    +0.230 C 
ATOM     19  N   LIG    1       -1.223   1.103  -1.336  0.00  0.00    -0.470 N 
ATOM     20  C   LIG    1       -0.448   1.016  -0.091  0.00  0.00    +0.230 C 
ATOM     21  C   LIG    1       -1.356   1.341   1.097  0.00  0.00    +0.200 C 
ATOM     22  N   LIG    1       -2.487   0.401   1.117  0.00  0.00    -0.530 NA
BRANCH  22  23
ATOM     23  C   LIG    1       -3.343   0.633   2.288  0.00  0.00    +0.220 C 
BRANCH  23  24
ATOM     24  C   LIG    1       -2.629   0.139   3.547  0.00  0.00    +0.460 C 
ATOM     25  F   LIG    1       -2.240  -1.193   3.371  0.00  0.00    -0.170 F 
ATOM     26  F   LIG    1       -3.497   0.230   4.641  0.00  0.00    -0.180 F 
ATOM     27  F   LIG    1       -1.498   0.928   3.782  0.00  0.00    -0.180 F 
ENDBRANCH  23  24
ENDBRANCH  22  23
ENDBRANCH   1  19
TORSDOF 4
