REMARK  Name = ZINCvU0000000DFf.0
REMARK                            x       y       z     vdW  Elec       q    Type
REMARK                         _______ _______ _______ _____ _____    ______ ____
ROOT
ATOM      1  C   LIG    1       -7.947   2.670  -2.278  0.00  0.00    +0.110 A 
ATOM      2  C   LIG    1       -6.761   3.348  -2.067  0.00  0.00    -0.030 A 
ATOM      3  C   LIG    1       -5.769   2.803  -1.260  0.00  0.00    -0.060 A 
ATOM      4  C   LIG    1       -5.974   1.583  -0.657  0.00  0.00    -0.090 A 
ATOM      5  C   LIG    1       -4.946   0.944   0.243  0.00  0.00    +0.390 C 
ATOM      6  N   LIG    1       -3.674   1.665   0.130  0.00  0.00    -0.600 N 
ATOM      7  C   LIG    1       -3.727   3.136   0.148  0.00  0.00    +0.280 C 
ATOM      8  C   LIG    1       -2.503   1.007   0.019  0.00  0.00    +0.570 C 
ATOM      9  O   LIG    1       -2.492  -0.206  -0.060  0.00  0.00    -0.520 OA
ATOM     10  C   LIG    1       -7.162   0.895  -0.870  0.00  0.00    -0.020 A 
ATOM     11  C   LIG    1       -4.493   3.588  -1.101  0.00  0.00    +0.090 C 
ATOM     12  C   LIG    1       -8.149   1.431  -1.676  0.00  0.00    +0.110 A 
ENDROOT
BRANCH   8  13
ATOM     13  C   LIG    1       -1.231   1.760  -0.006  0.00  0.00    -0.090 A 
ATOM     14  C   LIG    1       -1.069   2.832  -0.886  0.00  0.00    +0.040 A 
ATOM     15  C   LIG    1        0.118   3.535  -0.900  0.00  0.00    +0.080 A 
ATOM     16  C   LIG    1        1.149   3.176  -0.049  0.00  0.00    -0.160 A 
ATOM     17  C   LIG    1        0.996   2.111   0.821  0.00  0.00    +0.080 A 
ATOM     18  C   LIG    1       -0.186   1.400   0.845  0.00  0.00    +0.070 A 
BRANCH  16  19
ATOM     19  C   LIG    1        2.442   3.949  -0.069  0.00  0.00    +0.510 C 
ATOM     20  F   LIG    1        2.662   4.456  -1.354  0.00  0.00    -0.170 F 
ATOM     21  F   LIG    1        3.497   3.101   0.284  0.00  0.00    -0.170 F 
ATOM     22  F   LIG    1        2.368   5.007   0.843  0.00  0.00    -0.170 F 
ENDBRANCH  16  19
ENDBRANCH   8  13
BRANCH   5  23
ATOM     23  C   LIG    1       -5.427   0.998   1.670  0.00  0.00    -0.190 A 
ATOM     24  C   LIG    1       -5.999  -0.012   2.328  0.00  0.00    +0.020 A 
ATOM     25  C   LIG    1       -6.359   0.271   3.634  0.00  0.00    +0.010 A 
ATOM     26  C   LIG    1       -6.081   1.512   4.037  0.00  0.00    -0.060 A 
ATOM     27  S   LIG    1       -5.314   2.400   2.726  0.00  0.00    +0.110 S 
ENDBRANCH   5  23
BRANCH   1  29
ATOM     28  C   LIG    1       -8.634   4.485  -3.652  0.00  0.00    +0.250 C 
ATOM     29  O   LIG    1       -8.912   3.211  -3.069  0.00  0.00    -0.300 OA
ENDBRANCH   1  29
BRANCH  12  30
ATOM     30  O   LIG    1       -9.309   0.752  -1.881  0.00  0.00    -0.300 OA
ATOM     31  C   LIG    1       -9.444  -0.513  -1.230  0.00  0.00    +0.240 C 
ENDBRANCH  12  30
TORSDOF 5
