REMARK  Name = ZINCtj00001hvdM4.1
REMARK                            x       y       z     vdW  Elec       q    Type
REMARK                         _______ _______ _______ _____ _____    ______ ____
ROOT
ATOM      1  C   LIG    1       -1.637   6.922   0.055  0.00  0.00    +0.470 C 
ATOM      2  O   LIG    1       -0.689   7.671   0.050  0.00  0.00    -0.490 OA
ENDROOT
BRANCH   1   3
ATOM      3  O   LIG    1       -1.443   5.594   0.046  0.00  0.00    -0.340 OA
BRANCH   3   4
ATOM      4  C   LIG    1       -0.068   5.129   0.030  0.00  0.00    +0.380 C 
BRANCH   4   9
ATOM      5  C   LIG    1       -1.169   1.616   0.016  0.00  0.00    +0.670 C 
ATOM      6  N   LIG    1       -0.011   0.966   0.007  0.00  0.00    -0.610 N 
ATOM      7  C   LIG    1        1.129   1.647   0.000  0.00  0.00    +0.680 C 
ATOM      8  N   LIG    1        1.107   2.978   0.007  0.00  0.00    -0.570 NA
ATOM      9  C   LIG    1       -0.047   3.622   0.022  0.00  0.00    +0.490 C 
ATOM     10  N   LIG    1        2.335   0.977  -0.015  0.00  0.00    -0.770 N 
ATOM     11  H   LIG    1        3.167   1.475  -0.020  0.00  0.00    +0.450 HD
ATOM     12  H   LIG    1        2.350   0.007  -0.020  0.00  0.00    +0.430 HD
ATOM     13  H   LIG    1        0.002  -0.004   0.002  0.00  0.00    +0.440 HD
ATOM     14  N   LIG    1       -1.183   2.947   0.030  0.00  0.00    -0.540 NA
BRANCH   5  16
ATOM     15  C   LIG    1       -3.513   1.429   0.754  0.00  0.00    +0.370 C 
ATOM     16  N   LIG    1       -2.357   0.913   0.018  0.00  0.00    -0.570 NA
ATOM     17  C   LIG    1       -2.460  -0.351  -0.717  0.00  0.00    +0.340 C 
ENDBRANCH   5  16
ENDBRANCH   4   9
ENDBRANCH   3   4
ENDBRANCH   1   3
BRANCH   1  18
ATOM     18  C   LIG    1       -3.037   7.479   0.071  0.00  0.00    +0.140 C 
BRANCH  18  19
ATOM     19  C   LIG    1       -2.978   9.008   0.079  0.00  0.00    +0.060 C 
BRANCH  19  20
ATOM     20  C   LIG    1       -4.378   9.565   0.096  0.00  0.00    +0.410 C 
ATOM     21  O   LIG    1       -5.330   8.813   0.101  0.00  0.00    -0.450 OA
BRANCH  20  22
ATOM     22  C   LIG    1       -4.590  11.018   0.105  0.00  0.00    -0.170 A 
ATOM     23  C   LIG    1       -3.493  11.887   0.100  0.00  0.00    +0.080 A 
ATOM     24  C   LIG    1       -3.693  13.250   0.109  0.00  0.00    +0.020 A 
ATOM     25  C   LIG    1       -4.983  13.762   0.124  0.00  0.00    +0.110 A 
ATOM     26  O   LIG    1       -5.185  15.109   0.134  0.00  0.00    -0.320 OA
ATOM     27  C   LIG    1       -5.760  15.664  -1.051  0.00  0.00    +0.230 C 
ATOM     28  C   LIG    1       -7.276  15.553  -1.020  0.00  0.00    +0.000 C 
ATOM     29  C   LIG    1       -7.750  14.108  -1.040  0.00  0.00    +0.230 C 
ATOM     30  O   LIG    1       -7.341  13.423   0.145  0.00  0.00    -0.320 OA
ATOM     31  C   LIG    1       -6.079  12.904   0.130  0.00  0.00    +0.050 A 
ATOM     32  C   LIG    1       -5.892  11.538   0.115  0.00  0.00    +0.100 A 
ENDBRANCH  20  22
ENDBRANCH  19  20
ENDBRANCH  18  19
ENDBRANCH   1  18
TORSDOF 8
