REMARK  Name = ZINCtV00000L6kAS.0
REMARK                            x       y       z     vdW  Elec       q    Type
REMARK                         _______ _______ _______ _____ _____    ______ ____
ROOT
ATOM      1  P   LIG    1       -3.076   3.165   0.427  0.00  0.00    +2.740 P 
ATOM      2  N   LIG    1       -1.758   3.981   0.326  0.00  0.00    -1.210 NA
ENDROOT
BRANCH   1   9
ATOM      3  C   LIG    1       -3.455   5.661  -1.788  0.00  0.00    +0.160 C 
ATOM      4  C   LIG    1       -4.553   5.282  -0.828  0.00  0.00    +0.170 A 
ATOM      5  N   LIG    1       -5.730   5.848  -0.746  0.00  0.00    -0.280 NA
ATOM      6  N   LIG    1       -6.452   5.211   0.272  0.00  0.00    -0.310 N 
ATOM      7  C   LIG    1       -5.668   4.240   0.793  0.00  0.00    +0.160 A 
ATOM      8  C   LIG    1       -6.040   3.303   1.913  0.00  0.00    +0.160 C 
ATOM      9  C   LIG    1       -4.490   4.261   0.128  0.00  0.00    -0.870 A 
BRANCH   6  10
ATOM     10  C   LIG    1       -7.756   5.525   0.678  0.00  0.00    +0.140 A 
ATOM     11  C   LIG    1       -8.665   4.509   0.943  0.00  0.00    +0.000 A 
ATOM     12  C   LIG    1       -9.948   4.821   1.349  0.00  0.00    +0.040 A 
ATOM     13  C   LIG    1      -10.331   6.144   1.479  0.00  0.00    +0.020 A 
ATOM     14  C   LIG    1       -9.430   7.157   1.210  0.00  0.00    +0.040 A 
ATOM     15  C   LIG    1       -8.144   6.851   0.810  0.00  0.00    +0.030 A 
ENDBRANCH   6  10
ENDBRANCH   1   9
BRANCH   2  16
ATOM     16  C   LIG    1       -1.743   5.261   0.668  0.00  0.00    +0.300 A 
ATOM     17  C   LIG    1       -2.841   5.829   1.362  0.00  0.00    -0.190 A 
ATOM     18  C   LIG    1       -2.810   7.148   1.708  0.00  0.00    +0.050 A 
ATOM     19  C   LIG    1       -1.711   7.934   1.385  0.00  0.00    -0.100 A 
ATOM     20  C   LIG    1       -0.627   7.394   0.707  0.00  0.00    +0.060 A 
ATOM     21  C   LIG    1       -0.628   6.078   0.341  0.00  0.00    -0.100 A 
ATOM     22 CL   LIG    1        0.726   5.407  -0.513  0.00  0.00    -0.080 Cl
ENDBRANCH   2  16
BRANCH   1  23
ATOM     23  C   LIG    1       -3.064   1.834  -0.819  0.00  0.00    -0.660 C 
ATOM     24  C   LIG    1       -4.175   0.831  -0.504  0.00  0.00    +0.050 C 
ATOM     25  C   LIG    1       -1.710   1.122  -0.792  0.00  0.00    +0.080 C 
ATOM     26  C   LIG    1       -3.297   2.433  -2.207  0.00  0.00    +0.070 C 
ENDBRANCH   1  23
BRANCH   1  27
ATOM     27  N   LIG    1       -3.203   2.493   1.965  0.00  0.00    -0.960 NA
ATOM     28  C   LIG    1       -3.428   3.533   2.977  0.00  0.00    +0.240 C 
ATOM     29  C   LIG    1       -2.015   1.691   2.288  0.00  0.00    +0.240 C 
ENDBRANCH   1  27
TORSDOF 5
