REMARK  Name = ZINCrD0000073xUH.0
REMARK                            x       y       z     vdW  Elec       q    Type
REMARK                         _______ _______ _______ _____ _____    ______ ____
ROOT
ATOM      1  N   LIG    1        0.585  -0.664  -1.018  0.00  0.00    -0.730 N 
ATOM      2  H   LIG    1        0.992  -0.170  -1.747  0.00  0.00    +0.400 HD
ATOM      3  C   LIG    1        0.002  -0.004   0.002  0.00  0.00    +0.530 C 
ATOM      4  O   LIG    1       -0.506  -0.622   0.913  0.00  0.00    -0.530 OA
ENDROOT
BRANCH   3   5
ATOM      5  C   LIG    1       -0.018   1.503   0.010  0.00  0.00    +0.000 C 
ATOM      6  C   LIG    1       -0.731   1.997   1.272  0.00  0.00    +0.050 C 
ATOM      7  C   LIG    1       -0.694   3.528   1.303  0.00  0.00    +0.040 C 
ATOM      8  C   LIG    1        0.761   4.000   1.254  0.00  0.00    +0.190 C 
ATOM      9  N   LIG    1        1.398   3.501   0.029  0.00  0.00    -0.460 N 
ATOM     10  C   LIG    1        1.417   2.033  -0.001  0.00  0.00    +0.220 C 
BRANCH   9  11
ATOM     11  C   LIG    1        2.681   4.020  -0.112  0.00  0.00    +0.260 A 
ATOM     12  C   LIG    1        2.883   5.399  -0.111  0.00  0.00    +0.040 A 
ATOM     13  C   LIG    1        4.180   5.865  -0.254  0.00  0.00    +0.080 A 
ATOM     14  C   LIG    1        5.199   4.930  -0.391  0.00  0.00    +0.090 A 
ATOM     15  N   LIG    1        4.916   3.642  -0.382  0.00  0.00    -0.200 NA
ATOM     16 CL   LIG    1        6.842   5.457  -0.575  0.00  0.00    -0.000 Cl
ATOM     17  N   LIG    1        3.717   3.204  -0.243  0.00  0.00    -0.260 NA
ENDBRANCH   9  11
ENDBRANCH   3   5
BRANCH   1  18
ATOM     18  C   LIG    1        0.605  -2.129  -1.026  0.00  0.00    +0.290 C 
ATOM     19  C   LIG    1       -0.701  -2.654  -1.626  0.00  0.00    +0.040 C 
BRANCH  18  23
ATOM     20  C   LIG    1        3.903  -3.499  -3.375  0.00  0.00    +0.100 A 
ATOM     21  C   LIG    1        3.578  -4.144  -2.192  0.00  0.00    -0.040 A 
ATOM     22  C   LIG    1        2.510  -3.699  -1.435  0.00  0.00    +0.070 A 
ATOM     23  C   LIG    1        1.768  -2.611  -1.855  0.00  0.00    -0.100 A 
ATOM     24  C   LIG    1        2.086  -1.968  -3.037  0.00  0.00    +0.030 A 
ATOM     25  C   LIG    1        3.156  -2.406  -3.797  0.00  0.00    +0.080 A 
ATOM     26  F   LIG    1        3.470  -1.775  -4.949  0.00  0.00    -0.130 F 
BRANCH  20  28
ATOM     27  C   LIG    1        5.677  -5.063  -3.627  0.00  0.00    +0.250 C 
ATOM     28  O   LIG    1        4.953  -3.935  -4.122  0.00  0.00    -0.310 OA
ENDBRANCH  20  28
ENDBRANCH  18  23
ENDBRANCH   1  18
TORSDOF 5
