REMARK  Name = ZINCvU0000000FVZ.0
REMARK                            x       y       z     vdW  Elec       q    Type
REMARK                         _______ _______ _______ _____ _____    ______ ____
ROOT
ATOM      1  C   LIG    1       -2.009   1.172  -3.612  0.00  0.00    +0.180 C 
ATOM      2  C   LIG    1       -1.214  -0.099  -3.768  0.00  0.00    +0.130 A 
ATOM      3  C   LIG    1        0.071  -0.312  -3.355  0.00  0.00    -0.100 A 
ATOM      4  N   LIG    1        0.421  -1.568  -3.682  0.00  0.00    -0.190 NA
ATOM      5  N   LIG    1       -0.568  -2.154  -4.263  0.00  0.00    -0.060 NA
ATOM      6  N   LIG    1       -1.634  -1.247  -4.343  0.00  0.00    -0.310 N 
ENDROOT
BRANCH   3   7
ATOM      7  C   LIG    1        0.931   0.672  -2.672  0.00  0.00    +0.620 C 
ATOM      8  N   LIG    1        2.187   0.337  -2.314  0.00  0.00    -0.590 N 
ATOM      9  C   LIG    1        2.861  -0.934  -2.637  0.00  0.00    +0.260 C 
ATOM     10  C   LIG    1        4.374  -0.604  -2.583  0.00  0.00    +0.040 C 
ATOM     11  C   LIG    1        4.433   0.395  -1.397  0.00  0.00    +0.050 C 
ATOM     12  C   LIG    1        3.110   1.177  -1.538  0.00  0.00    +0.170 C 
ATOM     13  C   LIG    1        3.358   2.495  -2.275  0.00  0.00    +0.050 C 
ATOM     14  O   LIG    1        0.508   1.786  -2.431  0.00  0.00    -0.530 OA
BRANCH  12  15
ATOM     15  C   LIG    1        2.521   1.457  -0.154  0.00  0.00    +0.130 C 
BRANCH  15  16
ATOM     16  C   LIG    1        2.174   0.153   0.517  0.00  0.00    -0.150 A 
ATOM     17  C   LIG    1        2.987  -0.541   1.314  0.00  0.00    +0.010 A 
ATOM     18  C   LIG    1        2.451  -1.716   1.813  0.00  0.00    +0.030 A 
ATOM     19  C   LIG    1        1.199  -1.970   1.429  0.00  0.00    -0.160 A 
ATOM     20 CL   LIG    1        0.270  -3.360   1.897  0.00  0.00    -0.020 Cl
ATOM     21  S   LIG    1        0.635  -0.685   0.368  0.00  0.00    +0.160 S 
ENDBRANCH  15  16
ENDBRANCH  12  15
ENDBRANCH   3   7
BRANCH   6  22
ATOM     22  C   LIG    1       -2.896  -1.486  -4.910  0.00  0.00    +0.080 A 
ATOM     23  C   LIG    1       -3.526  -2.707  -4.711  0.00  0.00    +0.090 A 
ATOM     24  C   LIG    1       -4.769  -2.939  -5.264  0.00  0.00    +0.010 A 
ATOM     25  C   LIG    1       -5.384  -1.957  -6.027  0.00  0.00    +0.150 A 
ATOM     26  C   LIG    1       -4.752  -0.739  -6.231  0.00  0.00    -0.060 A 
ATOM     27  C   LIG    1       -3.511  -0.503  -5.673  0.00  0.00    +0.070 A 
BRANCH  25  28
ATOM     28  O   LIG    1       -6.606  -2.189  -6.576  0.00  0.00    -0.300 OA
BRANCH  28  29
ATOM     29  C   LIG    1       -7.133  -1.177  -7.437  0.00  0.00    +0.150 C 
ATOM     30  C   LIG    1       -7.843  -0.113  -6.598  0.00  0.00    +0.030 C 
ATOM     31  C   LIG    1       -8.129  -1.806  -8.413  0.00  0.00    +0.070 C 
ENDBRANCH  28  29
ENDBRANCH  25  28
ENDBRANCH   6  22
TORSDOF 6
