REMARK  Name = ZINCpe000000XETZ.0
REMARK                            x       y       z     vdW  Elec       q    Type
REMARK                         _______ _______ _______ _____ _____    ______ ____
ROOT
ATOM      1  C   LIG    1       -1.091  -3.465  -0.007  0.00  0.00    +0.610 C 
ATOM      2  N   LIG    1       -0.374  -4.601  -0.121  0.00  0.00    -0.580 N 
ATOM      3  C   LIG    1        1.095  -4.559  -0.142  0.00  0.00    +0.280 C 
ATOM      4  C   LIG    1        1.596  -5.294  -1.384  0.00  0.00    +0.030 C 
ATOM      5  C   LIG    1        1.006  -6.706  -1.411  0.00  0.00    +0.060 C 
ATOM      6  C   LIG    1       -0.521  -6.622  -1.480  0.00  0.00    -0.020 C 
ATOM      7  C   LIG    1       -1.045  -5.902  -0.234  0.00  0.00    +0.300 C 
ATOM      8  O   LIG    1       -2.302  -3.518   0.075  0.00  0.00    -0.510 OA
ENDROOT
BRANCH   1  16
ATOM      9  C   LIG    1       -1.313   2.105  -0.038  0.00  0.00    +0.160 C 
ATOM     10  C   LIG    1       -0.007   1.355   0.028  0.00  0.00    +0.210 A 
ATOM     11  C   LIG    1        1.170   2.027   0.078  0.00  0.00    -0.040 A 
ATOM     12  C   LIG    1        2.370   1.305   0.133  0.00  0.00    +0.240 A 
ATOM     13  N   LIG    1        2.354  -0.008   0.136  0.00  0.00    -0.460 NA
ATOM     14  C   LIG    1        1.197  -0.682   0.087  0.00  0.00    +0.460 A 
ATOM     15  N   LIG    1        0.919  -1.977   0.078  0.00  0.00    -0.500 NA
ATOM     16  C   LIG    1       -0.403  -2.154   0.021  0.00  0.00    +0.240 A 
ATOM     17  N   LIG    1       -1.001  -0.978  -0.009  0.00  0.00    -0.260 NA
ATOM     18  C   LIG    1        3.685   2.039   0.189  0.00  0.00    +0.180 C 
ATOM     19  N   LIG    1        0.008  -0.006   0.033  0.00  0.00    -0.330 N 
ENDBRANCH   1  16
BRANCH   6  20
ATOM     20  C   LIG    1       -1.099  -8.012  -1.539  0.00  0.00    +0.530 C 
ATOM     21  N   LIG    1       -2.434  -8.185  -1.602  0.00  0.00    -0.700 N 
ATOM     22  H   LIG    1       -3.023  -7.414  -1.609  0.00  0.00    +0.400 HD
ATOM     23  O   LIG    1       -0.363  -8.976  -1.530  0.00  0.00    -0.530 OA
BRANCH  21  24
ATOM     24  C   LIG    1       -2.997  -9.536  -1.659  0.00  0.00    +0.220 C 
ATOM     25  C   LIG    1       -4.133  -9.787  -2.653  0.00  0.00    +0.010 C 
ATOM     26  C   LIG    1       -4.427  -9.728  -1.153  0.00  0.00    +0.010 C 
ENDBRANCH  21  24
ENDBRANCH   6  20
TORSDOF 3
