REMARK  Name = ZINCrg00000SjSvH.0
REMARK                            x       y       z     vdW  Elec       q    Type
REMARK                         _______ _______ _______ _____ _____    ______ ____
ROOT
ATOM      1  C   LIG    1        1.016  -1.935  -1.045  0.00  0.00    +0.180 C 
ATOM      2  C   LIG    1        1.258  -0.755  -0.099  0.00  0.00    +0.280 C 
ATOM      3  N   LIG    1       -0.004  -0.004   0.017  0.00  0.00    -0.550 N 
ATOM      4  C   LIG    1       -1.194  -0.742   0.130  0.00  0.00    +0.070 A 
ATOM      5  C   LIG    1       -2.367  -0.114   0.517  0.00  0.00    +0.050 A 
ATOM      6  C   LIG    1       -3.537  -0.843   0.624  0.00  0.00    +0.000 A 
ATOM      7  C   LIG    1       -3.537  -2.197   0.344  0.00  0.00    +0.030 A 
ATOM      8  C   LIG    1       -2.369  -2.829  -0.042  0.00  0.00    +0.020 A 
ATOM      9  C   LIG    1       -1.191  -2.106  -0.150  0.00  0.00    +0.100 A 
ATOM     10  C   LIG    1       -0.016   1.344   0.009  0.00  0.00    +0.530 C 
ATOM     11  O   LIG    1       -1.072   1.940  -0.005  0.00  0.00    -0.500 OA
ATOM     12  O   LIG    1       -0.046  -2.736  -0.524  0.00  0.00    -0.280 OA
ENDROOT
BRANCH   1  15
ATOM     13  C   LIG    1        4.594  -3.050  -1.825  0.00  0.00    +0.310 C 
ATOM     14  N   LIG    1        3.376  -2.243  -1.718  0.00  0.00    -0.620 N 
ATOM     15  C   LIG    1        2.269  -2.765  -1.155  0.00  0.00    +0.520 C 
ATOM     16  O   LIG    1        2.280  -3.903  -0.736  0.00  0.00    -0.500 OA
ATOM     17  C   LIG    1        3.362  -0.868  -2.224  0.00  0.00    +0.290 C 
ENDBRANCH   1  15
BRANCH  10  18
ATOM     18  C   LIG    1        1.282   2.109   0.026  0.00  0.00    +0.060 C 
BRANCH  18  19
ATOM     19  C   LIG    1        0.989   3.606   0.156  0.00  0.00    +0.360 C 
BRANCH  19  20
ATOM     20  N   LIG    1        2.251   4.350   0.172  0.00  0.00    -0.450 N 
ATOM     21  C   LIG    1        2.903   4.845  -0.902  0.00  0.00    +0.460 A 
ATOM     22  N   LIG    1        3.987   5.444  -0.494  0.00  0.00    -0.440 NA
ATOM     23  C   LIG    1        4.066   5.355   0.842  0.00  0.00    +0.050 A 
ATOM     24  C   LIG    1        2.986   4.679   1.279  0.00  0.00    +0.270 A 
BRANCH  23  25
ATOM     25  N   LIG    1        5.147   5.908   1.689  0.00  0.00    +0.060 N 
ATOM     26  O   LIG    1        5.109   5.763   2.898  0.00  0.00    -0.160 OA
ATOM     27  O   LIG    1        6.075   6.508   1.177  0.00  0.00    -0.130 OA
ENDBRANCH  23  25
ENDBRANCH  19  20
ENDBRANCH  18  19
ENDBRANCH  10  18
TORSDOF 5
