REMARK  Name = ZINCvU0000000Fxy.0
REMARK                            x       y       z     vdW  Elec       q    Type
REMARK                         _______ _______ _______ _____ _____    ______ ____
ROOT
ATOM      1  C   LIG    1        2.586   0.867  -0.034  0.00  0.00    +0.190 C 
ATOM      2  C   LIG    1        1.483   1.685   0.064  0.00  0.00    -0.230 C 
ENDROOT
BRANCH   1   8
ATOM      3  C   LIG    1        7.534   0.672   0.527  0.00  0.00    +0.090 C 
ATOM      4  C   LIG    1        6.301   1.361   0.003  0.00  0.00    -0.090 A 
ATOM      5  C   LIG    1        6.419   2.548  -0.699  0.00  0.00    +0.030 A 
ATOM      6  C   LIG    1        5.292   3.189  -1.186  0.00  0.00    +0.010 A 
ATOM      7  C   LIG    1        4.042   2.647  -0.979  0.00  0.00    +0.040 A 
ATOM      8  C   LIG    1        3.913   1.449  -0.264  0.00  0.00    -0.100 A 
ATOM      9  C   LIG    1        5.058   0.807   0.224  0.00  0.00    +0.040 A 
ENDBRANCH   1   8
BRANCH   2  10
ATOM     10  C   LIG    1        1.653   3.146   0.111  0.00  0.00    +0.570 C 
ATOM     11  N   LIG    1        2.192   3.727   1.201  0.00  0.00    -0.710 N 
ATOM     12  H   LIG    1        2.524   3.178   1.929  0.00  0.00    +0.400 HD
ATOM     13  O   LIG    1        1.306   3.829  -0.834  0.00  0.00    -0.530 OA
BRANCH  11  14
ATOM     14  C   LIG    1        2.277   5.187   1.286  0.00  0.00    +0.290 C 
ATOM     15  C   LIG    1        3.493   5.674   0.496  0.00  0.00    +0.040 C 
BRANCH  14  16
ATOM     16  C   LIG    1        2.417   5.598   2.729  0.00  0.00    -0.100 A 
ATOM     17  C   LIG    1        3.303   4.931   3.555  0.00  0.00    +0.010 A 
ATOM     18  C   LIG    1        3.435   5.311   4.878  0.00  0.00    +0.000 A 
ATOM     19  C   LIG    1        2.675   6.353   5.377  0.00  0.00    +0.000 A 
ATOM     20  C   LIG    1        1.786   7.016   4.552  0.00  0.00    +0.000 A 
ATOM     21  C   LIG    1        1.657   6.639   3.228  0.00  0.00    +0.010 A 
ENDBRANCH  14  16
ENDBRANCH  11  14
ENDBRANCH   2  10
BRANCH   2  22
ATOM     22  C   LIG    1        0.135   1.098   0.122  0.00  0.00    +0.580 C 
ATOM     23  N   LIG    1       -0.937   1.891   0.317  0.00  0.00    -0.720 N 
ATOM     24  H   LIG    1       -0.828   2.854   0.351  0.00  0.00    +0.400 HD
ATOM     25  O   LIG    1       -0.013  -0.102  -0.012  0.00  0.00    -0.530 OA
BRANCH  23  26
ATOM     26  C   LIG    1       -2.267   1.298   0.478  0.00  0.00    +0.290 C 
ATOM     27  C   LIG    1       -2.843   0.956  -0.898  0.00  0.00    +0.040 C 
BRANCH  26  28
ATOM     28  C   LIG    1       -3.175   2.281   1.172  0.00  0.00    -0.100 A 
ATOM     29  C   LIG    1       -3.190   3.606   0.776  0.00  0.00    +0.010 A 
ATOM     30  C   LIG    1       -4.026   4.506   1.410  0.00  0.00    +0.000 A 
ATOM     31  C   LIG    1       -4.839   4.085   2.444  0.00  0.00    +0.000 A 
ATOM     32  C   LIG    1       -4.820   2.761   2.843  0.00  0.00    +0.010 A 
ATOM     33  C   LIG    1       -3.988   1.859   2.207  0.00  0.00    +0.020 A 
ENDBRANCH  26  28
ENDBRANCH  23  26
ENDBRANCH   2  22
TORSDOF 7
