REMARK  Name = ZINCvU0000000CAY.0
REMARK                            x       y       z     vdW  Elec       q    Type
REMARK                         _______ _______ _______ _____ _____    ______ ____
ROOT
ATOM      1  C   LIG    1        3.817  -0.395  -0.036  0.00  0.00    -0.200 A 
ATOM      2  C   LIG    1        4.564   0.749  -0.037  0.00  0.00    +0.140 A 
ATOM      3  N   LIG    1        3.743   1.825  -0.023  0.00  0.00    -0.390 N 
ATOM      4  C   LIG    1        2.425   1.424  -0.013  0.00  0.00    +0.090 A 
ATOM      5  C   LIG    1        1.201   2.130   0.002  0.00  0.00    -0.010 A 
ATOM      6  C   LIG    1        1.173   3.533   0.009  0.00  0.00    +0.010 A 
ATOM      7  C   LIG    1       -0.024   4.184   0.024  0.00  0.00    +0.010 A 
ATOM      8  C   LIG    1       -1.222   3.476   0.032  0.00  0.00    +0.010 A 
ATOM      9  C   LIG    1       -1.231   2.114   0.031  0.00  0.00    +0.040 A 
ATOM     10  C   LIG    1       -0.017   1.410   0.010  0.00  0.00    -0.060 A 
ATOM     11  C   LIG    1        0.002  -0.004   0.002  0.00  0.00    +0.100 A 
ATOM     12  C   LIG    1        1.188  -0.671  -0.013  0.00  0.00    +0.030 A 
ATOM     13  C   LIG    1        6.070   0.804  -0.050  0.00  0.00    +0.160 C 
ATOM     14  C   LIG    1        2.405   0.029  -0.021  0.00  0.00    -0.060 A 
ENDROOT
BRANCH   3  15
ATOM     15  C   LIG    1        4.173   3.160  -0.019  0.00  0.00    +0.040 A 
ATOM     16  C   LIG    1        3.897   3.981  -1.104  0.00  0.00    +0.080 A 
ATOM     17  C   LIG    1        4.316   5.297  -1.099  0.00  0.00    -0.060 A 
ATOM     18  C   LIG    1        5.023   5.796  -0.012  0.00  0.00    +0.240 A 
ATOM     19  C   LIG    1        5.304   4.972   1.071  0.00  0.00    -0.060 A 
ATOM     20  C   LIG    1        4.880   3.659   1.067  0.00  0.00    +0.080 A 
BRANCH  18  21
ATOM     21  N   LIG    1        5.452   7.127  -0.008  0.00  0.00    -0.620 N 
BRANCH  21  22
ATOM     22  C   LIG    1        6.197   7.653   1.138  0.00  0.00    +0.270 C 
ATOM     23  C   LIG    1        7.695   7.439   0.914  0.00  0.00    +0.020 C 
ENDBRANCH  21  22
BRANCH  21  24
ATOM     24  C   LIG    1        5.155   7.995  -1.151  0.00  0.00    +0.270 C 
ATOM     25  C   LIG    1        3.813   8.694  -0.925  0.00  0.00    +0.020 C 
ENDBRANCH  21  24
ENDBRANCH  18  21
ENDBRANCH   3  15
BRANCH   1  26
ATOM     26  C   LIG    1        4.321  -1.774  -0.048  0.00  0.00    +0.550 C 
ATOM     27  O   LIG    1        4.519  -2.339  -1.106  0.00  0.00    -0.500 OA
BRANCH  26  28
ATOM     28  O   LIG    1        4.563  -2.413   1.114  0.00  0.00    -0.350 OA
BRANCH  28  30
ATOM     29  C   LIG    1        5.273  -4.331   2.436  0.00  0.00    +0.070 C 
ATOM     30  C   LIG    1        5.059  -3.775   1.027  0.00  0.00    +0.200 C 
ENDBRANCH  28  30
ENDBRANCH  26  28
ENDBRANCH   1  26
BRANCH  11  31
ATOM     31  O   LIG    1       -1.166  -0.698   0.009  0.00  0.00    -0.490 OA
ATOM     32  H   LIG    1       -1.513  -0.894  -0.872  0.00  0.00    +0.390 HD
ENDBRANCH  11  31
TORSDOF 8
