REMARK  Name = ZINCpk00000e9Ngw.0
REMARK                            x       y       z     vdW  Elec       q    Type
REMARK                         _______ _______ _______ _____ _____    ______ ____
ROOT
ATOM      1  C   LIG    1       -1.205  -0.792  -0.178  0.00  0.00    +0.510 C 
ATOM      2  O   LIG    1       -2.273  -0.215  -0.216  0.00  0.00    -0.500 OA
ENDROOT
BRANCH   1   3
ATOM      3  C   LIG    1        0.051  -0.018  -0.107  0.00  0.00    -0.110 A 
ATOM      4  C   LIG    1        1.280  -0.679  -0.063  0.00  0.00    +0.090 A 
ATOM      5  C   LIG    1        2.452   0.047   0.004  0.00  0.00    +0.030 A 
ATOM      6  C   LIG    1        2.414   1.429   0.028  0.00  0.00    +0.060 A 
ATOM      7  C   LIG    1        1.196   2.097  -0.015  0.00  0.00    +0.130 A 
ATOM      8  C   LIG    1        0.013   1.377  -0.083  0.00  0.00    +0.080 A 
BRANCH   7   9
ATOM      9  N   LIG    1        1.163   3.493   0.009  0.00  0.00    -1.060 N 
ATOM     10  H   LIG    1        0.599   3.976  -0.615  0.00  0.00    +0.430 HD
BRANCH   9  11
ATOM     11  S   LIG    1        2.088   4.324   1.103  0.00  0.00    +2.610 S 
ATOM     12  O   LIG    1        1.754   5.687   0.880  0.00  0.00    -0.950 OA
ATOM     13  O   LIG    1        3.408   3.847   0.881  0.00  0.00    -0.950 OA
ATOM     14  C   LIG    1        1.477   3.776   2.721  0.00  0.00    -0.270 C 
ENDBRANCH   9  11
ENDBRANCH   7   9
ENDBRANCH   1   3
BRANCH   1  15
ATOM     15  O   LIG    1       -1.166  -2.139  -0.202  0.00  0.00    -0.330 OA
BRANCH  15  16
ATOM     16  C   LIG    1       -2.438  -2.834  -0.273  0.00  0.00    +0.260 C 
BRANCH  16  19
ATOM     17  C   LIG    1       -4.609  -4.652  -0.405  0.00  0.00    +0.290 C 
ATOM     18  N   LIG    1       -3.241  -5.173  -0.353  0.00  0.00    -0.610 N 
ATOM     19  C   LIG    1       -2.197  -4.322  -0.289  0.00  0.00    +0.520 C 
ATOM     20  O   LIG    1       -1.065  -4.753  -0.246  0.00  0.00    -0.500 OA
BRANCH  18  21
ATOM     21  C   LIG    1       -3.006  -6.619  -0.369  0.00  0.00    +0.430 C 
BRANCH  21  22
ATOM     22  C   LIG    1       -2.991  -7.141   1.044  0.00  0.00    -0.040 A 
ATOM     23  C   LIG    1       -4.059  -7.588   1.730  0.00  0.00    -0.040 A 
ATOM     24  C   LIG    1       -3.592  -7.978   3.006  0.00  0.00    -0.070 A 
ATOM     25  C   LIG    1       -2.267  -7.747   3.024  0.00  0.00    +0.170 A 
ATOM     26  O   LIG    1       -1.907  -7.245   1.831  0.00  0.00    -0.160 OA
ENDBRANCH  21  22
ENDBRANCH  18  21
ENDBRANCH  16  19
ENDBRANCH  15  16
ENDBRANCH   1  15
TORSDOF 8
