REMARK  Name = ZINCrH000004rkKy.0
REMARK                            x       y       z     vdW  Elec       q    Type
REMARK                         _______ _______ _______ _____ _____    ______ ____
ROOT
ATOM      1  N   LIG    1       -3.002  -4.454  -1.288  0.00  0.00    -0.560 N 
ATOM      2  C   LIG    1       -3.249  -3.143  -1.465  0.00  0.00    +0.710 C 
ATOM      3  N   LIG    1       -3.430  -2.497  -0.308  0.00  0.00    -0.560 N 
ATOM      4  C   LIG    1       -3.327  -3.328   0.748  0.00  0.00    +0.530 C 
ATOM      5  O   LIG    1       -3.444  -3.042   1.920  0.00  0.00    -0.450 OA
ATOM      6  O   LIG    1       -3.299  -2.606  -2.554  0.00  0.00    -0.520 OA
ATOM      7  C   LIG    1       -3.033  -4.696   0.164  0.00  0.00    +0.230 C 
ATOM      8  C   LIG    1       -4.146  -5.684   0.522  0.00  0.00    +0.090 C 
ENDROOT
BRANCH   1  13
ATOM      9  C   LIG    1       -2.042  -8.300  -5.347  0.00  0.00    +0.100 C 
ATOM     10  C   LIG    1       -2.297  -7.279  -4.269  0.00  0.00    -0.110 A 
ATOM     11  C   LIG    1       -2.534  -5.960  -4.610  0.00  0.00    +0.040 A 
ATOM     12  C   LIG    1       -2.768  -5.021  -3.624  0.00  0.00    +0.000 A 
ATOM     13  C   LIG    1       -2.766  -5.403  -2.289  0.00  0.00    +0.180 A 
ATOM     14  C   LIG    1       -2.523  -6.727  -1.949  0.00  0.00    -0.020 A 
ATOM     15  C   LIG    1       -2.295  -7.662  -2.940  0.00  0.00    +0.040 A 
ENDBRANCH   1  13
BRANCH   3  16
ATOM     16  C   LIG    1       -3.711  -1.063  -0.202  0.00  0.00    +0.370 C 
BRANCH  16  17
ATOM     17  C   LIG    1       -2.414  -0.303  -0.090  0.00  0.00    +0.500 C 
ATOM     18  N   LIG    1       -2.428   1.040   0.019  0.00  0.00    -0.660 N 
ATOM     19  H   LIG    1       -3.271   1.511   0.107  0.00  0.00    +0.420 HD
ATOM     20  O   LIG    1       -1.359  -0.901  -0.098  0.00  0.00    -0.500 OA
BRANCH  18  21
ATOM     21  C   LIG    1       -1.224   1.755   0.006  0.00  0.00    +0.150 A 
ATOM     22  C   LIG    1       -0.102   1.218  -0.610  0.00  0.00    +0.040 A 
ATOM     23  C   LIG    1        1.082   1.928  -0.626  0.00  0.00    +0.040 A 
ATOM     24  C   LIG    1        1.153   3.171  -0.025  0.00  0.00    -0.090 A 
ATOM     25  C   LIG    1        0.040   3.708   0.595  0.00  0.00    +0.050 A 
ATOM     26  C   LIG    1        2.447   3.943  -0.044  0.00  0.00    +0.100 C 
ATOM     27  C   LIG    1       -1.148   3.002   0.616  0.00  0.00    -0.060 A 
ATOM     28 CL   LIG    1       -2.546   3.675   1.394  0.00  0.00    -0.060 Cl
ENDBRANCH  18  21
ENDBRANCH  16  17
ENDBRANCH   3  16
TORSDOF 4
