REMARK  Name = ZINCpk000005OSwA.0
REMARK                            x       y       z     vdW  Elec       q    Type
REMARK                         _______ _______ _______ _____ _____    ______ ____
ROOT
ATOM      1  C   LIG    1       -4.329   7.400   0.205  0.00  0.00    +0.560 C 
ATOM      2  N   LIG    1       -4.066   6.079   0.175  0.00  0.00    -0.720 N 
ATOM      3  H   LIG    1       -4.791   5.438   0.239  0.00  0.00    +0.400 HD
ATOM      4  O   LIG    1       -3.420   8.203   0.124  0.00  0.00    -0.500 OA
ENDROOT
BRANCH   1   9
ATOM      5  C   LIG    1       -5.532  12.842   0.340  0.00  0.00    +0.240 C 
ATOM      6  C   LIG    1       -6.008  11.413   0.378  0.00  0.00    +0.250 A 
ATOM      7  N   LIG    1       -5.236  10.369   0.302  0.00  0.00    -0.460 NA
ATOM      8  C   LIG    1       -6.002   9.252   0.367  0.00  0.00    +0.080 A 
ATOM      9  C   LIG    1       -5.720   7.872   0.335  0.00  0.00    -0.090 A 
ATOM     10  C   LIG    1       -6.767   6.957   0.422  0.00  0.00    +0.060 A 
ATOM     11  C   LIG    1       -8.070   7.401   0.548  0.00  0.00    +0.040 A 
ATOM     12  C   LIG    1       -8.354   8.753   0.581  0.00  0.00    +0.080 A 
ATOM     13  C   LIG    1       -7.331   9.683   0.491  0.00  0.00    -0.000 A 
ATOM     14  O   LIG    1       -7.290  11.034   0.494  0.00  0.00    -0.210 OA
ENDBRANCH   1   9
BRANCH   2  15
ATOM     15  C   LIG    1       -2.684   5.610   0.045  0.00  0.00    +0.250 C 
BRANCH  15  16
ATOM     16  C   LIG    1       -2.663   4.080   0.037  0.00  0.00    +0.210 C 
BRANCH  16  17
ATOM     17  O   LIG    1       -3.336   3.601  -1.129  0.00  0.00    -0.550 OA
ATOM     18  H   LIG    1       -2.940   3.896  -1.961  0.00  0.00    +0.380 HD
ENDBRANCH  16  17
BRANCH  16  19
ATOM     19  C   LIG    1       -1.214   3.590   0.027  0.00  0.00    +0.250 C 
BRANCH  19  20
ATOM     20  N   LIG    1       -1.194   2.125   0.019  0.00  0.00    -0.720 N 
ATOM     21  H   LIG    1       -2.027   1.628   0.021  0.00  0.00    +0.410 HD
ATOM     22  C   LIG    1       -0.018   1.467   0.010  0.00  0.00    +0.550 C 
ATOM     23  O   LIG    1        1.027   2.089   0.004  0.00  0.00    -0.540 OA
BRANCH  22  24
ATOM     24  C   LIG    1        0.002  -0.004   0.002  0.00  0.00    -0.080 C 
ATOM     25  C   LIG    1        1.163  -0.653  -0.013  0.00  0.00    -0.050 C 
ATOM     26  C   LIG    1        2.629  -0.275  -0.031  0.00  0.00    +0.080 C 
ATOM     27  C   LIG    1        2.900  -1.625  -0.708  0.00  0.00    +0.030 C 
ATOM     28  C   LIG    1        1.608  -2.100  -0.025  0.00  0.00    +0.070 C 
ENDBRANCH  22  24
ENDBRANCH  19  20
ENDBRANCH  16  19
ENDBRANCH  15  16
ENDBRANCH   2  15
TORSDOF 7
