REMARK  Name = ZINCAx0000000bqp.0
REMARK                            x       y       z     vdW  Elec       q    Type
REMARK                         _______ _______ _______ _____ _____    ______ ____
ROOT
ATOM      1  N   LIG    1       -2.427   3.666   0.362  0.00  0.00    -0.530 N 
ATOM      2  C   LIG    1       -2.591   4.997   0.215  0.00  0.00    +0.530 C 
ATOM      3  O   LIG    1       -1.694   5.672  -0.245  0.00  0.00    -0.490 OA
ENDROOT
BRANCH   1   9
ATOM      4  N   LIG    1        0.160   1.628  -1.267  0.00  0.00    -0.540 N 
ATOM      5  C   LIG    1        1.230   1.929  -0.508  0.00  0.00    +0.710 A 
ATOM      6  N   LIG    1        1.133   2.783   0.526  0.00  0.00    -0.660 N 
ATOM      7  H   LIG    1        1.919   2.984   1.058  0.00  0.00    +0.430 HD
ATOM      8  C   LIG    1       -0.045   3.359   0.835  0.00  0.00    +0.570 A 
ATOM      9  C   LIG    1       -1.184   3.071   0.060  0.00  0.00    -0.140 A 
ATOM     10  O   LIG    1       -0.123   4.128   1.778  0.00  0.00    -0.510 OA
ATOM     11  O   LIG    1        2.304   1.420  -0.763  0.00  0.00    -0.530 OA
ATOM     12  C   LIG    1       -1.065   2.192  -0.997  0.00  0.00    +0.480 A 
BRANCH  12  13
ATOM     13  N   LIG    1       -2.158   1.884  -1.772  0.00  0.00    -0.830 N 
ATOM     14  H   LIG    1       -3.027   2.254  -1.553  0.00  0.00    +0.420 HD
ATOM     15  H   LIG    1       -2.059   1.297  -2.537  0.00  0.00    +0.410 HD
ENDBRANCH  12  13
BRANCH   4  16
ATOM     16  C   LIG    1        0.301   0.694  -2.386  0.00  0.00    +0.300 C 
BRANCH  16  17
ATOM     17  C   LIG    1        0.037  -0.732  -1.897  0.00  0.00    +0.010 C 
BRANCH  17  19
ATOM     18  C   LIG    1       -0.081  -3.133  -2.577  0.00  0.00    +0.020 C 
ATOM     19  C   LIG    1        0.184  -1.708  -3.066  0.00  0.00    +0.020 C 
ENDBRANCH  17  19
ENDBRANCH  16  17
ENDBRANCH   4  16
ENDBRANCH   1   9
BRANCH   2  20
ATOM     20  C   LIG    1       -3.889   5.646   0.624  0.00  0.00    +0.010 C 
ATOM     21  C   LIG    1       -5.035   5.241  -0.331  0.00  0.00    +0.080 C 
ATOM     22  C   LIG    1       -5.059   6.340  -1.370  0.00  0.00    +0.520 C 
ATOM     23  N   LIG    1       -4.373   7.409  -0.928  0.00  0.00    -0.560 N 
ATOM     24  O   LIG    1       -5.616   6.269  -2.445  0.00  0.00    -0.520 OA
ATOM     25  C   LIG    1       -3.831   7.176   0.416  0.00  0.00    +0.300 C 
BRANCH  23  26
ATOM     26  C   LIG    1       -4.198   8.593  -1.657  0.00  0.00    +0.100 A 
ATOM     27  C   LIG    1       -5.116   9.626  -1.536  0.00  0.00    +0.060 A 
ATOM     28  C   LIG    1       -4.941  10.793  -2.256  0.00  0.00    -0.020 A 
ATOM     29  C   LIG    1       -3.853  10.934  -3.096  0.00  0.00    +0.060 A 
ATOM     30  C   LIG    1       -2.933   9.909  -3.222  0.00  0.00    -0.080 A 
ATOM     31  C   LIG    1       -3.099   8.738  -2.500  0.00  0.00    +0.150 A 
BRANCH  31  32
ATOM     32  O   LIG    1       -2.193   7.731  -2.618  0.00  0.00    -0.290 OA
BRANCH  32  33
ATOM     33  C   LIG    1       -1.091   7.949  -3.501  0.00  0.00    +0.180 C 
ATOM     34  C   LIG    1       -0.186   6.716  -3.503  0.00  0.00    +0.050 C 
ENDBRANCH  32  33
ENDBRANCH  31  32
ENDBRANCH  23  26
ENDBRANCH   2  20
BRANCH   1  35
ATOM     35  C   LIG    1       -3.540   2.839   0.834  0.00  0.00    +0.260 C 
BRANCH  35  36
ATOM     36  C   LIG    1       -3.578   2.860   2.364  0.00  0.00    +0.010 C 
BRANCH  36  37
ATOM     37  C   LIG    1       -4.740   1.996   2.857  0.00  0.00    -0.020 C 
ATOM     38  C   LIG    1       -4.855   2.116   4.378  0.00  0.00    +0.020 C 
ATOM     39  C   LIG    1       -4.486   0.535   2.479  0.00  0.00    +0.010 C 
ENDBRANCH  36  37
ENDBRANCH  35  36
ENDBRANCH   1  35
TORSDOF 12
