REMARK  Name = ZINCrH000004slFD.0
REMARK                            x       y       z     vdW  Elec       q    Type
REMARK                         _______ _______ _______ _____ _____    ______ ____
ROOT
ATOM      1  C   LIG    1       -0.427   1.367  -2.460  0.00  0.00    +0.620 C 
ATOM      2  N   LIG    1       -0.740   1.581  -1.167  0.00  0.00    -0.620 N 
ATOM      3  C   LIG    1       -0.013   1.086   0.008  0.00  0.00    +0.330 C 
ATOM      4  C   LIG    1       -0.737   1.581   1.234  0.00  0.00    -0.260 A 
ATOM      5  C   LIG    1       -1.810   2.310   0.853  0.00  0.00    +0.060 A 
ATOM      6  N   LIG    1       -2.438   2.738   1.974  0.00  0.00    -0.290 N 
ATOM      7  N   LIG    1       -1.724   2.253   3.078  0.00  0.00    -0.270 NA
ATOM      8  C   LIG    1       -0.707   1.560   2.634  0.00  0.00    +0.300 A 
ATOM      9  C   LIG    1       -1.876   2.354  -0.652  0.00  0.00    +0.380 C 
ATOM     10  O   LIG    1       -1.121   1.840  -3.340  0.00  0.00    -0.510 OA
ENDROOT
BRANCH   1  15
ATOM     11  C   LIG    1        2.339  -0.518  -3.945  0.00  0.00    -0.120 A 
ATOM     12  C   LIG    1        2.580  -0.682  -2.611  0.00  0.00    +0.240 A 
ATOM     13  N   LIG    1        1.618  -0.027  -1.916  0.00  0.00    -0.540 N 
ATOM     14  H   LIG    1        1.552   0.019  -0.949  0.00  0.00    +0.420 HD
ATOM     15  C   LIG    1        0.751   0.565  -2.807  0.00  0.00    -0.050 A 
ATOM     16  C   LIG    1        1.178   0.267  -4.071  0.00  0.00    +0.100 A 
BRANCH  11  20
ATOM     17  C   LIG    1        3.574  -1.135  -8.696  0.00  0.00    +0.180 C 
ATOM     18  C   LIG    1        3.688  -1.334  -7.207  0.00  0.00    +0.060 A 
ATOM     19  N   LIG    1        2.912  -0.792  -6.331  0.00  0.00    -0.470 NA
ATOM     20  C   LIG    1        3.150  -1.072  -5.059  0.00  0.00    +0.150 A 
ATOM     21  C   LIG    1        4.196  -1.898  -4.863  0.00  0.00    -0.090 A 
ATOM     22  S   LIG    1        4.864  -2.310  -6.441  0.00  0.00    +0.120 S 
ENDBRANCH  11  20
ENDBRANCH   1  15
BRANCH   6  23
ATOM     23  C   LIG    1       -3.595   3.528   2.022  0.00  0.00    +0.140 A 
ATOM     24  C   LIG    1       -3.806   4.511   1.065  0.00  0.00    +0.000 A 
ATOM     25  C   LIG    1       -4.950   5.284   1.112  0.00  0.00    +0.040 A 
ATOM     26  C   LIG    1       -5.879   5.086   2.117  0.00  0.00    +0.010 A 
ATOM     27  C   LIG    1       -5.669   4.111   3.074  0.00  0.00    +0.040 A 
ATOM     28  C   LIG    1       -4.530   3.331   3.030  0.00  0.00    +0.020 A 
ENDBRANCH   6  23
TORSDOF 3
