REMARK  Name = ZINCvU00000003Wa.0
REMARK                            x       y       z     vdW  Elec       q    Type
REMARK                         _______ _______ _______ _____ _____    ______ ____
ROOT
ATOM      1  C   LIG    1       -3.511   2.779  -3.980  0.00  0.00    +0.410 A 
ATOM      2  N   LIG    1       -4.428   1.892  -4.322  0.00  0.00    -0.540 NA
ATOM      3  C   LIG    1       -5.102   1.217  -3.381  0.00  0.00    +0.190 A 
ATOM      4  C   LIG    1       -6.082   0.269  -3.708  0.00  0.00    +0.030 A 
ATOM      5  C   LIG    1       -6.739  -0.391  -2.712  0.00  0.00    +0.060 A 
ATOM      6  C   LIG    1       -6.453  -0.138  -1.374  0.00  0.00    +0.000 A 
ATOM      7  C   LIG    1       -5.505   0.778  -1.021  0.00  0.00    +0.050 A 
ATOM      8  C   LIG    1       -4.808   1.468  -2.018  0.00  0.00    -0.200 A 
ATOM      9  C   LIG    1       -3.818   2.435  -1.710  0.00  0.00    +0.480 A 
ATOM     10  N   LIG    1       -3.208   3.049  -2.712  0.00  0.00    -0.580 NA
ENDROOT
BRANCH   1  15
ATOM     11  C   LIG    1       -2.404   3.924  -7.389  0.00  0.00    +0.120 A 
ATOM     12  C   LIG    1       -1.435   4.861  -7.056  0.00  0.00    -0.060 A 
ATOM     13  C   LIG    1       -1.144   5.118  -5.729  0.00  0.00    +0.040 A 
ATOM     14  C   LIG    1       -1.819   4.450  -4.728  0.00  0.00    +0.030 A 
ATOM     15  C   LIG    1       -2.789   3.503  -5.054  0.00  0.00    -0.010 A 
ATOM     16  C   LIG    1       -3.082   3.244  -6.391  0.00  0.00    +0.050 A 
BRANCH  11  18
ATOM     17  C   LIG    1       -1.949   4.412  -9.671  0.00  0.00    +0.250 C 
ATOM     18  O   LIG    1       -2.687   3.674  -8.695  0.00  0.00    -0.320 OA
ENDBRANCH  11  18
ENDBRANCH   1  15
BRANCH   9  19
ATOM     19  N   LIG    1       -3.495   2.724  -0.402  0.00  0.00    -0.690 N 
ATOM     20  H   LIG    1       -3.950   2.267   0.323  0.00  0.00    +0.410 HD
BRANCH  19  21
ATOM     21  C   LIG    1       -2.465   3.723  -0.105  0.00  0.00    +0.300 C 
ATOM     22  C   LIG    1       -2.703   4.314   1.288  0.00  0.00    +0.020 C 
ATOM     23  C   LIG    1       -2.054   5.680   1.407  0.00  0.00    +0.000 C 
ATOM     24  C   LIG    1       -0.538   5.647   1.358  0.00  0.00    +0.210 C 
ATOM     25  N   LIG    1       -0.060   5.243   0.030  0.00  0.00    -0.490 N 
ATOM     26  C   LIG    1        0.036   3.845  -0.048  0.00  0.00    +0.090 A 
ATOM     27  C   LIG    1        1.291   3.246  -0.057  0.00  0.00    +0.040 A 
ATOM     28  C   LIG    1        1.389   1.869  -0.132  0.00  0.00    +0.000 A 
ATOM     29  C   LIG    1        0.247   1.093  -0.198  0.00  0.00    +0.000 A 
ATOM     30  C   LIG    1       -1.001   1.691  -0.194  0.00  0.00    +0.020 A 
ATOM     31  C   LIG    1       -0.933   5.770  -1.027  0.00  0.00    +0.190 C 
ATOM     32  C   LIG    1       -1.099   3.067  -0.114  0.00  0.00    -0.120 A 
ENDBRANCH  19  21
ENDBRANCH   9  19
TORSDOF 4
