REMARK  Name = ZINCrD00000l8pVW.0
REMARK                            x       y       z     vdW  Elec       q    Type
REMARK                         _______ _______ _______ _____ _____    ______ ____
ROOT
ATOM      1  N   LIG    1       -1.729  -1.022  -1.366  0.00  0.00    -0.680 NA
ATOM      2  H   LIG    1       -1.012  -1.497  -1.894  0.00  0.00    +0.350 HD
ENDROOT
BRANCH   1   3
ATOM      3  C   LIG    1       -1.291  -0.778   0.015  0.00  0.00    +0.250 C 
BRANCH   3   9
ATOM      4  C   LIG    1        4.739   0.982  -1.988  0.00  0.00    +0.050 C 
ATOM      5  C   LIG    1        4.562   0.907  -0.470  0.00  0.00    +0.100 C 
ATOM      6  C   LIG    1        3.844  -0.403  -0.066  0.00  0.00    +0.080 C 
ATOM      7  C   LIG    1        2.392   0.035  -0.028  0.00  0.00    -0.170 A 
ATOM      8  C   LIG    1        1.212  -0.675  -0.017  0.00  0.00    +0.060 A 
ATOM      9  C   LIG    1        0.002  -0.004   0.002  0.00  0.00    -0.120 A 
ATOM     10  C   LIG    1       -0.017   1.378   0.010  0.00  0.00    +0.070 A 
ATOM     11  C   LIG    1        1.164   2.091   0.002  0.00  0.00    -0.010 A 
ATOM     12  C   LIG    1        2.386   1.424  -0.013  0.00  0.00    +0.110 A 
ATOM     13  C   LIG    1        5.913   1.029   0.238  0.00  0.00    +0.080 C 
ATOM     14  O   LIG    1        3.653   1.923  -0.012  0.00  0.00    -0.300 OA
ENDBRANCH   3   9
ENDBRANCH   1   3
BRANCH   1  15
ATOM     15  C   LIG    1       -2.990  -1.776  -1.393  0.00  0.00    +0.320 C 
BRANCH  15  16
ATOM     16  C   LIG    1       -3.406  -2.007  -2.823  0.00  0.00    +0.200 A 
ATOM     17  N   LIG    1       -3.082  -3.030  -3.574  0.00  0.00    -0.290 NA
ATOM     18  N   LIG    1       -3.607  -2.901  -4.746  0.00  0.00    -0.280 NA
ATOM     19  C   LIG    1       -4.282  -1.800  -4.802  0.00  0.00    +0.180 A 
ATOM     20  C   LIG    1       -5.056  -1.178  -5.934  0.00  0.00    +0.180 C 
ATOM     21  C   LIG    1       -6.227  -0.378  -5.350  0.00  0.00    +0.110 C 
ATOM     22  C   LIG    1       -5.793   0.463  -4.180  0.00  0.00    -0.090 A 
ATOM     23  C   LIG    1       -6.397   1.686  -3.955  0.00  0.00    +0.040 A 
ATOM     24  C   LIG    1       -6.050   2.443  -2.852  0.00  0.00    +0.020 A 
ATOM     25  C   LIG    1       -5.095   1.984  -1.964  0.00  0.00    +0.040 A 
ATOM     26  C   LIG    1       -4.474   0.768  -2.187  0.00  0.00    +0.030 A 
ATOM     27  C   LIG    1       -4.814   0.016  -3.297  0.00  0.00    +0.130 A 
ATOM     28  N   LIG    1       -4.188  -1.203  -3.569  0.00  0.00    -0.420 N 
ENDBRANCH  15  16
ENDBRANCH   1  15
TORSDOF 4
