REMARK  Name = ZINCpe00000MJK8k.0
REMARK                            x       y       z     vdW  Elec       q    Type
REMARK                         _______ _______ _______ _____ _____    ______ ____
ROOT
ATOM      1  C   LIG    1       -1.540   3.210  -0.836  0.00  0.00    +0.160 C 
ATOM      2  C   LIG    1       -1.918   2.492   0.478  0.00  0.00    +0.250 C 
ATOM      3  N   LIG    1       -0.622   2.051   1.051  0.00  0.00    -0.610 N 
ATOM      4  C   LIG    1        0.160   1.599  -0.123  0.00  0.00    +0.300 C 
ATOM      5  C   LIG    1       -0.241   2.062   2.344  0.00  0.00    +0.590 C 
ATOM      6  O   LIG    1        0.843   1.611   2.662  0.00  0.00    -0.530 OA
ATOM      7  C   LIG    1       -0.170   2.621  -1.232  0.00  0.00    +0.110 C 
ENDROOT
BRANCH   5   8
ATOM      8  C   LIG    1       -1.139   2.620   3.374  0.00  0.00    -0.130 A 
ATOM      9  C   LIG    1       -2.523   2.562   3.202  0.00  0.00    +0.050 A 
ATOM     10  C   LIG    1       -3.359   3.085   4.164  0.00  0.00    +0.020 A 
ATOM     11  C   LIG    1       -2.830   3.671   5.308  0.00  0.00    +0.080 A 
ATOM     12  O   LIG    1       -3.673   4.186   6.242  0.00  0.00    -0.300 OA
ATOM     13  C   LIG    1       -3.125   4.428   7.542  0.00  0.00    +0.230 C 
ATOM     14  C   LIG    1       -1.778   5.144   7.370  0.00  0.00    +0.230 C 
ATOM     15  O   LIG    1       -0.915   4.296   6.604  0.00  0.00    -0.300 OA
ATOM     16  C   LIG    1       -1.449   3.730   5.487  0.00  0.00    +0.050 A 
ATOM     17  C   LIG    1       -0.606   3.204   4.526  0.00  0.00    +0.100 A 
ENDBRANCH   5   8
BRANCH   7  18
ATOM     18  C   LIG    1       -0.263   1.933  -2.569  0.00  0.00    -0.010 A 
ATOM     19  C   LIG    1       -0.708   0.676  -2.804  0.00  0.00    +0.140 A 
ATOM     20  N   LIG    1       -0.615   0.487  -4.141  0.00  0.00    -0.290 N 
ATOM     21  N   LIG    1       -0.137   1.560  -4.667  0.00  0.00    -0.080 NA
ATOM     22  C   LIG    1       -0.989  -0.731  -4.863  0.00  0.00    +0.370 C 
ATOM     23  N   LIG    1        0.084   2.441  -3.757  0.00  0.00    -0.260 NA
ENDBRANCH   7  18
BRANCH   1  25
ATOM     24  C   LIG    1       -2.626   5.346  -0.916  0.00  0.00    +0.200 C 
ATOM     25  O   LIG    1       -1.432   4.619  -0.620  0.00  0.00    -0.370 OA
ENDBRANCH   1  25
TORSDOF 3
