REMARK  Name = ZINCvU000000044J.0
REMARK                            x       y       z     vdW  Elec       q    Type
REMARK                         _______ _______ _______ _____ _____    ______ ____
ROOT
ATOM      1  N   LIG    1        1.237  -2.082  -0.021  0.00  0.00    -0.410 N 
ATOM      2  C   LIG    1        1.234  -2.903  -1.116  0.00  0.00    +0.160 A 
ATOM      3  N   LIG    1        1.264  -4.141  -0.673  0.00  0.00    -0.290 NA
ATOM      4  N   LIG    1        1.276  -4.151   0.611  0.00  0.00    -0.260 NA
ATOM      5  C   LIG    1        1.260  -2.921   1.071  0.00  0.00    +0.230 A 
ENDROOT
BRANCH   1  11
ATOM      6  C   LIG    1        3.671   2.192  -0.022  0.00  0.00    +0.100 C 
ATOM      7  C   LIG    1        2.380   1.415  -0.013  0.00  0.00    -0.080 A 
ATOM      8  C   LIG    1        1.171   2.086   0.002  0.00  0.00    +0.050 A 
ATOM      9  C   LIG    1       -0.017   1.377   0.010  0.00  0.00    +0.040 A 
ATOM     10  C   LIG    1        0.002  -0.004   0.002  0.00  0.00    -0.060 A 
ATOM     11  C   LIG    1        1.215  -0.680  -0.013  0.00  0.00    +0.090 A 
ATOM     12  C   LIG    1       -1.292  -0.776   0.011  0.00  0.00    +0.100 C 
ATOM     13  C   LIG    1        2.405   0.034  -0.021  0.00  0.00    +0.030 A 
ENDBRANCH   1  11
BRANCH   5  14
ATOM     14  C   LIG    1        1.267  -2.514   2.492  0.00  0.00    -0.010 A 
ATOM     15  C   LIG    1        0.979  -3.447   3.490  0.00  0.00    +0.070 A 
ATOM     16  C   LIG    1        0.988  -3.061   4.814  0.00  0.00    +0.040 A 
ATOM     17  C   LIG    1        1.282  -1.753   5.155  0.00  0.00    +0.050 A 
ATOM     18  C   LIG    1        1.569  -0.822   4.171  0.00  0.00    -0.030 A 
ATOM     19 CL   LIG    1        1.937   0.817   4.609  0.00  0.00    -0.060 Cl
ATOM     20  C   LIG    1        1.568  -1.197   2.842  0.00  0.00    +0.040 A 
ENDBRANCH   5  14
BRANCH   2  21
ATOM     21  S   LIG    1        1.200  -2.396  -2.803  0.00  0.00    +0.100 S 
BRANCH  21  22
ATOM     22  C   LIG    1        1.214  -4.013  -3.617  0.00  0.00    +0.110 C 
BRANCH  22  23
ATOM     23  C   LIG    1        1.189  -3.823  -5.112  0.00  0.00    +0.540 C 
ATOM     24  N   LIG    1        1.194  -4.895  -5.928  0.00  0.00    -0.720 N 
ATOM     25  H   LIG    1        1.214  -5.790  -5.553  0.00  0.00    +0.410 HD
ATOM     26  O   LIG    1        1.164  -2.704  -5.580  0.00  0.00    -0.520 OA
BRANCH  24  27
ATOM     27  C   LIG    1        1.169  -4.711  -7.381  0.00  0.00    +0.400 C 
BRANCH  27  28
ATOM     28  C   LIG    1        1.181  -6.056  -8.059  0.00  0.00    -0.050 A 
ATOM     29  C   LIG    1        0.097  -6.779  -8.391  0.00  0.00    -0.030 A 
ATOM     30  C   LIG    1        0.566  -7.964  -9.004  0.00  0.00    -0.070 A 
ATOM     31  C   LIG    1        1.909  -7.898  -9.002  0.00  0.00    +0.190 A 
ATOM     32  O   LIG    1        2.276  -6.740  -8.428  0.00  0.00    -0.170 OA
ENDBRANCH  27  28
ENDBRANCH  24  27
ENDBRANCH  22  23
ENDBRANCH  21  22
ENDBRANCH   2  21
TORSDOF 7
