REMARK  Name = ZINCpk00000jFn1l.0
REMARK                            x       y       z     vdW  Elec       q    Type
REMARK                         _______ _______ _______ _____ _____    ______ ____
ROOT
ATOM      1  C   LIG    1        0.002  -0.004   0.002  0.00  0.00    -0.050 A 
ATOM      2  C   LIG    1       -1.089  -0.827   0.008  0.00  0.00    +0.250 A 
ATOM      3  N   LIG    1       -0.623  -2.092  -0.004  0.00  0.00    -0.450 N 
ATOM      4  C   LIG    1       -1.407  -3.331  -0.005  0.00  0.00    +0.280 C 
ATOM      5  C   LIG    1       -0.502  -4.486  -0.448  0.00  0.00    +0.250 C 
ATOM      6  C   LIG    1        0.788  -4.471   0.376  0.00  0.00    +0.040 C 
ATOM      7  C   LIG    1        1.632  -3.255  -0.028  0.00  0.00    +0.180 C 
ATOM      8  C   LIG    1        0.739  -2.036  -0.015  0.00  0.00    +0.210 A 
ATOM      9  N   LIG    1        1.109  -0.792  -0.019  0.00  0.00    -0.430 NA
ENDROOT
BRANCH   5  10
ATOM     10  N   LIG    1       -1.199  -5.758  -0.241  0.00  0.00    -0.720 N 
ATOM     11  H   LIG    1       -1.053  -6.264   0.574  0.00  0.00    +0.400 HD
ATOM     12  C   LIG    1       -2.042  -6.226  -1.183  0.00  0.00    +0.610 C 
ATOM     13  O   LIG    1       -2.225  -5.591  -2.205  0.00  0.00    -0.520 OA
BRANCH  12  14
ATOM     14  C   LIG    1       -2.737  -7.495  -0.976  0.00  0.00    -0.360 A 
ATOM     15  C   LIG    1       -3.619  -8.081  -1.841  0.00  0.00    +0.220 A 
ATOM     16  N   LIG    1       -4.101  -9.223  -1.419  0.00  0.00    -0.550 NA
ATOM     17  C   LIG    1       -3.700  -9.645  -0.254  0.00  0.00    +0.340 A 
ATOM     18  S   LIG    1       -2.593  -8.540   0.435  0.00  0.00    +0.130 S 
BRANCH  17  19
ATOM     19  N   LIG    1       -4.111 -10.819   0.340  0.00  0.00    -0.800 N 
ATOM     20  H   LIG    1       -4.745 -11.396  -0.114  0.00  0.00    +0.420 HD
ATOM     21  H   LIG    1       -3.768 -11.067   1.213  0.00  0.00    +0.420 HD
ENDBRANCH  17  19
BRANCH  15  22
ATOM     22  C   LIG    1       -3.999  -7.469  -3.165  0.00  0.00    +0.130 C 
ATOM     23  C   LIG    1       -3.038  -7.962  -4.249  0.00  0.00    +0.040 C 
ENDBRANCH  15  22
ENDBRANCH  12  14
ENDBRANCH   5  10
BRANCH   1  24
ATOM     24  C   LIG    1       -0.018   1.468   0.010  0.00  0.00    +0.560 C 
ATOM     25  O   LIG    1       -1.079   2.061   0.018  0.00  0.00    -0.510 OA
BRANCH  24  26
ATOM     26  O   LIG    1        1.140   2.157   0.003  0.00  0.00    -0.340 OA
BRANCH  26  28
ATOM     27  C   LIG    1        2.450   4.210   0.001  0.00  0.00    +0.070 C 
ATOM     28  C   LIG    1        1.044   3.606   0.011  0.00  0.00    +0.200 C 
ENDBRANCH  26  28
ENDBRANCH  24  26
ENDBRANCH   1  24
TORSDOF 7
