REMARK  Name = ZINCqH0000008ys2.0
REMARK                            x       y       z     vdW  Elec       q    Type
REMARK                         _______ _______ _______ _____ _____    ______ ____
ROOT
ATOM      1  C   LIG    1       -1.562  -3.412  -2.859  0.00  0.00    +0.000 C 
ATOM      2  C   LIG    1       -1.654  -4.717  -2.064  0.00  0.00    +0.030 C 
ATOM      3  C   LIG    1       -1.473  -5.901  -3.018  0.00  0.00    +0.040 C 
ATOM      4  C   LIG    1       -2.538  -5.833  -4.115  0.00  0.00    +0.200 C 
ATOM      5  N   LIG    1       -2.408  -4.566  -4.847  0.00  0.00    -0.470 N 
ATOM      6  C   LIG    1       -2.625  -3.416  -3.961  0.00  0.00    +0.260 C 
ENDROOT
BRANCH   5   7
ATOM      7  C   LIG    1       -3.270  -4.528  -5.928  0.00  0.00    +0.410 A 
ATOM      8  C   LIG    1       -3.234  -5.547  -6.915  0.00  0.00    -0.200 A 
ATOM      9  C   LIG    1       -2.395  -6.725  -7.021  0.00  0.00    +0.060 A 
ATOM     10  C   LIG    1       -2.625  -7.475  -8.081  0.00  0.00    -0.020 A 
ATOM     11  S   LIG    1       -3.909  -6.807  -9.071  0.00  0.00    +0.170 S 
ATOM     12  C   LIG    1       -4.133  -5.447  -7.981  0.00  0.00    +0.100 A 
ATOM     13  N   LIG    1       -4.978  -4.409  -8.025  0.00  0.00    -0.510 NA
ATOM     14  C   LIG    1       -4.972  -3.491  -7.086  0.00  0.00    +0.550 A 
ATOM     15  N   LIG    1       -4.147  -3.543  -6.056  0.00  0.00    -0.560 NA
ENDBRANCH   5   7
BRANCH   1  17
ATOM     16  N   LIG    1       -0.979  -2.038  -0.887  0.00  0.00    -0.610 N 
ATOM     17  C   LIG    1       -1.798  -2.243  -1.937  0.00  0.00    +0.530 C 
ATOM     18  O   LIG    1       -2.725  -1.488  -2.141  0.00  0.00    -0.530 OA
ATOM     19  C   LIG    1        0.140  -2.951  -0.641  0.00  0.00    +0.290 C 
BRANCH  16  21
ATOM     20  C   LIG    1       -1.454  -1.415   1.430  0.00  0.00    +0.050 C 
ATOM     21  C   LIG    1       -1.208  -0.902   0.009  0.00  0.00    +0.350 C 
BRANCH  21  22
ATOM     22  C   LIG    1        0.002  -0.004   0.002  0.00  0.00    -0.030 A 
ATOM     23  C   LIG    1       -0.016   1.341   0.009  0.00  0.00    -0.050 A 
ATOM     24  C   LIG    1        1.331   1.769  -0.001  0.00  0.00    -0.060 A 
ATOM     25  C   LIG    1        2.092   0.660  -0.014  0.00  0.00    +0.160 A 
ATOM     26  O   LIG    1        1.282  -0.411  -0.012  0.00  0.00    -0.170 OA
ENDBRANCH  21  22
ENDBRANCH  16  21
ENDBRANCH   1  17
TORSDOF 4
