REMARK  Name = ZINCqH0000007jEj.0
REMARK                            x       y       z     vdW  Elec       q    Type
REMARK                         _______ _______ _______ _____ _____    ______ ____
ROOT
ATOM      1  C   LIG    1       -2.691   2.297   2.068  0.00  0.00    +0.010 A 
ATOM      2  N   LIG    1       -1.748   2.289   2.991  0.00  0.00    -0.250 NA
ATOM      3  N   LIG    1       -0.679   1.751   2.524  0.00  0.00    -0.210 N 
ATOM      4  C   LIG    1       -0.871   1.368   1.235  0.00  0.00    -0.010 A 
ATOM      5  C   LIG    1       -0.189   0.714   0.055  0.00  0.00    +0.130 C 
ATOM      6  C   LIG    1       -1.062   1.075  -1.167  0.00  0.00    +0.060 C 
ATOM      7  C   LIG    1       -2.444   1.306  -0.516  0.00  0.00    +0.110 C 
ATOM      8  C   LIG    1       -2.142   1.699   0.910  0.00  0.00    -0.150 A 
ENDROOT
BRANCH   3   9
ATOM      9  C   LIG    1        0.514   1.583   3.241  0.00  0.00    +0.110 A 
ATOM     10  C   LIG    1        1.300   0.459   3.029  0.00  0.00    +0.060 A 
ATOM     11  C   LIG    1        2.477   0.297   3.733  0.00  0.00    +0.020 A 
ATOM     12  C   LIG    1        2.869   1.251   4.657  0.00  0.00    +0.110 A 
ATOM     13  C   LIG    1        2.084   2.372   4.873  0.00  0.00    +0.010 A 
ATOM     14  F   LIG    1        4.018   1.089   5.348  0.00  0.00    -0.130 F 
ATOM     15  C   LIG    1        0.908   2.539   4.168  0.00  0.00    +0.080 A 
ENDBRANCH   3   9
BRANCH   1  18
ATOM     16  N   LIG    1       -4.448   3.375   3.386  0.00  0.00    -0.660 N 
ATOM     17  H   LIG    1       -3.855   3.349   4.154  0.00  0.00    +0.420 HD
ATOM     18  C   LIG    1       -4.060   2.830   2.216  0.00  0.00    +0.610 C 
ATOM     19  O   LIG    1       -4.837   2.776   1.283  0.00  0.00    -0.510 OA
BRANCH  16  23
ATOM     20  C   LIG    1       -8.195   5.175   3.707  0.00  0.00    +0.110 A 
ATOM     21  C   LIG    1       -7.646   4.518   4.798  0.00  0.00    +0.010 A 
ATOM     22  C   LIG    1       -6.405   3.922   4.693  0.00  0.00    +0.030 A 
ATOM     23  C   LIG    1       -5.707   3.979   3.494  0.00  0.00    +0.110 A 
ATOM     24  C   LIG    1       -6.255   4.641   2.403  0.00  0.00    +0.060 A 
ATOM     25  C   LIG    1       -7.498   5.233   2.509  0.00  0.00    -0.060 A 
BRANCH  20  27
ATOM     26  C   LIG    1       -9.922   6.420   2.648  0.00  0.00    +0.250 C 
ATOM     27  O   LIG    1       -9.417   5.762   3.811  0.00  0.00    -0.320 OA
ENDBRANCH  20  27
ENDBRANCH  16  23
ENDBRANCH   1  18
TORSDOF 4
