REMARK  Name = ZINCvU00000007VQ.0
REMARK                            x       y       z     vdW  Elec       q    Type
REMARK                         _______ _______ _______ _____ _____    ______ ____
ROOT
ATOM      1  C   LIG    1        2.395  -2.742  -0.137  0.00  0.00    +0.600 C 
ATOM      2  N   LIG    1        1.225  -2.083  -0.020  0.00  0.00    -0.670 N 
ATOM      3  H   LIG    1        0.395  -2.579   0.053  0.00  0.00    +0.410 HD
ATOM      4  O   LIG    1        3.443  -2.124  -0.144  0.00  0.00    -0.530 OA
ENDROOT
BRANCH   2   5
ATOM      5  C   LIG    1        1.208  -0.683  -0.005  0.00  0.00    +0.160 A 
ATOM      6  C   LIG    1        0.154   0.009  -0.595  0.00  0.00    +0.020 A 
ATOM      7  C   LIG    1        0.129   1.381  -0.586  0.00  0.00    +0.090 A 
ATOM      8  C   LIG    1        1.171   2.113   0.022  0.00  0.00    +0.080 A 
ATOM      9  N   LIG    1        1.311   3.451   0.126  0.00  0.00    -0.500 NA
ATOM     10  C   LIG    1        2.356   3.901   0.731  0.00  0.00    +0.280 A 
ATOM     11  S   LIG    1        3.361   2.572   1.289  0.00  0.00    +0.090 S 
ATOM     12  C   LIG    1        2.224   1.409   0.612  0.00  0.00    -0.160 A 
ATOM     13  C   LIG    1        2.240   0.017   0.596  0.00  0.00    +0.080 A 
BRANCH  10  14
ATOM     14  N   LIG    1        2.642   5.239   0.918  0.00  0.00    -0.440 N 
ATOM     15  C   LIG    1        3.901   5.616   0.226  0.00  0.00    +0.200 C 
ATOM     16  C   LIG    1        3.783   7.155   0.089  0.00  0.00    +0.040 C 
ATOM     17  C   LIG    1        2.279   7.362  -0.203  0.00  0.00    +0.020 C 
ATOM     18  C   LIG    1        1.587   6.094   0.331  0.00  0.00    +0.210 C 
ENDBRANCH  10  14
ENDBRANCH   2   5
BRANCH   1  22
ATOM     19  C   LIG    1        0.893  -7.608  -0.444  0.00  0.00    +0.130 C 
ATOM     20  C   LIG    1        1.722  -6.351  -0.389  0.00  0.00    +0.010 A 
ATOM     21  C   LIG    1        1.241  -5.102  -0.257  0.00  0.00    -0.020 A 
ATOM     22  C   LIG    1        2.405  -4.209  -0.255  0.00  0.00    -0.250 A 
ATOM     23  C   LIG    1        3.502  -5.017  -0.380  0.00  0.00    +0.150 A 
ATOM     24  C   LIG    1        4.936  -4.555  -0.422  0.00  0.00    +0.160 C 
ATOM     25  N   LIG    1        3.083  -6.294  -0.459  0.00  0.00    -0.430 N 
BRANCH  25  26
ATOM     26  C   LIG    1        3.963  -7.457  -0.599  0.00  0.00    +0.370 C 
BRANCH  26  27
ATOM     27  C   LIG    1        4.342  -7.968   0.767  0.00  0.00    +0.100 A 
ATOM     28  C   LIG    1        4.101  -9.289   1.092  0.00  0.00    -0.020 A 
ATOM     29  C   LIG    1        4.458  -9.751   2.350  0.00  0.00    +0.070 A 
ATOM     30  C   LIG    1        5.036  -8.860   3.241  0.00  0.00    -0.030 A 
ATOM     31  C   LIG    1        5.241  -7.551   2.846  0.00  0.00    +0.270 A 
ATOM     32  N   LIG    1        4.894  -7.148   1.640  0.00  0.00    -0.460 NA
ENDBRANCH  26  27
ENDBRANCH  25  26
ENDBRANCH   1  22
TORSDOF 5
