REMARK  Name = ZINCvU0000000IRF.0
REMARK                            x       y       z     vdW  Elec       q    Type
REMARK                         _______ _______ _______ _____ _____    ______ ____
ROOT
ATOM      1  C   LIG    1       -1.266   3.285  -0.268  0.00  0.00    -0.150 A 
ATOM      2  C   LIG    1       -0.141   4.093  -0.298  0.00  0.00    +0.140 A 
ATOM      3  C   LIG    1        1.128   3.517  -0.150  0.00  0.00    -0.090 A 
ATOM      4  C   LIG    1        2.291   4.309  -0.176  0.00  0.00    +0.040 A 
ATOM      5  C   LIG    1        3.510   3.721  -0.031  0.00  0.00    +0.010 A 
ATOM      6  C   LIG    1        3.626   2.343   0.143  0.00  0.00    +0.040 A 
ATOM      7  C   LIG    1        2.523   1.545   0.174  0.00  0.00    +0.020 A 
ATOM      8  C   LIG    1        1.246   2.114   0.027  0.00  0.00    -0.000 A 
ATOM      9  C   LIG    1        0.091   1.315   0.054  0.00  0.00    +0.040 A 
ATOM     10  C   LIG    1       -1.138   1.888  -0.096  0.00  0.00    +0.210 A 
ENDROOT
BRANCH  10  11
ATOM     11  N   LIG    1       -2.280   1.088  -0.074  0.00  0.00    -0.640 N 
ATOM     12  H   LIG    1       -3.113   1.440   0.279  0.00  0.00    +0.430 HD
ATOM     13  C   LIG    1       -2.228  -0.175  -0.542  0.00  0.00    +0.660 C 
ATOM     14  O   LIG    1       -1.170  -0.639  -0.920  0.00  0.00    -0.550 OA
BRANCH  13  15
ATOM     15  O   LIG    1       -3.347  -0.922  -0.591  0.00  0.00    -0.360 OA
BRANCH  15  16
ATOM     16  C   LIG    1       -3.215  -2.273  -1.107  0.00  0.00    +0.140 C 
ATOM     17  C   LIG    1       -2.692  -2.221  -2.544  0.00  0.00    +0.040 C 
ATOM     18  C   LIG    1       -4.581  -2.962  -1.086  0.00  0.00    +0.080 C 
ATOM     19  C   LIG    1       -2.234  -3.059  -0.235  0.00  0.00    +0.040 C 
ENDBRANCH  15  16
ENDBRANCH  13  15
ENDBRANCH  10  11
BRANCH   1  20
ATOM     20  C   LIG    1       -2.604   3.884  -0.423  0.00  0.00    +0.510 C 
ATOM     21  O   LIG    1       -3.583   3.170  -0.518  0.00  0.00    -0.490 OA
BRANCH  20  22
ATOM     22  O   LIG    1       -2.742   5.224  -0.458  0.00  0.00    -0.280 OA
BRANCH  22  26
ATOM     23  C   LIG    1       -6.522   6.702  -1.212  0.00  0.00    +0.150 A 
ATOM     24  C   LIG    1       -6.216   6.182   0.039  0.00  0.00    +0.030 A 
ATOM     25  C   LIG    1       -4.952   5.687   0.290  0.00  0.00    +0.040 A 
ATOM     26  C   LIG    1       -3.987   5.710  -0.706  0.00  0.00    +0.060 A 
ATOM     27  C   LIG    1       -4.291   6.235  -1.955  0.00  0.00    +0.050 A 
ATOM     28  C   LIG    1       -5.556   6.724  -2.209  0.00  0.00    +0.010 A 
BRANCH  23  31
ATOM     29  C   LIG    1       -9.912   8.270  -0.732  0.00  0.00    +0.110 C 
ATOM     30  C   LIG    1       -8.497   7.815  -0.485  0.00  0.00    +0.510 C 
ATOM     31  N   LIG    1       -7.805   7.204  -1.467  0.00  0.00    -0.680 N 
ATOM     32  H   LIG    1       -8.195   7.112  -2.350  0.00  0.00    +0.410 HD
ATOM     33  O   LIG    1       -7.981   7.999   0.597  0.00  0.00    -0.520 OA
ENDBRANCH  23  31
ENDBRANCH  22  26
ENDBRANCH  20  22
ENDBRANCH   1  20
TORSDOF 7
