REMARK  Name = ZINCtV00000tRRKc.0
REMARK                            x       y       z     vdW  Elec       q    Type
REMARK                         _______ _______ _______ _____ _____    ______ ____
ROOT
ATOM      1  C   LIG    1       -3.412   7.030   0.030  0.00  0.00    -0.100 A 
ATOM      2  C   LIG    1       -2.780   5.882   0.490  0.00  0.00    +0.130 A 
ATOM      3  C   LIG    1       -1.430   5.928   0.834  0.00  0.00    -0.170 A 
ATOM      4  C   LIG    1       -0.456   5.050   1.316  0.00  0.00    +0.060 A 
ATOM      5  O   LIG    1        0.666   5.779   1.431  0.00  0.00    +0.140 OA
ATOM      6  N   LIG    1        0.531   6.933   1.092  0.00  0.00    -0.360 NA
ATOM      7  C   LIG    1       -0.691   7.202   0.702  0.00  0.00    +0.050 A 
ATOM      8  C   LIG    1       -1.411   8.371   0.213  0.00  0.00    +0.080 A 
ATOM      9  C   LIG    1       -2.721   8.256  -0.102  0.00  0.00    +0.080 A 
ENDROOT
BRANCH   4  10
ATOM     10  C   LIG    1       -0.626   3.623   1.637  0.00  0.00    -0.040 A 
ATOM     11  C   LIG    1       -1.727   3.198   2.389  0.00  0.00    +0.050 A 
ATOM     12  C   LIG    1       -1.879   1.860   2.685  0.00  0.00    +0.010 A 
ATOM     13  C   LIG    1       -0.947   0.938   2.241  0.00  0.00    +0.030 A 
ATOM     14  C   LIG    1        0.148   1.352   1.502  0.00  0.00    +0.010 A 
ATOM     15  C   LIG    1        0.311   2.685   1.193  0.00  0.00    +0.050 A 
ENDBRANCH   4  10
BRANCH   1  17
ATOM     16  C   LIG    1       -5.352   5.822  -0.880  0.00  0.00    +0.010 C 
ATOM     17  C   LIG    1       -4.831   6.969  -0.326  0.00  0.00    +0.170 C 
BRANCH  16  18
ATOM     18  C   LIG    1       -6.805   5.702  -1.096  0.00  0.00    +0.110 A 
ATOM     19  N   LIG    1       -7.407   4.669  -1.610  0.00  0.00    -0.440 NA
ATOM     20  C   LIG    1       -8.722   4.737  -1.728  0.00  0.00    +0.150 A 
ATOM     21  C   LIG    1       -9.282   5.887  -1.295  0.00  0.00    -0.040 A 
ATOM     22  S   LIG    1       -7.999   6.933  -0.691  0.00  0.00    +0.150 S 
BRANCH  20  23
ATOM     23  C   LIG    1       -9.523   3.632  -2.296  0.00  0.00    +0.030 A 
ATOM     24  C   LIG    1       -9.036   2.449  -2.758  0.00  0.00    +0.000 A 
ATOM     25  C   LIG    1      -10.145   1.700  -3.202  0.00  0.00    -0.070 A 
ATOM     26  C   LIG    1      -11.240   2.457  -2.999  0.00  0.00    +0.190 A 
ATOM     27  O   LIG    1      -10.860   3.624  -2.451  0.00  0.00    -0.170 OA
ENDBRANCH  20  23
ENDBRANCH  16  18
BRANCH  16  29
ATOM     28  N   LIG    1       -3.793   3.891  -1.538  0.00  0.00    -0.390 NA
ATOM     29  C   LIG    1       -4.482   4.745  -1.247  0.00  0.00    +0.250 C 
ENDBRANCH  16  29
ENDBRANCH   1  17
TORSDOF 5
