REMARK  Name = ZINCqH0000000xFu.0
REMARK                            x       y       z     vdW  Elec       q    Type
REMARK                         _______ _______ _______ _____ _____    ______ ____
ROOT
ATOM      1  N   LIG    1        3.984   0.533  -1.442  0.00  0.00    -0.990 NA
ATOM      2  C   LIG    1        3.915  -0.700  -2.229  0.00  0.00    +0.300 C 
ENDROOT
BRANCH   1   3
ATOM      3  S   LIG    1        4.544   1.929  -2.137  0.00  0.00    +2.680 S 
ATOM      4  O   LIG    1        4.095   2.996  -1.313  0.00  0.00    -0.930 OA
ATOM      5  O   LIG    1        4.242   1.836  -3.522  0.00  0.00    -0.950 OA
BRANCH   3   9
ATOM      6  C   LIG    1        9.063   1.872  -1.807  0.00  0.00    -0.120 A 
ATOM      7  C   LIG    1        8.434   1.320  -2.927  0.00  0.00    +0.060 A 
ATOM      8  C   LIG    1        7.058   1.341  -3.020  0.00  0.00    +0.120 A 
ATOM      9  C   LIG    1        6.301   1.906  -2.009  0.00  0.00    -0.650 A 
ATOM     10  C   LIG    1        6.917   2.460  -0.900  0.00  0.00    +0.120 A 
ATOM     11  C   LIG    1        8.292   2.442  -0.790  0.00  0.00    +0.060 A 
BRANCH   6  13
ATOM     12  C   LIG    1       11.206   2.451  -0.492  0.00  0.00    +0.090 C 
ATOM     13  C   LIG    1       10.531   1.855  -1.701  0.00  0.00    +0.390 C 
ATOM     14  O   LIG    1       11.197   1.361  -2.585  0.00  0.00    -0.440 OA
ENDBRANCH   6  13
ENDBRANCH   3   9
ENDBRANCH   1   3
BRANCH   1  15
ATOM     15  C   LIG    1        3.557   0.533  -0.041  0.00  0.00    +0.420 C 
BRANCH  15  16
ATOM     16  C   LIG    1        2.064   0.724   0.030  0.00  0.00    -0.030 A 
ATOM     17  C   LIG    1        1.145  -0.252   0.131  0.00  0.00    -0.020 A 
ATOM     18  O   LIG    1       -0.067   0.338   0.166  0.00  0.00    -0.190 OA
ATOM     19  C   LIG    1        0.124   1.668   0.086  0.00  0.00    +0.260 A 
ATOM     20  C   LIG    1        1.419  -1.733   0.195  0.00  0.00    +0.190 C 
ATOM     21  N   LIG    1        1.416   1.899   0.004  0.00  0.00    -0.440 NA
BRANCH  19  22
ATOM     22  C   LIG    1       -0.933   2.689   0.091  0.00  0.00    -0.140 A 
ATOM     23  C   LIG    1       -2.269   2.440   0.177  0.00  0.00    +0.060 A 
ATOM     24  C   LIG    1       -3.062   3.566   0.162  0.00  0.00    +0.010 A 
ATOM     25  C   LIG    1       -2.402   4.725   0.066  0.00  0.00    -0.040 A 
ATOM     26  S   LIG    1       -0.670   4.426  -0.006  0.00  0.00    +0.220 S 
ENDBRANCH  19  22
ENDBRANCH  15  16
ENDBRANCH   1  15
TORSDOF 6
