REMARK  Name = ZINCpe000000Te4s.0
REMARK                            x       y       z     vdW  Elec       q    Type
REMARK                         _______ _______ _______ _____ _____    ______ ____
ROOT
ATOM      1  C   LIG    1        6.243   3.078  -0.088  0.00  0.00    +0.230 A 
ATOM      2  N   LIG    1        5.170   3.768  -0.334  0.00  0.00    -0.280 NA
ATOM      3  N   LIG    1        4.066   3.160  -0.328  0.00  0.00    -0.250 NA
ATOM      4  C   LIG    1        4.079   1.884  -0.074  0.00  0.00    -0.080 A 
ATOM      5  S   LIG    1        5.756   1.406   0.200  0.00  0.00    +0.240 S 
ENDROOT
BRANCH   1   7
ATOM      6  C   LIG    1        8.584   2.722   0.080  0.00  0.00    +0.510 C 
ATOM      7  N   LIG    1        7.545   3.571  -0.052  0.00  0.00    -0.480 N 
ATOM      8  O   LIG    1        8.384   1.528   0.166  0.00  0.00    -0.500 OA
BRANCH   7   9
ATOM      9  C   LIG    1        7.786   5.012  -0.157  0.00  0.00    +0.190 C 
ATOM     10  C   LIG    1        6.595   5.946   0.068  0.00  0.00    +0.070 C 
ATOM     11  C   LIG    1        7.157   5.749  -1.341  0.00  0.00    +0.040 C 
ENDBRANCH   7   9
BRANCH   6  13
ATOM     12  C   LIG    1       10.974   2.091   0.272  0.00  0.00    +0.070 C 
ATOM     13  C   LIG    1        9.992   3.255   0.118  0.00  0.00    +0.090 C 
ENDBRANCH   6  13
ENDBRANCH   1   7
BRANCH   4  14
ATOM     14  S   LIG    1        2.673   0.823  -0.009  0.00  0.00    +0.100 S 
BRANCH  14  15
ATOM     15  C   LIG    1        1.297   1.947  -0.374  0.00  0.00    +0.100 C 
BRANCH  15  16
ATOM     16  C   LIG    1        0.001   1.177  -0.355  0.00  0.00    +0.540 C 
ATOM     17  N   LIG    1       -1.162   1.810  -0.606  0.00  0.00    -0.710 N 
ATOM     18  H   LIG    1       -1.166   2.762  -0.794  0.00  0.00    +0.410 HD
ATOM     19  O   LIG    1        0.006  -0.012  -0.119  0.00  0.00    -0.510 OA
BRANCH  17  20
ATOM     20  C   LIG    1       -2.421   1.061  -0.594  0.00  0.00    +0.270 C 
ATOM     21  C   LIG    1       -3.596   2.009  -0.298  0.00  0.00    +0.070 C 
ATOM     22  C   LIG    1       -4.914   1.280  -0.624  0.00  0.00    -0.300 C 
ATOM     23  S   LIG    1       -4.480   0.073  -1.929  0.00  0.00    +2.400 S 
ATOM     24  O   LIG    1       -5.089   0.464  -3.152  0.00  0.00    -0.930 OA
ATOM     25  O   LIG    1       -4.669  -1.245  -1.433  0.00  0.00    -0.930 OA
ATOM     26  C   LIG    1       -2.687   0.446  -1.992  0.00  0.00    -0.320 C 
ENDBRANCH  17  20
ENDBRANCH  15  16
ENDBRANCH  14  15
ENDBRANCH   4  14
TORSDOF 7
