REMARK  Name = ZINCah0000002lSE.0
REMARK                            x       y       z     vdW  Elec       q    Type
REMARK                         _______ _______ _______ _____ _____    ______ ____
ROOT
ATOM      1  C   LIG    1       -1.213   1.758   0.017  0.00  0.00    -0.250 A 
ATOM      2  C   LIG    1       -0.013   1.076   0.008  0.00  0.00    +0.340 A 
ATOM      3  N   LIG    1        1.122   1.762   0.001  0.00  0.00    -0.560 NA
ATOM      4  C   LIG    1        1.118   3.080   0.008  0.00  0.00    +0.530 A 
ATOM      5  N   LIG    1       -0.004   3.772   0.023  0.00  0.00    -0.580 NA
ATOM      6  C   LIG    1       -1.181   3.155   0.031  0.00  0.00    +0.440 A 
ENDROOT
BRANCH   1   8
ATOM      7  C   LIG    1       -2.618   0.143  -1.235  0.00  0.00    +0.030 C 
ATOM      8  C   LIG    1       -2.524   1.015   0.019  0.00  0.00    +0.030 C 
ATOM      9  C   LIG    1       -2.606   0.129   1.263  0.00  0.00    +0.030 C 
ENDBRANCH   1   8
BRANCH   6  10
ATOM     10  N   LIG    1       -2.358   3.885   0.046  0.00  0.00    -0.840 N 
ATOM     11  H   LIG    1       -3.213   3.427   0.052  0.00  0.00    +0.410 HD
ATOM     12  H   LIG    1       -2.328   4.854   0.052  0.00  0.00    +0.410 HD
ENDBRANCH   6  10
TORSDOF 2
