REMARK  Name = ZINCpk00001AZiDO.0
REMARK                            x       y       z     vdW  Elec       q    Type
REMARK                         _______ _______ _______ _____ _____    ______ ____
ROOT
ATOM      1  N   LIG    1        0.734  -0.128   1.288  0.00  0.00    -0.500 NA
ATOM      2  C   LIG    1        0.200   0.804   2.291  0.00  0.00    +0.170 C 
ATOM      3  C   LIG    1        1.011   0.640   3.588  0.00  0.00    +0.240 C 
ATOM      4  C   LIG    1        2.517   0.628   3.233  0.00  0.00    +0.050 C 
ATOM      5  C   LIG    1        2.830  -0.850   2.914  0.00  0.00    +0.040 C 
ATOM      6  C   LIG    1        1.482  -1.585   3.107  0.00  0.00    +0.250 C 
ATOM      7  N   LIG    1        0.735  -0.750   4.080  0.00  0.00    -0.610 N 
ATOM      8  C   LIG    1        0.005  -1.149   5.140  0.00  0.00    +0.640 C 
ATOM      9  O   LIG    1       -0.100  -2.334   5.394  0.00  0.00    -0.510 OA
ATOM     10  C   LIG    1        0.718  -1.514   1.774  0.00  0.00    +0.190 C 
ENDROOT
BRANCH   8  11
ATOM     11  C   LIG    1       -0.663  -0.155   5.987  0.00  0.00    -0.120 A 
ATOM     12  C   LIG    1       -1.435  -0.406   7.083  0.00  0.00    +0.090 A 
ATOM     13  N   LIG    1       -1.846   0.772   7.562  0.00  0.00    -0.490 NA
ATOM     14  C   LIG    1       -1.370   1.727   6.809  0.00  0.00    +0.250 A 
ATOM     15  C   LIG    1       -1.762  -1.763   7.651  0.00  0.00    +0.170 C 
ATOM     16  O   LIG    1       -0.637   1.189   5.829  0.00  0.00    -0.180 OA
BRANCH  14  17
ATOM     17  C   LIG    1       -1.610   3.201   7.011  0.00  0.00    +0.050 C 
ATOM     18  C   LIG    1       -2.305   3.633   8.304  0.00  0.00    +0.080 C 
ATOM     19  C   LIG    1       -3.058   3.694   6.973  0.00  0.00    +0.060 C 
ENDBRANCH  14  17
ENDBRANCH   8  11
BRANCH   1  20
ATOM     20  C   LIG    1        0.006  -0.007   0.017  0.00  0.00    +0.180 C 
BRANCH  20  21
ATOM     21  C   LIG    1       -1.469  -0.193   0.264  0.00  0.00    +0.490 C 
ATOM     22  O   LIG    1       -1.848  -0.843   1.215  0.00  0.00    -0.540 OA
ATOM     23  N   LIG    1       -2.368   0.364  -0.572  0.00  0.00    -0.850 N 
ATOM     24  H   LIG    1       -3.317   0.245  -0.413  0.00  0.00    +0.400 HD
ATOM     25  H   LIG    1       -2.065   0.884  -1.333  0.00  0.00    +0.400 HD
ENDBRANCH  20  21
BRANCH  20  27
ATOM     26  C   LIG    1        1.967  -0.821  -1.299  0.00  0.00    +0.040 C 
ATOM     27  C   LIG    1        0.499  -1.079  -0.957  0.00  0.00    +0.020 C 
ENDBRANCH  20  27
ENDBRANCH   1  20
TORSDOF 5
