REMARK  Name = ZINCpe000000WMtu.0
REMARK                            x       y       z     vdW  Elec       q    Type
REMARK                         _______ _______ _______ _____ _____    ______ ____
ROOT
ATOM      1  N   LIG    1       -1.013   5.249   5.457  0.00  0.00    -0.510 NA
ATOM      2  C   LIG    1        0.031   5.794   4.578  0.00  0.00    +0.180 C 
ATOM      3  C   LIG    1        0.737   6.954   5.288  0.00  0.00    +0.300 C 
ATOM      4  N   LIG    1        1.211   6.481   6.598  0.00  0.00    -0.610 N 
ATOM      5  C   LIG    1        0.251   5.799   7.480  0.00  0.00    +0.270 C 
ATOM      6  C   LIG    1        2.490   6.667   6.980  0.00  0.00    +0.560 C 
ATOM      7  O   LIG    1        3.239   7.333   6.292  0.00  0.00    -0.530 OA
ATOM      8  C   LIG    1       -0.436   4.685   6.684  0.00  0.00    +0.180 C 
ENDROOT
BRANCH   6   9
ATOM      9  C   LIG    1        2.982   6.062   8.235  0.00  0.00    -0.140 A 
ATOM     10  C   LIG    1        2.483   4.830   8.661  0.00  0.00    +0.080 A 
ATOM     11  C   LIG    1        2.949   4.267   9.830  0.00  0.00    -0.020 A 
ATOM     12  C   LIG    1        3.904   4.928  10.588  0.00  0.00    +0.120 A 
ATOM     13  C   LIG    1        4.399   6.155  10.171  0.00  0.00    -0.010 A 
ATOM     14  F   LIG    1        4.353   4.375  11.735  0.00  0.00    -0.130 F 
ATOM     15  C   LIG    1        3.943   6.723   9.001  0.00  0.00    +0.110 A 
ENDBRANCH   6   9
BRANCH   1  17
ATOM     16  C   LIG    1       -2.900   3.706   5.696  0.00  0.00    +0.070 C 
ATOM     17  C   LIG    1       -1.827   4.251   4.750  0.00  0.00    +0.130 C 
BRANCH  17  18
ATOM     18  C   LIG    1       -2.488   4.894   3.558  0.00  0.00    +0.520 C 
ATOM     19  N   LIG    1       -2.930   4.130   2.540  0.00  0.00    -0.620 N 
ATOM     20  C   LIG    1       -2.694   2.678   2.525  0.00  0.00    +0.240 C 
ATOM     21  C   LIG    1       -2.092   2.300   1.166  0.00  0.00    +0.220 C 
ATOM     22  O   LIG    1       -2.920   2.820   0.123  0.00  0.00    -0.380 OA
ATOM     23  C   LIG    1       -3.014   4.247   0.107  0.00  0.00    +0.220 C 
ATOM     24  C   LIG    1       -3.664   4.724   1.411  0.00  0.00    +0.260 C 
ATOM     25  O   LIG    1       -2.621   6.099   3.515  0.00  0.00    -0.510 OA
ENDBRANCH  17  18
ENDBRANCH   1  17
TORSDOF 3
