REMARK  Name = ZINCpe000000TGij.0
REMARK                            x       y       z     vdW  Elec       q    Type
REMARK                         _______ _______ _______ _____ _____    ______ ____
ROOT
ATOM      1  N   LIG    1       -3.671   1.675   0.028  0.00  0.00    -0.710 N 
ATOM      2  H   LIG    1       -3.681   2.645   0.034  0.00  0.00    +0.420 HD
ATOM      3  C   LIG    1       -2.497   1.013   0.019  0.00  0.00    +0.590 C 
ATOM      4  O   LIG    1       -2.484  -0.202   0.011  0.00  0.00    -0.530 OA
ENDROOT
BRANCH   3   5
ATOM      5  C   LIG    1       -1.224   1.766   0.017  0.00  0.00    +0.040 A 
ATOM      6  C   LIG    1       -0.013   1.076   0.008  0.00  0.00    +0.080 A 
ATOM      7  C   LIG    1        1.171   1.794   0.001  0.00  0.00    -0.130 A 
ATOM      8  C   LIG    1        1.110   3.179   0.005  0.00  0.00    +0.110 A 
ATOM      9  O   LIG    1        2.230   3.942  -0.011  0.00  0.00    -0.300 OA
ATOM     10  C   LIG    1        3.464   3.319   0.349  0.00  0.00    +0.250 C 
ATOM     11  C   LIG    1        3.601   2.014  -0.447  0.00  0.00    +0.010 C 
ATOM     12  C   LIG    1       -0.139   3.802   0.022  0.00  0.00    +0.250 A 
ATOM     13  C   LIG    1        2.486   1.062  -0.007  0.00  0.00    +0.100 C 
ATOM     14  N   LIG    1       -1.244   3.094   0.031  0.00  0.00    -0.430 NA
ENDBRANCH   3   5
BRANCH   1  15
ATOM     15  C   LIG    1       -4.932   0.929   0.029  0.00  0.00    +0.430 C 
BRANCH  15  18
ATOM     16  C   LIG    1       -7.637   3.190   0.676  0.00  0.00    +0.190 A 
ATOM     17  N   LIG    1       -6.697   2.397   1.130  0.00  0.00    -0.450 NA
ATOM     18  C   LIG    1       -6.088   1.897   0.040  0.00  0.00    +0.150 A 
ATOM     19  N   LIG    1       -6.683   2.396  -1.002  0.00  0.00    -0.350 NA
ATOM     20  O   LIG    1       -7.575   3.142  -0.659  0.00  0.00    +0.100 OA
BRANCH  16  21
ATOM     21  C   LIG    1       -8.605   3.998   1.500  0.00  0.00    +0.290 C 
BRANCH  21  22
ATOM     22  C   LIG    1       -8.016   5.357   1.778  0.00  0.00    +0.470 C 
ATOM     23  O   LIG    1       -6.923   5.641   1.350  0.00  0.00    -0.490 OA
BRANCH  22  24
ATOM     24  O   LIG    1       -8.707   6.253   2.501  0.00  0.00    -0.350 OA
BRANCH  24  26
ATOM     25  C   LIG    1       -9.008   8.423   3.566  0.00  0.00    +0.070 C 
ATOM     26  C   LIG    1       -8.078   7.542   2.729  0.00  0.00    +0.200 C 
ENDBRANCH  24  26
ENDBRANCH  22  24
ENDBRANCH  21  22
ENDBRANCH  16  21
ENDBRANCH  15  18
ENDBRANCH   1  15
TORSDOF 7
