REMARK  Name = ZINCah0000004T7f.0
REMARK                            x       y       z     vdW  Elec       q    Type
REMARK                         _______ _______ _______ _____ _____    ______ ____
ROOT
ATOM      1  C   LIG    1        2.416   1.181  -0.015  0.00  0.00    +0.330 C 
ATOM      2  N   LIG    1        1.143   1.905   0.001  0.00  0.00    -0.500 N 
ATOM      3  C   LIG    1        1.142   3.263   0.008  0.00  0.00    +0.310 A 
ATOM      4  C   LIG    1       -0.022   3.954   0.023  0.00  0.00    -0.070 A 
ATOM      5  C   LIG    1       -1.243   3.266   0.031  0.00  0.00    -0.010 A 
ATOM      6  C   LIG    1       -1.241   1.902   0.018  0.00  0.00    -0.070 A 
ATOM      7  C   LIG    1       -0.015   1.216   0.009  0.00  0.00    +0.510 A 
ATOM      8  O   LIG    1        0.002  -0.004   0.002  0.00  0.00    -0.550 OA
ENDROOT
BRANCH   5   9
ATOM      9  C   LIG    1       -2.545   4.026   0.047  0.00  0.00    +0.220 C 
ATOM     10 CL   LIG    1       -3.005   4.465  -1.640  0.00  0.00    -0.160 Cl
ENDBRANCH   5   9
TORSDOF 1
