REMARK  Name = ZINCqH0000006TGn.0
REMARK                            x       y       z     vdW  Elec       q    Type
REMARK                         _______ _______ _______ _____ _____    ______ ____
ROOT
ATOM      1  C   LIG    1        0.116  -2.537  -3.227  0.00  0.00    +0.570 C 
ATOM      2  N   LIG    1        0.042  -2.901  -1.932  0.00  0.00    -0.640 N 
ATOM      3  H   LIG    1        0.019  -3.841  -1.693  0.00  0.00    +0.410 HD
ATOM      4  O   LIG    1        0.145  -1.359  -3.527  0.00  0.00    -0.490 OA
ENDROOT
BRANCH   1   9
ATOM      5  C   LIG    1        0.174  -5.886  -4.937  0.00  0.00    +0.170 A 
ATOM      6  C   LIG    1        0.250  -5.508  -6.269  0.00  0.00    -0.130 A 
ATOM      7  C   LIG    1        0.283  -4.165  -6.613  0.00  0.00    +0.170 A 
ATOM      8  C   LIG    1        0.239  -3.194  -5.626  0.00  0.00    +0.030 A 
ATOM      9  C   LIG    1        0.163  -3.569  -4.284  0.00  0.00    -0.060 A 
ATOM     10  C   LIG    1        0.136  -4.922  -3.943  0.00  0.00    -0.030 A 
BRANCH   5  12
ATOM     11  C   LIG    1        0.191  -8.144  -5.680  0.00  0.00    +0.250 C 
ATOM     12  O   LIG    1        0.142  -7.204  -4.605  0.00  0.00    -0.310 OA
ENDBRANCH   5  12
BRANCH   7  13
ATOM     13  O   LIG    1        0.358  -3.800  -7.920  0.00  0.00    -0.310 OA
ATOM     14  C   LIG    1        0.400  -4.853  -8.886  0.00  0.00    +0.250 C 
ENDBRANCH   7  13
ENDBRANCH   1   9
BRANCH   2  15
ATOM     15  C   LIG    1       -0.002  -1.928  -0.936  0.00  0.00    +0.310 A 
ATOM     16  C   LIG    1       -0.101  -0.584  -1.126  0.00  0.00    -0.080 A 
ATOM     17  C   LIG    1       -0.110   0.028   0.130  0.00  0.00    +0.090 A 
ATOM     18  N   LIG    1       -0.029  -0.903   1.046  0.00  0.00    -0.270 NA
ATOM     19  C   LIG    1       -0.202   1.510   0.387  0.00  0.00    +0.160 C 
ATOM     20  N   LIG    1        0.040  -2.148   0.407  0.00  0.00    -0.340 N 
BRANCH  20  21
ATOM     21  C   LIG    1        0.135  -3.396   1.038  0.00  0.00    +0.140 A 
ATOM     22  C   LIG    1       -0.714  -4.429   0.665  0.00  0.00    +0.000 A 
ATOM     23  C   LIG    1       -0.618  -5.658   1.289  0.00  0.00    +0.030 A 
ATOM     24  C   LIG    1        0.322  -5.860   2.283  0.00  0.00    +0.020 A 
ATOM     25  C   LIG    1        1.169  -4.832   2.656  0.00  0.00    +0.030 A 
ATOM     26  C   LIG    1        1.082  -3.603   2.032  0.00  0.00    -0.070 A 
ATOM     27  C   LIG    1        2.010  -2.485   2.434  0.00  0.00    +0.110 C 
ENDBRANCH  20  21
ENDBRANCH   2  15
TORSDOF 5
