REMARK  Name = ZINCvU0000000JKe.0
REMARK                            x       y       z     vdW  Elec       q    Type
REMARK                         _______ _______ _______ _____ _____    ______ ____
ROOT
ATOM      1  C   LIG    1       -0.742   1.585  -1.213  0.00  0.00    -0.050 A 
ATOM      2  C   LIG    1       -1.750   0.821  -1.773  0.00  0.00    +0.030 A 
ATOM      3  C   LIG    1       -2.425   1.275  -2.888  0.00  0.00    +0.050 A 
ATOM      4  C   LIG    1       -2.080   2.502  -3.457  0.00  0.00    -0.130 A 
ATOM      5  C   LIG    1       -1.058   3.265  -2.890  0.00  0.00    +0.090 A 
ATOM      6  C   LIG    1       -0.395   2.802  -1.772  0.00  0.00    +0.040 A 
ENDROOT
BRANCH   4   7
ATOM      7  C   LIG    1       -2.794   2.991  -4.655  0.00  0.00    +0.580 C 
ATOM      8  N   LIG    1       -3.780   2.252  -5.200  0.00  0.00    -0.580 N 
ATOM      9  H   LIG    1       -4.022   1.399  -4.806  0.00  0.00    +0.390 HD
ATOM     10  O   LIG    1       -2.491   4.060  -5.149  0.00  0.00    -0.490 OA
BRANCH   8  11
ATOM     11  N   LIG    1       -4.457   2.715  -6.336  0.00  0.00    -0.220 NA
ATOM     12  C   LIG    1       -5.407   2.003  -6.861  0.00  0.00    +0.240 C 
BRANCH  12  13
ATOM     13  C   LIG    1       -6.119   2.491  -8.057  0.00  0.00    -0.050 A 
ATOM     14  C   LIG    1       -5.778   3.721  -8.624  0.00  0.00    +0.100 A 
ATOM     15  C   LIG    1       -6.445   4.169  -9.745  0.00  0.00    +0.020 A 
ATOM     16  C   LIG    1       -7.457   3.408 -10.302  0.00  0.00    +0.090 A 
ATOM     17  C   LIG    1       -7.804   2.190  -9.743  0.00  0.00    -0.190 A 
ATOM     18  C   LIG    1       -7.142   1.728  -8.624  0.00  0.00    +0.100 A 
BRANCH  17  19
ATOM     19  C   LIG    1       -8.908   1.368 -10.356  0.00  0.00    +0.510 C 
ATOM     20  F   LIG    1       -8.658   0.010 -10.132  0.00  0.00    -0.180 F 
ATOM     21  F   LIG    1       -8.960   1.611 -11.733  0.00  0.00    -0.180 F 
ATOM     22  F   LIG    1      -10.130   1.720  -9.774  0.00  0.00    -0.170 F 
ENDBRANCH  17  19
ENDBRANCH  12  13
ENDBRANCH   8  11
ENDBRANCH   4   7
BRANCH   1  23
ATOM     23  C   LIG    1       -0.013   1.086   0.008  0.00  0.00    +0.140 C 
BRANCH  23  24
ATOM     24  S   LIG    1       -0.860   1.669   1.497  0.00  0.00    +0.020 S 
BRANCH  24  30
ATOM     25  C   LIG    1        3.210  -1.127   2.844  0.00  0.00    +0.140 C 
ATOM     26  C   LIG    1        2.019  -0.307   3.271  0.00  0.00    +0.190 A 
ATOM     27  C   LIG    1        1.745  -0.117   4.616  0.00  0.00    -0.090 A 
ATOM     28  C   LIG    1        0.640   0.643   4.967  0.00  0.00    +0.190 A 
ATOM     29  N   LIG    1       -0.116   1.161   4.013  0.00  0.00    -0.510 NA
ATOM     30  C   LIG    1        0.174   0.961   2.735  0.00  0.00    +0.300 A 
ATOM     31  C   LIG    1        0.303   0.875   6.417  0.00  0.00    +0.150 C 
ATOM     32  N   LIG    1        1.220   0.235   2.367  0.00  0.00    -0.530 NA
ENDBRANCH  24  30
ENDBRANCH  23  24
ENDBRANCH   1  23
TORSDOF 7
