REMARK  Name = ZINCpk00000e9l8A.0
REMARK                            x       y       z     vdW  Elec       q    Type
REMARK                         _______ _______ _______ _____ _____    ______ ____
ROOT
ATOM      1  S   LIG    1       -6.606   1.706  -0.226  0.00  0.00    +2.690 S 
ATOM      2  O   LIG    1       -6.866   2.859   0.563  0.00  0.00    -0.940 OA
ATOM      3  O   LIG    1       -7.633   0.927  -0.825  0.00  0.00    -0.940 OA
ENDROOT
BRANCH   1   4
ATOM      4  C   LIG    1       -5.676   0.608   0.790  0.00  0.00    -0.670 A 
ATOM      5  C   LIG    1       -4.857   1.115   1.784  0.00  0.00    +0.140 A 
ATOM      6  C   LIG    1       -4.124   0.261   2.585  0.00  0.00    +0.030 A 
ATOM      7  C   LIG    1       -4.208  -1.109   2.393  0.00  0.00    +0.150 A 
ATOM      8  N   LIG    1       -3.610  -2.201   3.018  0.00  0.00    -0.640 N 
ATOM      9  H   LIG    1       -2.983  -2.159   3.756  0.00  0.00    +0.440 HD
ATOM     10  C   LIG    1       -4.052  -3.325   2.422  0.00  0.00    +0.690 A 
ATOM     11  N   LIG    1       -4.912  -3.007   1.436  0.00  0.00    -0.640 N 
ATOM     12  H   LIG    1       -5.370  -3.637   0.857  0.00  0.00    +0.440 HD
ATOM     13  O   LIG    1       -3.723  -4.455   2.728  0.00  0.00    -0.540 OA
ATOM     14  C   LIG    1       -5.030  -1.620   1.385  0.00  0.00    +0.070 A 
ATOM     15  C   LIG    1       -5.766  -0.756   0.590  0.00  0.00    +0.150 A 
ENDBRANCH   1   4
BRANCH   1  16
ATOM     16  N   LIG    1       -5.612   2.196  -1.457  0.00  0.00    -1.060 N 
ATOM     17  H   LIG    1       -5.369   3.131  -1.541  0.00  0.00    +0.430 HD
BRANCH  16  21
ATOM     18  C   LIG    1       -4.159  -0.585  -4.190  0.00  0.00    -0.130 A 
ATOM     19  C   LIG    1       -5.495  -0.176  -4.250  0.00  0.00    +0.100 A 
ATOM     20  C   LIG    1       -5.972   0.743  -3.345  0.00  0.00    +0.040 A 
ATOM     21  C   LIG    1       -5.127   1.267  -2.370  0.00  0.00    +0.150 A 
ATOM     22  C   LIG    1       -3.795   0.866  -2.311  0.00  0.00    +0.020 A 
ATOM     23  C   LIG    1       -3.313  -0.058  -3.210  0.00  0.00    +0.050 A 
BRANCH  18  26
ATOM     24  N   LIG    1       -2.356  -1.964  -5.101  0.00  0.00    -0.730 N 
ATOM     25  H   LIG    1       -1.768  -1.599  -4.421  0.00  0.00    +0.400 HD
ATOM     26  C   LIG    1       -3.644  -1.571  -5.160  0.00  0.00    +0.560 C 
ATOM     27  O   LIG    1       -4.381  -2.028  -6.012  0.00  0.00    -0.530 OA
BRANCH  24  29
ATOM     28  C   LIG    1       -0.365  -3.213  -5.778  0.00  0.00    +0.030 C 
ATOM     29  C   LIG    1       -1.844  -2.942  -6.063  0.00  0.00    +0.250 C 
ENDBRANCH  24  29
ENDBRANCH  18  26
ENDBRANCH  16  21
ENDBRANCH   1  16
TORSDOF 5
