REMARK  Name = ZINCvU0000000DqR.0
REMARK                            x       y       z     vdW  Elec       q    Type
REMARK                         _______ _______ _______ _____ _____    ______ ____
ROOT
ATOM      1  O   LIG    1        4.577   1.334  -0.125  0.00  0.00    -0.500 OA
ATOM      2  C   LIG    1        3.526   1.899   0.111  0.00  0.00    +0.550 C 
ATOM      3  N   LIG    1        3.503   3.236   0.277  0.00  0.00    -0.670 N 
ATOM      4  H   LIG    1        2.679   3.679   0.534  0.00  0.00    +0.410 HD
ENDROOT
BRANCH   2   5
ATOM      5  C   LIG    1        2.275   1.119   0.217  0.00  0.00    -0.110 A 
ATOM      6  C   LIG    1        1.056   1.769   0.386  0.00  0.00    +0.050 A 
ATOM      7  C   LIG    1       -0.112   1.035   0.485  0.00  0.00    +0.030 A 
ATOM      8  C   LIG    1       -0.079  -0.346   0.416  0.00  0.00    +0.050 A 
ATOM      9  C   LIG    1        1.122  -1.010   0.248  0.00  0.00    +0.050 A 
ATOM     10  C   LIG    1        2.309  -0.288   0.147  0.00  0.00    -0.080 A 
BRANCH  10  11
ATOM     11  C   LIG    1        3.595  -0.993  -0.033  0.00  0.00    +0.460 C 
ATOM     12  O   LIG    1        4.125  -1.542   0.914  0.00  0.00    -0.440 OA
BRANCH  11  13
ATOM     13  C   LIG    1        4.238  -1.030  -1.362  0.00  0.00    -0.130 A 
ATOM     14  C   LIG    1        3.680  -0.324  -2.431  0.00  0.00    +0.050 A 
ATOM     15  C   LIG    1        4.288  -0.360  -3.669  0.00  0.00    +0.000 A 
ATOM     16  C   LIG    1        5.443  -1.100  -3.855  0.00  0.00    +0.040 A 
ATOM     17  C   LIG    1        5.998  -1.806  -2.802  0.00  0.00    +0.000 A 
ATOM     18  C   LIG    1        5.403  -1.775  -1.558  0.00  0.00    +0.070 A 
ENDBRANCH  11  13
ENDBRANCH  10  11
ENDBRANCH   2   5
BRANCH   3  19
ATOM     19  C   LIG    1        4.668   3.987   0.078  0.00  0.00    +0.140 A 
ATOM     20  C   LIG    1        5.903   3.460   0.433  0.00  0.00    +0.040 A 
ATOM     21  C   LIG    1        7.052   4.198   0.232  0.00  0.00    +0.020 A 
ATOM     22  C   LIG    1        6.972   5.473  -0.315  0.00  0.00    -0.100 A 
ATOM     23  C   LIG    1        5.736   6.002  -0.665  0.00  0.00    +0.050 A 
ATOM     24  C   LIG    1        4.588   5.262  -0.469  0.00  0.00    +0.010 A 
BRANCH  22  25
ATOM     25  S   LIG    1        8.438   6.418  -0.565  0.00  0.00    -0.100 S 
BRANCH  25  26
ATOM     26  C   LIG    1        9.744   5.312   0.036  0.00  0.00    +0.140 C 
BRANCH  26  27
ATOM     27  C   LIG    1       11.083   5.988  -0.112  0.00  0.00    -0.130 A 
ATOM     28  C   LIG    1       11.821   5.835  -1.276  0.00  0.00    +0.080 A 
ATOM     29  C   LIG    1       13.044   6.481  -1.370  0.00  0.00    -0.030 A 
ATOM     30  C   LIG    1       13.490   7.239  -0.305  0.00  0.00    +0.270 A 
ATOM     31  N   LIG    1       12.763   7.358   0.789  0.00  0.00    -0.480 NA
ATOM     32  C   LIG    1       11.592   6.764   0.912  0.00  0.00    +0.280 A 
ENDBRANCH  26  27
ENDBRANCH  25  26
ENDBRANCH  22  25
ENDBRANCH   3  19
TORSDOF 7
