REMARK  Name = ZINCrH00000tj0n6.0
REMARK                            x       y       z     vdW  Elec       q    Type
REMARK                         _______ _______ _______ _____ _____    ______ ____
ROOT
ATOM      1  C   LIG    1       -4.636   9.588  -1.777  0.00  0.00    +0.570 C 
ATOM      2  N   LIG    1       -3.472   9.196  -1.222  0.00  0.00    -0.510 N 
ATOM      3  H   LIG    1       -2.790   9.852  -1.010  0.00  0.00    +0.430 HD
ATOM      4  O   LIG    1       -5.490   8.765  -2.042  0.00  0.00    -0.530 OA
ENDROOT
BRANCH   1   8
ATOM      5  C   LIG    1       -5.313  13.702  -2.600  0.00  0.00    +0.130 A 
ATOM      6  C   LIG    1       -4.115  13.297  -2.027  0.00  0.00    -0.090 A 
ATOM      7  C   LIG    1       -3.892  11.963  -1.759  0.00  0.00    +0.060 A 
ATOM      8  C   LIG    1       -4.873  11.016  -2.063  0.00  0.00    -0.090 A 
ATOM      9  C   LIG    1       -6.077  11.424  -2.645  0.00  0.00    +0.040 A 
ATOM     10 BR   LIG    1       -2.786  14.578  -1.614  0.00  0.00    -0.010 Br
ATOM     11  C   LIG    1       -6.296  12.762  -2.906  0.00  0.00    +0.110 A 
BRANCH  11  12
ATOM     12  O   LIG    1       -7.469  13.162  -3.467  0.00  0.00    -0.300 OA
ATOM     13  C   LIG    1       -8.430  12.145  -3.755  0.00  0.00    +0.250 C 
ENDBRANCH  11  12
BRANCH   5  14
ATOM     14  O   LIG    1       -5.529  15.017  -2.862  0.00  0.00    -0.310 OA
BRANCH  14  16
ATOM     15  C   LIG    1       -5.448  16.989  -4.258  0.00  0.00    +0.070 C 
ATOM     16  C   LIG    1       -5.128  15.497  -4.147  0.00  0.00    +0.180 C 
ENDBRANCH  14  16
ENDBRANCH   5  14
ENDBRANCH   1   8
BRANCH   2  17
ATOM     17  N   LIG    1       -3.247   7.840  -0.950  0.00  0.00    -0.520 N 
ATOM     18  H   LIG    1       -3.929   7.183  -1.161  0.00  0.00    +0.430 HD
ATOM     19  C   LIG    1       -2.083   7.448  -0.394  0.00  0.00    +0.540 C 
ATOM     20  O   LIG    1       -1.231   8.269  -0.130  0.00  0.00    -0.510 OA
BRANCH  19  21
ATOM     21  C   LIG    1       -1.841   5.989  -0.102  0.00  0.00    +0.010 C 
ATOM     22  C   LIG    1       -2.548   5.606   1.200  0.00  0.00    +0.090 C 
BRANCH  21  23
ATOM     23  S   LIG    1       -0.060   5.694   0.068  0.00  0.00    -0.060 S 
BRANCH  23  24
ATOM     24  C   LIG    1        0.042   3.939   0.183  0.00  0.00    -0.140 A 
ATOM     25  C   LIG    1        0.058   3.164  -0.970  0.00  0.00    +0.060 A 
ATOM     26  C   LIG    1        0.138   1.789  -0.875  0.00  0.00    +0.000 A 
ATOM     27  C   LIG    1        0.202   1.182   0.366  0.00  0.00    +0.040 A 
ATOM     28  C   LIG    1        0.181   1.950   1.516  0.00  0.00    +0.000 A 
ATOM     29  C   LIG    1        0.107   3.326   1.429  0.00  0.00    +0.060 A 
ENDBRANCH  23  24
ENDBRANCH  21  23
ENDBRANCH  19  21
ENDBRANCH   2  17
TORSDOF 8
