REMARK  Name = ZINCrH000004qKhY.1
REMARK                            x       y       z     vdW  Elec       q    Type
REMARK                         _______ _______ _______ _____ _____    ______ ____
ROOT
ATOM      1  C   LIG    1       -3.702   2.686   0.498  0.00  0.00    +0.080 C 
ATOM      2  C   LIG    1       -3.426   1.249   0.138  0.00  0.00    -0.090 A 
ATOM      3  C   LIG    1       -4.469   0.351   0.033  0.00  0.00    +0.010 A 
ATOM      4  C   LIG    1       -4.214  -0.975  -0.294  0.00  0.00    +0.100 A 
ATOM      5  C   LIG    1       -2.910  -1.395  -0.521  0.00  0.00    -0.020 A 
ATOM      6  C   LIG    1       -1.867  -0.496  -0.421  0.00  0.00    +0.050 A 
ATOM      7  C   LIG    1       -2.122   0.829  -0.095  0.00  0.00    +0.130 A 
ENDROOT
BRANCH   4   8
ATOM      8  N   LIG    1       -5.270  -1.886  -0.395  0.00  0.00    -0.490 N 
ATOM      9  C   LIG    1       -6.052  -1.927   0.849  0.00  0.00    +0.200 C 
ATOM     10  C   LIG    1       -7.241  -2.873   0.670  0.00  0.00    +0.170 C 
ATOM     11  N   LIG    1       -6.750  -4.213   0.316  0.00  0.00    -0.550 NA
ATOM     12  C   LIG    1       -5.968  -4.172  -0.928  0.00  0.00    +0.170 C 
ATOM     13  C   LIG    1       -7.859  -5.169   0.210  0.00  0.00    +0.190 C 
ATOM     14  C   LIG    1       -4.779  -3.225  -0.749  0.00  0.00    +0.200 C 
ENDBRANCH   4   8
BRANCH   7  15
ATOM     15  N   LIG    1       -1.064   1.742   0.007  0.00  0.00    -0.670 N 
ATOM     16  H   LIG    1       -1.200   2.671  -0.235  0.00  0.00    +0.410 HD
ATOM     17  C   LIG    1        0.143   1.328   0.440  0.00  0.00    +0.590 C 
ATOM     18  O   LIG    1        0.292   0.185   0.827  0.00  0.00    -0.530 OA
BRANCH  17  19
ATOM     19  C   LIG    1        1.284   2.259   0.439  0.00  0.00    -0.240 A 
ATOM     20  C   LIG    1        2.564   1.991   0.839  0.00  0.00    +0.120 A 
ATOM     21  N   LIG    1        3.302   3.107   0.681  0.00  0.00    -0.410 N 
ATOM     22  C   LIG    1        2.532   4.116   0.180  0.00  0.00    +0.020 A 
ATOM     23  C   LIG    1        3.009   5.512  -0.129  0.00  0.00    +0.130 C 
ATOM     24  C   LIG    1        3.064   0.672   1.368  0.00  0.00    +0.150 C 
ATOM     25  C   LIG    1        1.279   3.659   0.002  0.00  0.00    -0.030 A 
BRANCH  21  26
ATOM     26  C   LIG    1        4.727   3.221   1.001  0.00  0.00    +0.170 C 
ATOM     27  C   LIG    1        5.637   3.862  -0.048  0.00  0.00    +0.050 C 
ATOM     28  C   LIG    1        5.702   2.353   0.203  0.00  0.00    +0.040 C 
ENDBRANCH  21  26
ENDBRANCH  17  19
ENDBRANCH   7  15
TORSDOF 4
