REMARK  Name = ZINCrH00000tj1g4.0
REMARK                            x       y       z     vdW  Elec       q    Type
REMARK                         _______ _______ _______ _____ _____    ______ ____
ROOT
ATOM      1  C   LIG    1       -3.603   2.139   5.484  0.00  0.00    -0.000 A 
ATOM      2  N   LIG    1       -3.081   0.993   5.878  0.00  0.00    -0.240 NA
ATOM      3  N   LIG    1       -2.937   0.979   7.155  0.00  0.00    -0.230 N 
ATOM      4  C   LIG    1       -3.375   2.161   7.686  0.00  0.00    +0.090 A 
ATOM      5  C   LIG    1       -3.803   2.930   6.636  0.00  0.00    +0.030 A 
ENDROOT
BRANCH   3   6
ATOM      6  C   LIG    1       -2.412  -0.089   7.893  0.00  0.00    +0.060 A 
ATOM      7  C   LIG    1       -3.162  -0.670   8.907  0.00  0.00    +0.120 A 
ATOM      8  C   LIG    1       -2.644  -1.726   9.631  0.00  0.00    +0.010 A 
ATOM      9  C   LIG    1       -1.373  -2.200   9.354  0.00  0.00    +0.160 A 
ATOM     10  C   LIG    1       -0.619  -1.621   8.347  0.00  0.00    -0.020 A 
ATOM     11  F   LIG    1       -0.867  -3.230  10.068  0.00  0.00    -0.120 F 
ATOM     12  C   LIG    1       -1.135  -0.567   7.616  0.00  0.00    +0.160 A 
ATOM     13  F   LIG    1       -0.400  -0.001   6.634  0.00  0.00    -0.110 F 
ENDBRANCH   3   6
BRANCH   4  14
ATOM     14  C   LIG    1       -3.378   2.537   9.110  0.00  0.00    -0.140 A 
ATOM     15  C   LIG    1       -4.075   3.562   9.644  0.00  0.00    +0.050 A 
ATOM     16  C   LIG    1       -3.921   3.716  11.006  0.00  0.00    +0.020 A 
ATOM     17  C   LIG    1       -3.100   2.835  11.586  0.00  0.00    -0.040 A 
ATOM     18  S   LIG    1       -2.468   1.724  10.377  0.00  0.00    +0.120 S 
ENDBRANCH   4  14
BRANCH   1  20
ATOM     19  O   LIG    1       -4.396   3.616   3.859  0.00  0.00    -0.530 OA
ATOM     20  C   LIG    1       -3.915   2.525   4.093  0.00  0.00    +0.610 C 
ATOM     21  N   LIG    1       -3.665   1.667   3.084  0.00  0.00    -0.710 N 
ATOM     22  H   LIG    1       -3.281   0.797   3.271  0.00  0.00    +0.410 HD
BRANCH  21  23
ATOM     23  C   LIG    1       -3.974   2.051   1.704  0.00  0.00    +0.300 C 
BRANCH  23  24
ATOM     24  C   LIG    1       -3.598   0.906   0.760  0.00  0.00    +0.140 C 
ATOM     25  C   LIG    1       -3.916   1.289  -0.702  0.00  0.00    +0.010 C 
ATOM     26  C   LIG    1       -2.757   0.667  -1.513  0.00  0.00    +0.000 C 
ATOM     27  C   LIG    1       -1.876  -0.017  -0.445  0.00  0.00    +0.190 C 
ATOM     28  O   LIG    1       -2.169   0.685   0.783  0.00  0.00    -0.370 OA
ENDBRANCH  23  24
ENDBRANCH  21  23
ENDBRANCH   1  20
TORSDOF 5
