REMARK  Name = ZINCqH0000038ggI.0
REMARK                            x       y       z     vdW  Elec       q    Type
REMARK                         _______ _______ _______ _____ _____    ______ ____
ROOT
ATOM      1  C   LIG    1        7.325   8.985   2.474  0.00  0.00    +0.090 C 
ATOM      2  C   LIG    1        6.647   7.640   2.527  0.00  0.00    -0.080 A 
ATOM      3  C   LIG    1        5.279   7.561   2.713  0.00  0.00    +0.000 A 
ATOM      4  C   LIG    1        4.666   6.325   2.766  0.00  0.00    +0.010 A 
ATOM      5  C   LIG    1        5.413   5.163   2.634  0.00  0.00    -0.110 A 
ATOM      6  C   LIG    1        4.686   3.849   2.722  0.00  0.00    +0.320 C 
ATOM      7  N   LIG    1        5.576   2.757   2.311  0.00  0.00    -0.630 N 
ATOM      8  C   LIG    1        6.955   2.779   2.827  0.00  0.00    +0.310 C 
ATOM      9  C   LIG    1        7.646   4.024   2.271  0.00  0.00    +0.070 C 
ATOM     10  C   LIG    1        5.151   1.778   1.489  0.00  0.00    +0.720 C 
ATOM     11  N   LIG    1        3.916   1.837   0.953  0.00  0.00    -0.750 N 
ATOM     12  H   LIG    1        3.305   2.542   1.218  0.00  0.00    +0.400 HD
ATOM     13  O   LIG    1        5.881   0.841   1.231  0.00  0.00    -0.570 OA
ATOM     14  C   LIG    1        6.774   5.240   2.439  0.00  0.00    -0.060 A 
ATOM     15  C   LIG    1        7.388   6.485   2.390  0.00  0.00    +0.000 A 
ENDROOT
BRANCH  11  16
ATOM     16  C   LIG    1        3.495   0.836  -0.031  0.00  0.00    +0.410 C 
BRANCH  16  17
ATOM     17  C   LIG    1        1.993   0.719  -0.017  0.00  0.00    +0.170 A 
ATOM     18  N   LIG    1        1.296  -0.392  -0.022  0.00  0.00    -0.460 NA
ATOM     19  C   LIG    1        0.007  -0.011  -0.005  0.00  0.00    +0.210 A 
ATOM     20  N   LIG    1       -0.015   1.288   0.009  0.00  0.00    -0.380 NA
ATOM     21  O   LIG    1        1.116   1.727   0.003  0.00  0.00    +0.080 OA
BRANCH  19  22
ATOM     22  C   LIG    1       -1.193  -0.923  -0.003  0.00  0.00    +0.060 C 
ATOM     23  C   LIG    1       -2.569  -0.280  -0.186  0.00  0.00    +0.050 C 
ATOM     24  C   LIG    1       -2.155  -0.823   1.183  0.00  0.00    +0.060 C 
ENDBRANCH  19  22
ENDBRANCH  16  17
BRANCH  16  25
ATOM     25  C   LIG    1        3.961   1.263  -1.424  0.00  0.00    -0.020 C 
ATOM     26  C   LIG    1        3.522   0.217  -2.451  0.00  0.00    +0.040 C 
ATOM     27  C   LIG    1        5.486   1.382  -1.438  0.00  0.00    +0.050 C 
ENDBRANCH  16  25
ENDBRANCH  11  16
TORSDOF 4
