REMARK  Name = ZINCpk00000ebsJB.0
REMARK                            x       y       z     vdW  Elec       q    Type
REMARK                         _______ _______ _______ _____ _____    ______ ____
ROOT
ATOM      1  C   LIG    1        0.661   5.834   0.029  0.00  0.00    +0.210 C 
ENDROOT
BRANCH   1   2
ATOM      2  N   LIG    1        0.407   4.391   0.023  0.00  0.00    -0.510 NA
ATOM      3  C   LIG    1        1.405   3.555   0.009  0.00  0.00    +0.380 C 
ATOM      4  N   LIG    1        2.705   3.993  -0.001  0.00  0.00    -1.050 N 
ATOM      5  H   LIG    1        3.013   4.912   0.002  0.00  0.00    +0.450 HD
ATOM      6  S   LIG    1        3.646   2.612  -0.018  0.00  0.00    +2.670 S 
ATOM      7  C   LIG    1        2.380   1.373  -0.013  0.00  0.00    -0.630 A 
ATOM      8  C   LIG    1        2.395   0.004  -0.021  0.00  0.00    +0.150 A 
ATOM      9  C   LIG    1        1.199  -0.697  -0.014  0.00  0.00    +0.040 A 
ATOM     10  C   LIG    1        0.002  -0.004   0.002  0.00  0.00    +0.070 A 
ATOM     11  C   LIG    1       -0.017   1.372   0.010  0.00  0.00    +0.100 A 
ATOM     12  O   LIG    1        4.295   2.554  -1.280  0.00  0.00    -0.930 OA
ATOM     13  O   LIG    1        4.319   2.539   1.231  0.00  0.00    -0.930 OA
ATOM     14  C   LIG    1        1.185   2.099   0.002  0.00  0.00    -0.020 A 
ENDBRANCH   1   2
BRANCH   1  15
ATOM     15  C   LIG    1        0.137   6.450  -1.270  0.00  0.00    +0.070 C 
BRANCH  15  17
ATOM     16  O   LIG    1        0.949   8.449  -0.313  0.00  0.00    -0.540 OA
ATOM     17  C   LIG    1        0.398   7.934  -1.263  0.00  0.00    +0.510 C 
ATOM     18  N   LIG    1        0.019   8.689  -2.313  0.00  0.00    -0.730 N 
ATOM     19  H   LIG    1       -0.422   8.278  -3.073  0.00  0.00    +0.400 HD
BRANCH  18  20
ATOM     20  C   LIG    1        0.273  10.132  -2.307  0.00  0.00    +0.260 C 
BRANCH  20  21
ATOM     21  C   LIG    1       -0.251  10.748  -3.606  0.00  0.00    +0.070 C 
BRANCH  21  22
ATOM     22  C   LIG    1        0.010  12.232  -3.599  0.00  0.00    -0.090 A 
ATOM     23  C   LIG    1       -0.937  13.098  -3.085  0.00  0.00    +0.010 A 
ATOM     24  C   LIG    1       -0.695  14.459  -3.074  0.00  0.00    +0.000 A 
ATOM     25  C   LIG    1        0.489  14.955  -3.588  0.00  0.00    +0.000 A 
ATOM     26  C   LIG    1        1.433  14.089  -4.107  0.00  0.00    +0.000 A 
ATOM     27  C   LIG    1        1.194  12.728  -4.113  0.00  0.00    +0.010 A 
ENDBRANCH  21  22
ENDBRANCH  20  21
ENDBRANCH  18  20
ENDBRANCH  15  17
ENDBRANCH   1  15
TORSDOF 6
