REMARK  Name = ZINCvU0000000Jxn.0
REMARK                            x       y       z     vdW  Elec       q    Type
REMARK                         _______ _______ _______ _____ _____    ______ ____
ROOT
ATOM      1  C   LIG    1        1.796   3.715  -0.171  0.00  0.00    +0.500 C 
ATOM      2  N   LIG    1        1.351   2.520  -0.608  0.00  0.00    -0.610 N 
ATOM      3  C   LIG    1       -0.087   2.220  -0.633  0.00  0.00    +0.270 C 
ATOM      4  C   LIG    1       -0.332   0.914   0.130  0.00  0.00    +0.010 C 
ATOM      5  C   LIG    1        0.551  -0.189  -0.459  0.00  0.00    +0.020 C 
ATOM      6  C   LIG    1        2.024   0.195  -0.300  0.00  0.00    +0.020 C 
ATOM      7  C   LIG    1        2.295   1.492  -1.068  0.00  0.00    +0.320 C 
ATOM      8  O   LIG    1        2.974   3.990  -0.253  0.00  0.00    -0.480 OA
ENDROOT
BRANCH   7   9
ATOM      9  C   LIG    1        3.707   1.949  -0.804  0.00  0.00    +0.130 A 
ATOM     10  N   LIG    1        4.527   2.313  -1.716  0.00  0.00    -0.470 NA
ATOM     11  C   LIG    1        5.760   2.699  -1.335  0.00  0.00    +0.100 A 
ATOM     12  C   LIG    1        6.847   3.141  -2.116  0.00  0.00    +0.060 A 
ATOM     13  C   LIG    1        8.025   3.487  -1.527  0.00  0.00    +0.020 A 
ATOM     14  C   LIG    1        8.178   3.412  -0.150  0.00  0.00    +0.020 A 
ATOM     15  C   LIG    1        7.134   2.984   0.639  0.00  0.00    +0.050 A 
ATOM     16  C   LIG    1        5.922   2.625   0.053  0.00  0.00    -0.160 A 
ATOM     17  S   LIG    1        4.409   2.052   0.748  0.00  0.00    +0.120 S 
ENDBRANCH   7   9
BRANCH   1  18
ATOM     18  C   LIG    1        0.829   4.709   0.418  0.00  0.00    +0.070 C 
BRANCH  18  30
ATOM     19  C   LIG    1        4.011   7.200  -1.869  0.00  0.00    +0.090 C 
ATOM     20  C   LIG    1        3.449   6.526  -0.643  0.00  0.00    +0.520 C 
ATOM     21  N   LIG    1        2.136   6.628  -0.360  0.00  0.00    -0.560 N 
ATOM     22  C   LIG    1        1.296   7.354  -1.196  0.00  0.00    +0.240 C 
ATOM     23  C   LIG    1        0.245   7.999  -0.677  0.00  0.00    -0.040 C 
ATOM     24  C   LIG    1       -0.017   7.903   0.772  0.00  0.00    -0.030 A 
ATOM     25  C   LIG    1       -0.925   8.758   1.394  0.00  0.00    +0.020 A 
ATOM     26  C   LIG    1       -1.142   8.653   2.753  0.00  0.00    +0.010 A 
ATOM     27  C   LIG    1       -0.469   7.699   3.494  0.00  0.00    +0.000 A 
ATOM     28  C   LIG    1        0.419   6.833   2.879  0.00  0.00    +0.020 A 
ATOM     29  C   LIG    1        0.640   6.923   1.523  0.00  0.00    -0.100 A 
ATOM     30  C   LIG    1        1.585   5.973   0.832  0.00  0.00    +0.320 C 
ATOM     31  O   LIG    1        4.180   5.892   0.088  0.00  0.00    -0.480 OA
ENDBRANCH  18  30
ENDBRANCH   1  18
TORSDOF 3
