REMARK  Name = ZINCvU00000007R4.0
REMARK                            x       y       z     vdW  Elec       q    Type
REMARK                         _______ _______ _______ _____ _____    ______ ____
ROOT
ATOM      1  O   LIG    1        6.987  -1.069  -0.368  0.00  0.00    -0.440 OA
ATOM      2  C   LIG    1        6.709   0.112  -0.354  0.00  0.00    +0.540 C 
ATOM      3  N   LIG    1        7.687   1.032  -0.238  0.00  0.00    -0.520 N 
ENDROOT
BRANCH   3   4
ATOM      4  C   LIG    1        9.018   0.636  -0.238  0.00  0.00    +0.310 A 
ATOM      5  N   LIG    1        9.436  -0.587  -0.339  0.00  0.00    -0.460 NA
ATOM      6  C   LIG    1       10.748  -0.778  -0.324  0.00  0.00    +0.140 A 
ATOM      7  C   LIG    1       11.491   0.335  -0.196  0.00  0.00    -0.060 A 
ATOM      8  S   LIG    1       10.402   1.716  -0.095  0.00  0.00    +0.100 S 
BRANCH   6   9
ATOM      9  C   LIG    1       11.354  -2.128  -0.436  0.00  0.00    -0.020 A 
ATOM     10  C   LIG    1       12.739  -2.276  -0.416  0.00  0.00    +0.040 A 
ATOM     11  C   LIG    1       13.298  -3.534  -0.516  0.00  0.00    +0.030 A 
ATOM     12  C   LIG    1       12.484  -4.647  -0.646  0.00  0.00    -0.030 A 
ATOM     13  C   LIG    1       11.107  -4.504  -0.672  0.00  0.00    +0.030 A 
ATOM     14 CL   LIG    1       13.193  -6.226  -0.778  0.00  0.00    -0.070 Cl
ATOM     15  C   LIG    1       10.539  -3.251  -0.568  0.00  0.00    +0.080 A 
ENDBRANCH   6   9
ENDBRANCH   3   4
BRANCH   3  16
ATOM     16  C   LIG    1        7.345   2.451  -0.111  0.00  0.00    +0.350 C 
BRANCH  16  17
ATOM     17  C   LIG    1        7.248   2.817   1.348  0.00  0.00    -0.130 A 
ATOM     18  C   LIG    1        6.039   2.703   2.010  0.00  0.00    +0.010 A 
ATOM     19  C   LIG    1        5.952   3.034   3.349  0.00  0.00    +0.010 A 
ATOM     20  C   LIG    1        7.069   3.487   4.024  0.00  0.00    +0.030 A 
ATOM     21  C   LIG    1        8.277   3.606   3.360  0.00  0.00    +0.020 A 
ATOM     22  C   LIG    1        8.366   3.270   2.022  0.00  0.00    +0.030 A 
ENDBRANCH  16  17
ENDBRANCH   3  16
BRANCH   2  23
ATOM     23  C   LIG    1        5.272   0.549  -0.467  0.00  0.00    +0.070 C 
BRANCH  23  24
ATOM     24  S   LIG    1        4.196  -0.912  -0.498  0.00  0.00    +0.120 S 
BRANCH  24  25
ATOM     25  C   LIG    1        2.584  -0.214  -0.630  0.00  0.00    +0.060 C 
ATOM     26  C   LIG    1        2.438   1.117  -1.003  0.00  0.00    +0.010 C 
ATOM     27  C   LIG    1        1.165   1.653  -1.103  0.00  0.00    +0.100 C 
ATOM     28  C   LIG    1        0.078   0.836  -0.826  0.00  0.00    +0.040 C 
ATOM     29  C   LIG    1        0.296  -0.479  -0.460  0.00  0.00    +0.290 C 
ATOM     30  N   LIG    1        1.521  -0.963  -0.372  0.00  0.00    -0.110 NA
ATOM     31  O   LIG    1        1.704  -2.315   0.005  0.00  0.00    -0.530 OA
ENDBRANCH  24  25
ENDBRANCH  23  24
ENDBRANCH   2  23
TORSDOF 7
