REMARK  Name = ZINCrH000004udYJ.0
REMARK                            x       y       z     vdW  Elec       q    Type
REMARK                         _______ _______ _______ _____ _____    ______ ____
ROOT
ATOM      1  C   LIG    1        0.002  -0.004   0.002  0.00  0.00    +0.310 C 
ENDROOT
BRANCH   1   2
ATOM      2  N   LIG    1       -1.372  -0.511   0.012  0.00  0.00    -0.580 N 
ATOM      3  C   LIG    1       -2.002  -0.760   1.238  0.00  0.00    +0.190 A 
ATOM      4  C   LIG    1       -1.287  -1.285   2.299  0.00  0.00    -0.020 A 
ATOM      5  C   LIG    1       -1.918  -1.528   3.507  0.00  0.00    +0.050 A 
ATOM      6  C   LIG    1       -3.261  -1.243   3.663  0.00  0.00    +0.000 A 
ATOM      7  C   LIG    1       -3.986  -0.710   2.609  0.00  0.00    +0.070 A 
ATOM      8  C   LIG    1       -3.360  -0.466   1.401  0.00  0.00    -0.150 A 
ATOM      9  S   LIG    1       -4.261   0.214   0.044  0.00  0.00    +0.010 S 
ATOM     10  C   LIG    1       -3.387  -0.453  -1.337  0.00  0.00    -0.150 A 
ATOM     11  C   LIG    1       -4.036  -0.685  -2.535  0.00  0.00    +0.070 A 
ATOM     12  C   LIG    1       -3.331  -1.205  -3.609  0.00  0.00    +0.000 A 
ATOM     13  C   LIG    1       -1.985  -1.489  -3.482  0.00  0.00    +0.050 A 
ATOM     14  C   LIG    1       -1.331  -1.260  -2.284  0.00  0.00    -0.020 A 
ATOM     15  C   LIG    1       -2.027  -0.742  -1.203  0.00  0.00    +0.190 A 
ENDBRANCH   1   2
BRANCH   1  16
ATOM     16  C   LIG    1       -0.019   1.526   0.010  0.00  0.00    +0.010 C 
BRANCH  16  17
ATOM     17  C   LIG    1        1.417   2.055  -0.000  0.00  0.00    +0.280 C 
BRANCH  17  20
ATOM     18  O   LIG    1        3.615   3.617  -0.013  0.00  0.00    -0.520 OA
ATOM     19  C   LIG    1        2.555   4.210   0.000  0.00  0.00    +0.560 C 
ATOM     20  N   LIG    1        1.397   3.520   0.008  0.00  0.00    -0.720 N 
ATOM     21  H   LIG    1        0.550   3.994   0.018  0.00  0.00    +0.400 HD
BRANCH  19  22
ATOM     22  C   LIG    1        2.535   5.689   0.008  0.00  0.00    -0.100 C 
ATOM     23  C   LIG    1        1.325   6.392   0.018  0.00  0.00    +0.080 C 
ATOM     24  C   LIG    1        1.352   7.772   0.030  0.00  0.00    +0.260 C 
ATOM     25  N   LIG    1        2.498   8.427   0.023  0.00  0.00    -0.110 NA
ATOM     26  C   LIG    1        3.661   7.803   0.009  0.00  0.00    +0.260 C 
ATOM     27  O   LIG    1        2.478   9.843   0.030  0.00  0.00    -0.530 OA
ATOM     28  C   LIG    1        3.725   6.425   0.001  0.00  0.00    +0.120 C 
ENDBRANCH  19  22
ENDBRANCH  17  20
ENDBRANCH  16  17
ENDBRANCH   1  16
TORSDOF 5
