REMARK  Name = ZINCb800000011hU.0
REMARK                            x       y       z     vdW  Elec       q    Type
REMARK                         _______ _______ _______ _____ _____    ______ ____
ROOT
ATOM      1  N   LIG    1       -2.987   4.034   0.052  0.00  0.00    -0.730 N 
ATOM      2  H   LIG    1       -3.361   3.139   0.051  0.00  0.00    +0.400 HD
ATOM      3  C   LIG    1       -1.651   4.207   0.041  0.00  0.00    +0.600 C 
ATOM      4  O   LIG    1       -1.183   5.330   0.042  0.00  0.00    -0.530 OA
ENDROOT
BRANCH   3   5
ATOM      5  C   LIG    1       -0.757   3.037   0.026  0.00  0.00    -0.230 A 
ATOM      6  C   LIG    1       -1.127   1.720   0.016  0.00  0.00    +0.220 A 
ATOM      7  N   LIG    1       -0.011   0.966   0.007  0.00  0.00    -0.550 N 
ATOM      8  H   LIG    1        0.002  -0.004   0.002  0.00  0.00    +0.420 HD
ATOM      9  C   LIG    1        1.098   1.761   0.001  0.00  0.00    +0.150 A 
ATOM     10  C   LIG    1        0.710   3.048   0.012  0.00  0.00    +0.010 A 
ENDBRANCH   3   5
BRANCH   1  11
ATOM     11  C   LIG    1       -3.877   5.198   0.067  0.00  0.00    +0.460 C 
BRANCH  11  13
ATOM     12  N   LIG    1       -6.358   4.396   0.086  0.00  0.00    -0.400 NA
ATOM     13  C   LIG    1       -5.277   4.745   0.078  0.00  0.00    +0.190 C 
ENDBRANCH  11  13
ENDBRANCH   1  11
TORSDOF 3
