REMARK  Name = ZINCqH0000005hsx.0
REMARK                            x       y       z     vdW  Elec       q    Type
REMARK                         _______ _______ _______ _____ _____    ______ ____
ROOT
ATOM      1  C   LIG    1       -2.891   2.019  -2.111  0.00  0.00    +0.010 A 
ATOM      2  N   LIG    1       -2.064   1.821  -3.120  0.00  0.00    -0.250 NA
ATOM      3  N   LIG    1       -1.081   1.083  -2.748  0.00  0.00    -0.220 N 
ATOM      4  C   LIG    1       -1.218   0.750  -1.435  0.00  0.00    -0.010 A 
ATOM      5  C   LIG    1       -0.561  -0.022  -0.313  0.00  0.00    +0.130 C 
ATOM      6  C   LIG    1       -1.219   0.509   0.980  0.00  0.00    +0.050 C 
ATOM      7  C   LIG    1       -2.588   1.009   0.459  0.00  0.00    +0.110 C 
ATOM      8  C   LIG    1       -2.357   1.329  -0.999  0.00  0.00    -0.150 A 
ENDROOT
BRANCH   3   9
ATOM      9  C   LIG    1       -0.022   0.680  -3.572  0.00  0.00    +0.130 A 
ATOM     10  C   LIG    1        1.258   0.556  -3.050  0.00  0.00    +0.010 A 
ATOM     11  C   LIG    1        2.299   0.154  -3.864  0.00  0.00    +0.040 A 
ATOM     12  C   LIG    1        2.068  -0.116  -5.200  0.00  0.00    +0.020 A 
ATOM     13  C   LIG    1        0.795   0.012  -5.725  0.00  0.00    +0.040 A 
ATOM     14  C   LIG    1       -0.251   0.409  -4.915  0.00  0.00    +0.040 A 
ENDBRANCH   3   9
BRANCH   1  17
ATOM     15  C   LIG    1       -3.632   3.418  -4.444  0.00  0.00    +0.300 C 
ATOM     16  N   LIG    1       -4.472   3.502  -3.247  0.00  0.00    -0.600 N 
ATOM     17  C   LIG    1       -4.137   2.811  -2.139  0.00  0.00    +0.610 C 
ATOM     18  O   LIG    1       -4.860   2.840  -1.162  0.00  0.00    -0.520 OA
BRANCH  16  19
ATOM     19  C   LIG    1       -5.675   4.337  -3.253  0.00  0.00    +0.340 C 
BRANCH  19  20
ATOM     20  C   LIG    1       -5.323   5.729  -2.797  0.00  0.00    -0.080 A 
ATOM     21  C   LIG    1       -5.392   6.055  -1.455  0.00  0.00    +0.030 A 
ATOM     22  C   LIG    1       -5.064   7.330  -1.034  0.00  0.00    +0.040 A 
ATOM     23  C   LIG    1       -4.678   8.285  -1.956  0.00  0.00    -0.010 A 
ATOM     24  C   LIG    1       -4.614   7.962  -3.301  0.00  0.00    +0.090 A 
ATOM     25  F   LIG    1       -4.237   8.894  -4.203  0.00  0.00    -0.140 F 
ATOM     26  C   LIG    1       -4.938   6.682  -3.720  0.00  0.00    -0.010 A 
ENDBRANCH  19  20
ENDBRANCH  16  19
ENDBRANCH   1  17
TORSDOF 4
