REMARK  Name = ZINCkj00000y7KMT.0
REMARK                            x       y       z     vdW  Elec       q    Type
REMARK                         _______ _______ _______ _____ _____    ______ ____
ROOT
ATOM      1  N   LIG    1        0.404  -1.027  -3.615  0.00  0.00    -0.750 N 
ATOM      2  H   LIG    1        0.839  -0.428  -4.242  0.00  0.00    +0.400 HD
ATOM      3  C   LIG    1        0.389  -2.354  -3.851  0.00  0.00    +0.710 C 
ATOM      4  N   LIG    1        0.980  -2.849  -4.957  0.00  0.00    -0.730 N 
ATOM      5  H   LIG    1        1.415  -2.250  -5.583  0.00  0.00    +0.400 HD
ATOM      6  O   LIG    1       -0.156  -3.105  -3.065  0.00  0.00    -0.570 OA
ENDROOT
BRANCH   1   7
ATOM      7  C   LIG    1       -0.238  -0.489  -2.413  0.00  0.00    +0.300 C 
BRANCH   7   8
ATOM      8  C   LIG    1       -0.078   1.032  -2.388  0.00  0.00    +0.250 C 
BRANCH   8  15
ATOM      9  C   LIG    1        0.775   3.508  -1.197  0.00  0.00    +0.090 C 
ATOM     10  C   LIG    1       -0.681   3.038  -1.222  0.00  0.00    +0.170 C 
ATOM     11  C   LIG    1       -1.421   3.606  -0.009  0.00  0.00    +0.060 C 
ATOM     12  C   LIG    1       -0.745   3.110   1.272  0.00  0.00    +0.040 C 
ATOM     13  C   LIG    1       -0.728   1.579   1.268  0.00  0.00    +0.060 C 
ATOM     14  C   LIG    1       -0.013   1.086   0.008  0.00  0.00    +0.240 C 
ATOM     15  N   LIG    1       -0.722   1.571  -1.182  0.00  0.00    -0.370 N 
ATOM     16  H   LIG    1       -1.682   1.265  -1.149  0.00  0.00    +0.430 HD
ENDBRANCH   8  15
ENDBRANCH   7   8
ENDBRANCH   1   7
BRANCH   4  17
ATOM     17  C   LIG    1        0.964  -4.292  -5.212  0.00  0.00    +0.300 C 
BRANCH  17  18
ATOM     18  C   LIG    1       -0.340  -4.670  -5.917  0.00  0.00    -0.050 C 
ATOM     19  C   LIG    1       -1.242  -3.530  -6.396  0.00  0.00    +0.010 C 
ATOM     20  C   LIG    1       -1.651  -4.373  -5.185  0.00  0.00    +0.030 C 
ENDBRANCH  17  18
BRANCH  17  21
ATOM     21  C   LIG    1        2.151  -4.665  -6.102  0.00  0.00    +0.040 C 
BRANCH  21  22
ATOM     22  C   LIG    1        3.456  -4.402  -5.348  0.00  0.00    +0.170 C 
BRANCH  22  23
ATOM     23  O   LIG    1        4.565  -4.751  -6.178  0.00  0.00    -0.570 OA
ATOM     24  H   LIG    1        5.427  -4.610  -5.764  0.00  0.00    +0.380 HD
ENDBRANCH  22  23
ENDBRANCH  21  22
ENDBRANCH  17  21
ENDBRANCH   4  17
TORSDOF 8
