REMARK  Name = ZINCkj00000y7KMT.1
REMARK                            x       y       z     vdW  Elec       q    Type
REMARK                         _______ _______ _______ _____ _____    ______ ____
ROOT
ATOM      1  N   LIG    1       -0.011   0.966   0.007  0.00  0.00    -0.750 N 
ATOM      2  H   LIG    1        0.002  -0.004   0.002  0.00  0.00    +0.400 HD
ATOM      3  C   LIG    1       -1.187   1.624   0.017  0.00  0.00    +0.710 C 
ATOM      4  N   LIG    1       -2.345   0.934   0.018  0.00  0.00    -0.730 N 
ATOM      5  H   LIG    1       -2.332  -0.036   0.013  0.00  0.00    +0.400 HD
ATOM      6  O   LIG    1       -1.204   2.840   0.023  0.00  0.00    -0.570 OA
ENDROOT
BRANCH   1   7
ATOM      7  C   LIG    1        1.248   1.716  -0.001  0.00  0.00    +0.300 C 
BRANCH   7   8
ATOM      8  C   LIG    1        2.424   0.737  -0.017  0.00  0.00    +0.250 C 
BRANCH   8  15
ATOM      9  C   LIG    1        4.651  -0.292   1.348  0.00  0.00    +0.080 C 
ATOM     10  C   LIG    1        4.812   0.553   0.083  0.00  0.00    +0.170 C 
ATOM     11  C   LIG    1        6.125   1.336   0.159  0.00  0.00    +0.060 C 
ATOM     12  C   LIG    1        6.282   2.179  -1.110  0.00  0.00    +0.040 C 
ATOM     13  C   LIG    1        5.066   3.099  -1.254  0.00  0.00    +0.050 C 
ATOM     14  C   LIG    1        3.792   2.251  -1.275  0.00  0.00    +0.250 C 
ATOM     15  N   LIG    1        3.686   1.489  -0.025  0.00  0.00    -0.380 N 
ATOM     16  H   LIG    1        3.702   2.125   0.758  0.00  0.00    +0.420 HD
ENDBRANCH   8  15
ENDBRANCH   7   8
ENDBRANCH   1   7
BRANCH   4  17
ATOM     17  C   LIG    1       -3.624   1.649   0.028  0.00  0.00    +0.300 C 
BRANCH  17  18
ATOM     18  C   LIG    1       -4.014   2.016  -1.405  0.00  0.00    -0.050 C 
ATOM     19  C   LIG    1       -3.175   1.425  -2.539  0.00  0.00    +0.010 C 
ATOM     20  C   LIG    1       -3.055   2.911  -2.192  0.00  0.00    +0.030 C 
ENDBRANCH  17  18
BRANCH  17  21
ATOM     21  C   LIG    1       -4.704   0.754   0.638  0.00  0.00    +0.040 C 
BRANCH  21  22
ATOM     22  C   LIG    1       -4.377   0.489   2.109  0.00  0.00    +0.170 C 
BRANCH  22  23
ATOM     23  O   LIG    1       -5.386  -0.347   2.679  0.00  0.00    -0.570 OA
ATOM     24  H   LIG    1       -5.243  -0.556   3.612  0.00  0.00    +0.380 HD
ENDBRANCH  22  23
ENDBRANCH  21  22
ENDBRANCH  17  21
ENDBRANCH   4  17
TORSDOF 8
