REMARK  Name = ZINCpk00000ebcIb.0
REMARK                            x       y       z     vdW  Elec       q    Type
REMARK                         _______ _______ _______ _____ _____    ______ ____
ROOT
ATOM      1  C   LIG    1       -1.293  -0.775   0.010  0.00  0.00    +0.170 C 
ATOM      2  C   LIG    1       -2.088  -0.423   1.269  0.00  0.00    +0.100 C 
ENDROOT
BRANCH   1   3
ATOM      3  N   LIG    1       -1.005  -2.212  -0.000  0.00  0.00    -0.490 NA
ATOM      4  C   LIG    1       -1.440  -2.956  -0.977  0.00  0.00    +0.400 C 
ATOM      5  N   LIG    1       -2.174  -2.425  -2.007  0.00  0.00    -1.050 N 
ATOM      6  H   LIG    1       -2.438  -1.499  -2.123  0.00  0.00    +0.450 HD
ATOM      7  S   LIG    1       -2.517  -3.707  -3.023  0.00  0.00    +2.670 S 
ATOM      8  C   LIG    1       -1.720  -5.022  -2.145  0.00  0.00    -0.630 A 
ATOM      9  C   LIG    1       -1.582  -6.365  -2.371  0.00  0.00    +0.160 A 
ATOM     10  C   LIG    1       -0.878  -7.147  -1.468  0.00  0.00    +0.050 A 
ATOM     11  C   LIG    1       -0.323  -6.559  -0.345  0.00  0.00    +0.080 A 
ATOM     12  C   LIG    1       -0.461  -5.209  -0.114  0.00  0.00    +0.100 A 
ATOM     13  O   LIG    1       -3.917  -3.939  -2.961  0.00  0.00    -0.930 OA
ATOM     14  O   LIG    1       -1.797  -3.503  -4.231  0.00  0.00    -0.930 OA
ATOM     15  C   LIG    1       -1.170  -4.402  -1.018  0.00  0.00    -0.020 A 
ENDBRANCH   1   3
BRANCH   1  16
ATOM     16  C   LIG    1        0.002  -0.004   0.002  0.00  0.00    +0.470 C 
ATOM     17  O   LIG    1        1.056  -0.594  -0.011  0.00  0.00    -0.480 OA
BRANCH  16  18
ATOM     18  O   LIG    1       -0.016   1.338   0.009  0.00  0.00    -0.350 OA
BRANCH  18  19
ATOM     19  C   LIG    1        1.268   2.015   0.001  0.00  0.00    +0.330 C 
BRANCH  19  26
ATOM     20  C   LIG    1        0.971   3.992  -2.554  0.00  0.00    +0.160 C 
ATOM     21  C   LIG    1        0.921   4.374  -1.097  0.00  0.00    +0.040 A 
ATOM     22  N   LIG    1        0.745   5.569  -0.610  0.00  0.00    -0.360 NA
ATOM     23  O   LIG    1        0.756   5.562   0.599  0.00  0.00    +0.100 OA
ATOM     24  C   LIG    1        0.941   4.325   1.084  0.00  0.00    +0.010 A 
ATOM     25  C   LIG    1        1.011   3.926   2.535  0.00  0.00    +0.190 C 
ATOM     26  C   LIG    1        1.051   3.506   0.011  0.00  0.00    -0.220 A 
ENDBRANCH  19  26
ENDBRANCH  18  19
ENDBRANCH  16  18
ENDBRANCH   1  16
TORSDOF 5
