REMARK  Name = ZINCkj000005iB9y.0
REMARK                            x       y       z     vdW  Elec       q    Type
REMARK                         _______ _______ _______ _____ _____    ______ ____
ROOT
ATOM      1  C   LIG    1       -1.704   6.048   2.909  0.00  0.00    +0.620 C 
ATOM      2  N   LIG    1       -1.470   7.300   2.470  0.00  0.00    -0.720 N 
ATOM      3  H   LIG    1       -0.999   7.441   1.633  0.00  0.00    +0.420 HD
ATOM      4  O   LIG    1       -2.295   5.872   3.957  0.00  0.00    -0.490 OA
ENDROOT
BRANCH   1   8
ATOM      5  C   LIG    1       -0.787   2.890   1.346  0.00  0.00    +0.210 A 
ATOM      6  N   LIG    1       -0.341   3.813   0.537  0.00  0.00    -0.380 NA
ATOM      7  O   LIG    1       -0.583   4.925   0.945  0.00  0.00    +0.120 OA
ATOM      8  C   LIG    1       -1.244   4.890   2.117  0.00  0.00    -0.090 A 
ATOM      9  C   LIG    1       -1.410   3.569   2.425  0.00  0.00    +0.070 A 
BRANCH   5  11
ATOM     10  C   LIG    1       -0.013   1.086   0.008  0.00  0.00    +0.260 C 
ATOM     11  O   LIG    1       -0.682   1.547   1.184  0.00  0.00    -0.280 OA
ENDBRANCH   5  11
ENDBRANCH   1   8
BRANCH   2  12
ATOM     12  C   LIG    1       -1.926   8.449   3.255  0.00  0.00    +0.300 C 
BRANCH  12  13
ATOM     13  C   LIG    1       -1.536   9.744   2.539  0.00  0.00    +0.260 C 
BRANCH  13  14
ATOM     14  N   LIG    1       -1.994  10.896   3.327  0.00  0.00    -0.380 N 
ATOM     15  C   LIG    1       -3.461  10.902   3.376  0.00  0.00    +0.250 C 
ATOM     16  C   LIG    1       -3.941  12.052   4.264  0.00  0.00    +0.010 C 
ATOM     17  C   LIG    1       -3.444  13.379   3.682  0.00  0.00    +0.050 C 
ATOM     18  C   LIG    1       -1.918  13.334   3.565  0.00  0.00    -0.010 C 
ATOM     19  C   LIG    1       -1.417  14.624   2.912  0.00  0.00    +0.070 C 
ATOM     20  C   LIG    1       -3.385  11.875   5.678  0.00  0.00    +0.040 C 
ATOM     21  C   LIG    1       -1.513  12.135   2.704  0.00  0.00    +0.260 C 
ATOM     22  H   LIG    1       -1.627  10.828   4.265  0.00  0.00    +0.420 HD
ENDBRANCH  13  14
ENDBRANCH  12  13
ENDBRANCH   2  12
TORSDOF 5
