REMARK  Name = ZINCtj0000001AZK.1
REMARK                            x       y       z     vdW  Elec       q    Type
REMARK                         _______ _______ _______ _____ _____    ______ ____
ROOT
ATOM      1  C   LIG    1       -1.160   2.529   3.441  0.00  0.00    +0.090 C 
ENDROOT
BRANCH   1   9
ATOM      2  C   LIG    1       -2.763  -0.736  -3.272  0.00  0.00    +0.340 C 
ATOM      3  N   LIG    1       -2.353   0.548  -2.689  0.00  0.00    -0.400 N 
ATOM      4  C   LIG    1       -0.936   0.491  -2.248  0.00  0.00    +0.280 C 
ATOM      5  C   LIG    1       -0.804   1.619  -1.204  0.00  0.00    -0.090 C 
ATOM      6  C   LIG    1       -0.013   1.086   0.008  0.00  0.00    +0.290 C 
ATOM      7  N   LIG    1       -0.750   1.585   1.192  0.00  0.00    -0.630 N 
ATOM      8  C   LIG    1       -2.178   1.438   0.818  0.00  0.00    +0.300 C 
ATOM      9  C   LIG    1       -0.238   2.064   2.343  0.00  0.00    +0.540 C 
ATOM     10  O   LIG    1        0.964   2.121   2.495  0.00  0.00    -0.520 OA
ATOM     11  C   LIG    1       -0.184   2.888  -1.793  0.00  0.00    +0.090 C 
ATOM     12  C   LIG    1       -2.242   1.853  -0.667  0.00  0.00    -0.080 C 
ATOM     13  C   LIG    1       -2.713   3.296  -0.861  0.00  0.00    +0.090 C 
ATOM     14  C   LIG    1       -3.112   0.822  -1.442  0.00  0.00    +0.280 C 
ATOM     15  H   LIG    1       -2.486   1.296  -3.354  0.00  0.00    +0.430 HD
ENDBRANCH   1   9
BRANCH   1  16
ATOM     16  C   LIG    1       -0.330   3.021   4.628  0.00  0.00    +0.070 C 
BRANCH  16  17
ATOM     17  C   LIG    1       -1.252   3.486   5.727  0.00  0.00    +0.520 C 
ATOM     18  N   LIG    1       -0.740   3.965   6.878  0.00  0.00    -0.610 N 
ATOM     19  C   LIG    1        0.714   4.037   7.086  0.00  0.00    +0.300 C 
ATOM     20  C   LIG    1        1.065   5.461   7.545  0.00  0.00    +0.190 C 
ATOM     21  N   LIG    1        0.253   5.806   8.719  0.00  0.00    -0.480 N 
ATOM     22  C   LIG    1       -1.178   5.827   8.389  0.00  0.00    +0.200 C 
ATOM     23  C   LIG    1       -1.622   4.424   7.962  0.00  0.00    +0.290 C 
ATOM     24  O   LIG    1       -2.454   3.429   5.574  0.00  0.00    -0.540 OA
BRANCH  21  25
ATOM     25  C   LIG    1        0.656   7.019   9.265  0.00  0.00    +0.310 A 
ATOM     26  C   LIG    1        1.983   7.197   9.644  0.00  0.00    -0.050 A 
ATOM     27  C   LIG    1        2.371   8.409  10.186  0.00  0.00    +0.090 A 
ATOM     28  C   LIG    1        1.415   9.407  10.330  0.00  0.00    -0.060 A 
ATOM     29  C   LIG    1        0.116   9.161   9.933  0.00  0.00    +0.290 A 
ATOM     30  N   LIG    1       -0.224   7.997   9.415  0.00  0.00    -0.520 NA
ENDBRANCH  21  25
ENDBRANCH  16  17
ENDBRANCH   1  16
TORSDOF 4
