REMARK  Name = ZINCtj0000001AZK.0
REMARK                            x       y       z     vdW  Elec       q    Type
REMARK                         _______ _______ _______ _____ _____    ______ ____
ROOT
ATOM      1  C   LIG    1        5.528  -0.985   1.966  0.00  0.00    +0.090 C 
ENDROOT
BRANCH   1   9
ATOM      2  C   LIG    1       12.193  -3.845   3.858  0.00  0.00    +0.340 C 
ATOM      3  N   LIG    1       11.034  -3.074   3.387  0.00  0.00    -0.400 N 
ATOM      4  C   LIG    1       11.464  -1.953   2.522  0.00  0.00    +0.280 C 
ATOM      5  C   LIG    1       10.224  -1.605   1.674  0.00  0.00    -0.080 C 
ATOM      6  C   LIG    1        9.374  -0.568   2.437  0.00  0.00    +0.270 C 
ATOM      7  N   LIG    1        7.979  -1.046   2.295  0.00  0.00    -0.630 N 
ATOM      8  C   LIG    1        8.079  -2.516   2.445  0.00  0.00    +0.290 C 
ATOM      9  C   LIG    1        6.870  -0.310   2.084  0.00  0.00    +0.540 C 
ATOM     10  O   LIG    1        6.952   0.896   1.988  0.00  0.00    -0.520 OA
ATOM     11  C   LIG    1       10.582  -1.139   0.261  0.00  0.00    +0.090 C 
ATOM     12  C   LIG    1        9.365  -2.898   1.675  0.00  0.00    -0.090 C 
ATOM     13  C   LIG    1        9.073  -3.410   0.262  0.00  0.00    +0.090 C 
ATOM     14  C   LIG    1       10.175  -3.911   2.511  0.00  0.00    +0.280 C 
ATOM     15  H   LIG    1       10.503  -2.721   4.169  0.00  0.00    +0.430 HD
ENDBRANCH   1   9
BRANCH   1  16
ATOM     16  C   LIG    1        4.445   0.069   1.730  0.00  0.00    +0.070 C 
BRANCH  16  17
ATOM     17  C   LIG    1        3.103  -0.607   1.612  0.00  0.00    +0.520 C 
ATOM     18  N   LIG    1        1.995   0.130   1.400  0.00  0.00    -0.610 N 
ATOM     19  C   LIG    1        0.675  -0.509   1.282  0.00  0.00    +0.290 C 
ATOM     20  C   LIG    1        0.002  -0.004   0.002  0.00  0.00    +0.200 C 
ATOM     21  N   LIG    1       -0.018   1.465   0.010  0.00  0.00    -0.480 N 
ATOM     22  C   LIG    1        1.344   2.016   0.000  0.00  0.00    +0.190 C 
ATOM     23  C   LIG    1        2.072   1.594   1.280  0.00  0.00    +0.300 C 
ATOM     24  O   LIG    1        3.022  -1.813   1.708  0.00  0.00    -0.540 OA
BRANCH  21  25
ATOM     25  C   LIG    1       -0.763   1.959  -1.054  0.00  0.00    +0.310 A 
ATOM     26  C   LIG    1       -0.902   3.333  -1.220  0.00  0.00    -0.050 A 
ATOM     27  C   LIG    1       -1.646   3.811  -2.284  0.00  0.00    +0.090 A 
ATOM     28  C   LIG    1       -2.229   2.895  -3.149  0.00  0.00    -0.060 A 
ATOM     29  C   LIG    1       -2.050   1.544  -2.925  0.00  0.00    +0.290 A 
ATOM     30  N   LIG    1       -1.331   1.117  -1.905  0.00  0.00    -0.520 NA
ENDBRANCH  21  25
ENDBRANCH  16  17
ENDBRANCH   1  16
TORSDOF 4
