REMARK  Name = ZINCkj00000xMDze.0
REMARK                            x       y       z     vdW  Elec       q    Type
REMARK                         _______ _______ _______ _____ _____    ______ ____
ROOT
ATOM      1  C   LIG    1       -6.814  -0.095  -0.695  0.00  0.00    +0.320 C 
ATOM      2  N   LIG    1       -6.041  -0.392   0.519  0.00  0.00    -0.390 N 
ATOM      3  C   LIG    1       -6.782   0.085   1.691  0.00  0.00    +0.260 C 
ATOM      4  C   LIG    1       -7.034   1.593   1.585  0.00  0.00    +0.090 C 
ATOM      5  C   LIG    1       -5.686   2.304   1.486  0.00  0.00    +0.150 C 
ATOM      6  O   LIG    1       -5.833   3.715   1.355  0.00  0.00    -0.360 OA
ATOM      7  C   LIG    1       -4.583   4.414   1.339  0.00  0.00    +0.220 C 
ATOM      8  C   LIG    1       -3.739   3.956   0.146  0.00  0.00    +0.290 C 
ATOM      9  N   LIG    1       -3.681   2.483   0.135  0.00  0.00    -0.590 N 
ATOM     10  C   LIG    1       -2.510   1.825   0.024  0.00  0.00    +0.590 C 
ATOM     11  O   LIG    1       -2.500   0.612  -0.062  0.00  0.00    -0.510 OA
ATOM     12  C   LIG    1       -4.957   1.766   0.243  0.00  0.00    +0.200 C 
ATOM     13  C   LIG    1       -4.729   0.267   0.431  0.00  0.00    +0.300 C 
ATOM     14  H   LIG    1       -5.909  -1.389   0.593  0.00  0.00    +0.430 HD
ENDROOT
BRANCH  10  15
ATOM     15  C   LIG    1       -1.235   2.579   0.007  0.00  0.00    +0.090 A 
ATOM     16  N   LIG    1       -1.163   3.735  -0.641  0.00  0.00    -0.450 NA
ATOM     17  C   LIG    1       -0.049   4.433  -0.685  0.00  0.00    +0.290 A 
ATOM     18  C   LIG    1        1.097   3.986  -0.047  0.00  0.00    +0.030 A 
ATOM     19  C   LIG    1        1.065   2.787   0.647  0.00  0.00    +0.110 A 
ATOM     20  C   LIG    1       -0.123   2.072   0.677  0.00  0.00    -0.100 A 
ATOM     21 BR   LIG    1       -0.230   0.428   1.607  0.00  0.00    -0.000 Br
ENDBRANCH  10  15
TORSDOF 1
