REMARK  Name = ZINCkj00000xMDze.1
REMARK                            x       y       z     vdW  Elec       q    Type
REMARK                         _______ _______ _______ _____ _____    ______ ____
ROOT
ATOM      1  C   LIG    1        2.390   5.662  -0.267  0.00  0.00    +0.340 C 
ATOM      2  N   LIG    1        2.499   4.213  -0.051  0.00  0.00    -0.390 N 
ATOM      3  C   LIG    1        3.236   3.966   1.192  0.00  0.00    +0.260 C 
ATOM      4  C   LIG    1        3.401   2.459   1.423  0.00  0.00    +0.090 C 
ATOM      5  C   LIG    1        2.014   1.826   1.497  0.00  0.00    +0.150 C 
ATOM      6  O   LIG    1        2.078   0.415   1.681  0.00  0.00    -0.360 OA
ATOM      7  C   LIG    1        0.792  -0.193   1.846  0.00  0.00    +0.220 C 
ATOM      8  C   LIG    1       -0.063   0.039   0.597  0.00  0.00    +0.300 C 
ATOM      9  N   LIG    1       -0.041   1.474   0.257  0.00  0.00    -0.590 N 
ATOM     10  C   LIG    1       -1.176   2.159   0.019  0.00  0.00    +0.580 C 
ATOM     11  O   LIG    1       -1.142   3.368  -0.105  0.00  0.00    -0.510 OA
ATOM     12  C   LIG    1        1.275   2.119   0.183  0.00  0.00    +0.190 C 
ATOM     13  C   LIG    1        1.150   3.631   0.022  0.00  0.00    +0.290 C 
ATOM     14  H   LIG    1        2.999   3.799  -0.823  0.00  0.00    +0.420 HD
ENDROOT
BRANCH  10  15
ATOM     15  C   LIG    1       -2.466   1.440  -0.090  0.00  0.00    +0.090 A 
ATOM     16  N   LIG    1       -2.482   0.113  -0.097  0.00  0.00    -0.450 NA
ATOM     17  C   LIG    1       -3.605  -0.564  -0.192  0.00  0.00    +0.290 A 
ATOM     18  C   LIG    1       -4.824   0.089  -0.289  0.00  0.00    +0.030 A 
ATOM     19  C   LIG    1       -4.855   1.475  -0.286  0.00  0.00    +0.110 A 
ATOM     20  C   LIG    1       -3.655   2.163  -0.179  0.00  0.00    -0.090 A 
ATOM     21 BR   LIG    1       -3.632   4.054  -0.162  0.00  0.00    +0.010 Br
ENDBRANCH  10  15
TORSDOF 1
