REMARK  Name = ZINCrH000004q5h9.0
REMARK                            x       y       z     vdW  Elec       q    Type
REMARK                         _______ _______ _______ _____ _____    ______ ____
ROOT
ATOM      1  N   LIG    1        4.365   0.374  -1.436  0.00  0.00    -0.530 NA
ATOM      2  C   LIG    1        5.293   1.080  -0.542  0.00  0.00    +0.150 C 
ATOM      3  C   LIG    1        4.713   1.100   0.875  0.00  0.00    +0.230 C 
ATOM      4  O   LIG    1        3.419   1.709   0.846  0.00  0.00    -0.370 OA
ATOM      5  C   LIG    1        2.490   1.046  -0.015  0.00  0.00    +0.220 C 
ATOM      6  C   LIG    1        3.048   1.026  -1.441  0.00  0.00    +0.170 C 
ENDROOT
BRANCH   5   7
ATOM      7  C   LIG    1        1.175   1.783   0.000  0.00  0.00    -0.090 A 
ATOM      8  C   LIG    1       -0.013   1.076   0.008  0.00  0.00    +0.070 A 
ATOM      9  C   LIG    1       -1.219   1.750   0.017  0.00  0.00    +0.010 A 
ATOM     10  C   LIG    1       -1.238   3.134   0.030  0.00  0.00    +0.120 A 
ATOM     11  C   LIG    1       -0.047   3.842   0.022  0.00  0.00    -0.080 A 
ATOM     12 CL   LIG    1       -0.068   5.578   0.032  0.00  0.00    -0.040 Cl
ATOM     13  F   LIG    1       -2.417   3.794   0.044  0.00  0.00    -0.120 F 
ATOM     14  C   LIG    1        1.159   3.165   0.007  0.00  0.00    +0.100 A 
ENDBRANCH   5   7
BRANCH   1  15
ATOM     15  C   LIG    1        4.912   0.283  -2.797  0.00  0.00    +0.310 C 
BRANCH  15  19
ATOM     16  C   LIG    1        7.558  -2.254  -2.868  0.00  0.00    +0.110 A 
ATOM     17  N   LIG    1        8.179  -1.123  -2.640  0.00  0.00    -0.370 NA
ATOM     18  O   LIG    1        7.404  -0.196  -2.593  0.00  0.00    +0.090 OA
ATOM     19  C   LIG    1        6.138  -0.593  -2.788  0.00  0.00    -0.030 A 
ATOM     20  C   LIG    1        6.175  -1.932  -2.969  0.00  0.00    -0.030 A 
BRANCH  16  23
ATOM     21  C   LIG    1       10.613  -2.907  -2.639  0.00  0.00    +0.150 C 
ATOM     22  C   LIG    1        9.501  -3.892  -2.894  0.00  0.00    +0.120 A 
ATOM     23  C   LIG    1        8.172  -3.600  -2.993  0.00  0.00    -0.190 A 
ATOM     24  C   LIG    1        7.489  -4.807  -3.240  0.00  0.00    +0.270 A 
ATOM     25  N   LIG    1        8.370  -5.770  -3.281  0.00  0.00    -0.290 NA
ATOM     26  N   LIG    1        9.640  -5.221  -3.064  0.00  0.00    -0.370 N 
ATOM     27  C   LIG    1       10.902  -5.963  -3.032  0.00  0.00    +0.360 C 
ENDBRANCH  16  23
ENDBRANCH  15  19
ENDBRANCH   1  15
TORSDOF 4
