REMARK  Name = ZINCvU0000000E3N.0
REMARK                            x       y       z     vdW  Elec       q    Type
REMARK                         _______ _______ _______ _____ _____    ______ ____
ROOT
ATOM      1  N   LIG    1       -4.346   1.538  -1.834  0.00  0.00    -0.680 N 
ATOM      2  H   LIG    1       -3.711   1.640  -2.560  0.00  0.00    +0.410 HD
ATOM      3  C   LIG    1       -4.003   0.843  -0.732  0.00  0.00    +0.730 C 
ATOM      4  N   LIG    1       -2.743   0.387  -0.588  0.00  0.00    -0.590 N 
ATOM      5  C   LIG    1       -1.719   0.621  -1.662  0.00  0.00    +0.280 C 
ATOM      6  C   LIG    1       -0.756   1.594  -1.148  0.00  0.00    -0.010 C 
ATOM      7  C   LIG    1       -0.053   1.163   0.135  0.00  0.00    +0.020 C 
ATOM      8  C   LIG    1       -0.920   1.660   1.255  0.00  0.00    +0.000 C 
ATOM      9  C   LIG    1       -1.846   0.532   1.776  0.00  0.00    +0.010 C 
ATOM     10  C   LIG    1       -2.357  -0.329   0.594  0.00  0.00    +0.240 C 
ATOM     11  O   LIG    1       -4.830   0.626   0.133  0.00  0.00    -0.580 OA
ENDROOT
BRANCH   1  18
ATOM     12  C   LIG    1       -6.172   2.381  -3.181  0.00  0.00    +0.060 A 
ATOM     13  C   LIG    1       -7.435   2.946  -3.271  0.00  0.00    -0.030 A 
ATOM     14  C   LIG    1       -8.139   3.253  -2.120  0.00  0.00    +0.020 A 
ATOM     15  C   LIG    1       -7.588   2.993  -0.879  0.00  0.00    +0.050 A 
ATOM     16  C   LIG    1       -6.332   2.425  -0.782  0.00  0.00    +0.040 A 
ATOM     17 CL   LIG    1       -8.130   3.274  -4.827  0.00  0.00    -0.060 Cl
ATOM     18  C   LIG    1       -5.620   2.114  -1.931  0.00  0.00    +0.170 A 
BRANCH  12  19
ATOM     19  O   LIG    1       -5.477   2.084  -4.311  0.00  0.00    -0.320 OA
BRANCH  19  20
ATOM     20  C   LIG    1       -5.668   0.781  -4.867  0.00  0.00    +0.210 C 
BRANCH  20  21
ATOM     21  C   LIG    1       -4.809   0.633  -6.125  0.00  0.00    +0.190 C 
BRANCH  21  23
ATOM     22  C   LIG    1       -2.534   0.563  -6.877  0.00  0.00    +0.200 C 
ATOM     23  O   LIG    1       -3.427   0.692  -5.768  0.00  0.00    -0.390 OA
ENDBRANCH  21  23
ENDBRANCH  20  21
ENDBRANCH  19  20
ENDBRANCH  12  19
ENDBRANCH   1  18
BRANCH  10  24
ATOM     24  C   LIG    1       -3.564  -1.135   1.078  0.00  0.00    +0.020 C 
BRANCH  24  25
ATOM     25  C   LIG    1       -3.948  -2.167   0.016  0.00  0.00    +0.250 C 
BRANCH  25  26
ATOM     26  C   LIG    1       -5.057  -3.041   0.543  0.00  0.00    -0.110 A 
ATOM     27  C   LIG    1       -6.372  -2.630   0.434  0.00  0.00    +0.020 A 
ATOM     28  C   LIG    1       -7.389  -3.434   0.913  0.00  0.00    +0.000 A 
ATOM     29  C   LIG    1       -7.091  -4.645   1.509  0.00  0.00    +0.000 A 
ATOM     30  C   LIG    1       -5.776  -5.054   1.623  0.00  0.00    +0.000 A 
ATOM     31  C   LIG    1       -4.758  -4.252   1.139  0.00  0.00    +0.010 A 
ENDBRANCH  25  26
BRANCH  25  32
ATOM     32  O   LIG    1       -4.391  -1.495  -1.164  0.00  0.00    -0.560 OA
ATOM     33  H   LIG    1       -5.161  -0.927  -1.027  0.00  0.00    +0.370 HD
ENDBRANCH  25  32
ENDBRANCH  24  25
ENDBRANCH  10  24
TORSDOF 9
