REMARK  Name = ZINCrH000004pVui.0
REMARK                            x       y       z     vdW  Elec       q    Type
REMARK                         _______ _______ _______ _____ _____    ______ ____
ROOT
ATOM      1  C   LIG    1        4.095  -0.686  -0.119  0.00  0.00    +0.530 C 
ATOM      2  N   LIG    1        4.243  -2.014   0.065  0.00  0.00    -0.600 N 
ATOM      3  C   LIG    1        3.196  -2.779   0.746  0.00  0.00    +0.290 C 
ATOM      4  O   LIG    1        4.924  -0.066  -0.751  0.00  0.00    -0.500 OA
ENDROOT
BRANCH   1  15
ATOM      5  C   LIG    1        1.352  -1.401  -0.898  0.00  0.00    +0.090 C 
ATOM      6  C   LIG    1        1.757   0.036  -0.564  0.00  0.00    +0.160 C 
ATOM      7  O   LIG    1        0.645   0.730   0.011  0.00  0.00    -0.300 OA
ATOM      8  C   LIG    1        0.916   1.911   0.631  0.00  0.00    +0.050 A 
ATOM      9  C   LIG    1       -0.120   2.795   0.895  0.00  0.00    +0.030 A 
ATOM     10  C   LIG    1        0.140   3.999   1.522  0.00  0.00    +0.020 A 
ATOM     11  C   LIG    1        1.430   4.321   1.899  0.00  0.00    +0.020 A 
ATOM     12  C   LIG    1        2.467   3.442   1.643  0.00  0.00    +0.030 A 
ATOM     13  C   LIG    1        2.214   2.236   1.007  0.00  0.00    +0.050 A 
ATOM     14  O   LIG    1        3.246   1.383   0.758  0.00  0.00    -0.280 OA
ATOM     15  C   LIG    1        2.900   0.026   0.460  0.00  0.00    +0.150 C 
ENDBRANCH   1  15
BRANCH   2  16
ATOM     16  C   LIG    1        5.450  -2.690  -0.415  0.00  0.00    +0.360 C 
BRANCH  16  17
ATOM     17  C   LIG    1        6.498  -2.678   0.668  0.00  0.00    -0.120 A 
ATOM     18  C   LIG    1        7.523  -1.754   0.628  0.00  0.00    +0.080 A 
ATOM     19  C   LIG    1        8.482  -1.740   1.625  0.00  0.00    +0.000 A 
ATOM     20  C   LIG    1        8.422  -2.656   2.658  0.00  0.00    +0.070 A 
ATOM     21  C   LIG    1        7.401  -3.586   2.700  0.00  0.00    -0.060 A 
ATOM     22  C   LIG    1        6.436  -3.599   1.704  0.00  0.00    +0.120 A 
BRANCH  22  23
ATOM     23  O   LIG    1        5.431  -4.514   1.743  0.00  0.00    -0.310 OA
BRANCH  23  24
ATOM     24  C   LIG    1        5.430  -5.431   2.838  0.00  0.00    +0.600 C 
ATOM     25  F   LIG    1        6.615  -6.175   2.824  0.00  0.00    -0.160 F 
ATOM     26  F   LIG    1        4.335  -6.295   2.722  0.00  0.00    -0.130 F 
ATOM     27  F   LIG    1        5.339  -4.722   4.040  0.00  0.00    -0.160 F 
ENDBRANCH  23  24
ENDBRANCH  22  23
ENDBRANCH  16  17
ENDBRANCH   2  16
TORSDOF 5
