REMARK  Name = ZINCAx0000000jRf.0
REMARK                            x       y       z     vdW  Elec       q    Type
REMARK                         _______ _______ _______ _____ _____    ______ ____
ROOT
ATOM      1  C   LIG    1       -0.406   4.767  -3.610  0.00  0.00    +0.520 C 
ATOM      2  N   LIG    1       -0.877   4.024  -2.590  0.00  0.00    -0.610 N 
ATOM      3  C   LIG    1       -0.454   2.626  -2.425  0.00  0.00    +0.290 C 
ATOM      4  C   LIG    1       -1.704   1.738  -2.377  0.00  0.00    +0.310 C 
ATOM      5  N   LIG    1       -2.650   2.311  -1.409  0.00  0.00    -1.000 NA
ATOM      6  C   LIG    1       -3.078   3.707  -1.577  0.00  0.00    +0.290 C 
ATOM      7  C   LIG    1       -1.823   4.596  -1.622  0.00  0.00    +0.270 C 
ATOM      8  O   LIG    1        0.374   4.283  -4.403  0.00  0.00    -0.510 OA
ENDROOT
BRANCH   5   9
ATOM      9  S   LIG    1       -3.230   1.397  -0.156  0.00  0.00    +2.690 S 
ATOM     10  O   LIG    1       -4.455   1.996   0.244  0.00  0.00    -0.950 OA
ATOM     11  O   LIG    1       -3.125   0.040  -0.566  0.00  0.00    -0.950 OA
BRANCH   9  12
ATOM     12  C   LIG    1       -2.115   1.596   1.194  0.00  0.00    -0.690 A 
ATOM     13  C   LIG    1       -1.321   0.538   1.596  0.00  0.00    +0.130 A 
ATOM     14  C   LIG    1       -0.449   0.693   2.658  0.00  0.00    -0.020 A 
ATOM     15  C   LIG    1       -0.370   1.906   3.316  0.00  0.00    -0.020 A 
ATOM     16  C   LIG    1       -1.161   2.965   2.911  0.00  0.00    -0.020 A 
ATOM     17  C   LIG    1        0.580   2.075   4.473  0.00  0.00    +0.090 C 
ATOM     18  C   LIG    1       -2.032   2.811   1.848  0.00  0.00    +0.030 A 
ATOM     19  C   LIG    1       -2.894   3.965   1.407  0.00  0.00    +0.110 C 
ENDBRANCH   9  12
ENDBRANCH   5   9
BRANCH   1  20
ATOM     20  C   LIG    1       -0.849   6.199  -3.767  0.00  0.00    +0.250 C 
BRANCH  20  21
ATOM     21  O   LIG    1       -0.206   6.779  -4.932  0.00  0.00    -0.330 OA
BRANCH  21  22
ATOM     22  C   LIG    1       -0.496   8.059  -5.213  0.00  0.00    +0.470 C 
ATOM     23  O   LIG    1       -1.262   8.674  -4.509  0.00  0.00    -0.500 OA
BRANCH  22  24
ATOM     24  C   LIG    1        0.133   8.730  -6.408  0.00  0.00    +0.110 C 
BRANCH  24  25
ATOM     25  C   LIG    1       -0.362  10.175  -6.501  0.00  0.00    +0.070 C 
BRANCH  25  26
ATOM     26  C   LIG    1        0.277  10.855  -7.713  0.00  0.00    +0.200 C 
BRANCH  26  27
ATOM     27  O   LIG    1       -0.185  12.204  -7.801  0.00  0.00    -0.310 OA
BRANCH  27  31
ATOM     28  C   LIG    1        1.257  14.479 -10.923  0.00  0.00    -0.210 A 
ATOM     29  C   LIG    1        0.356  15.034 -10.007  0.00  0.00    +0.120 A 
ATOM     30  C   LIG    1       -0.121  14.274  -8.970  0.00  0.00    -0.020 A 
ATOM     31  C   LIG    1        0.289  12.953  -8.828  0.00  0.00    +0.170 A 
ATOM     32  C   LIG    1        1.188  12.397  -9.732  0.00  0.00    -0.080 A 
ATOM     33  C   LIG    1        1.666  13.148 -10.776  0.00  0.00    +0.110 A 
BRANCH  28  35
ATOM     34  C   LIG    1        2.832  14.729 -12.947  0.00  0.00    +0.070 C 
ATOM     35  C   LIG    1        1.771  15.289 -12.035  0.00  0.00    +0.400 C 
ATOM     36  O   LIG    1        1.342  16.408 -12.219  0.00  0.00    -0.460 OA
ENDBRANCH  28  35
ENDBRANCH  27  31
ENDBRANCH  26  27
ENDBRANCH  25  26
ENDBRANCH  24  25
ENDBRANCH  22  24
ENDBRANCH  21  22
ENDBRANCH  20  21
ENDBRANCH   1  20
TORSDOF 11
