REMARK  Name = ZINCtV000002Djq4.0
REMARK                            x       y       z     vdW  Elec       q    Type
REMARK                         _______ _______ _______ _____ _____    ______ ____
ROOT
ATOM      1  C   LIG    1        8.679  -3.383 -10.969  0.00  0.00    +0.030 C 
ATOM      2  C   LIG    1        8.578  -3.124  -9.465  0.00  0.00    -0.010 C 
ATOM      3  C   LIG    1        8.475  -4.459  -8.721  0.00  0.00    +0.020 C 
ATOM      4  C   LIG    1        8.634  -4.210  -7.220  0.00  0.00    +0.110 C 
ATOM      5  C   LIG    1        7.677  -3.101  -6.802  0.00  0.00    -0.030 A 
ATOM      6  C   LIG    1        7.106  -2.260  -7.667  0.00  0.00    -0.190 A 
ATOM      7  S   LIG    1        6.065  -1.112  -6.841  0.00  0.00    +0.180 S 
ATOM      8  C   LIG    1        6.423  -1.807  -5.270  0.00  0.00    +0.050 A 
ATOM      9  N   LIG    1        5.984  -1.474  -4.005  0.00  0.00    -0.580 N 
ATOM     10  H   LIG    1        5.367  -0.734  -3.893  0.00  0.00    +0.430 HD
ATOM     11  C   LIG    1        6.399  -2.158  -2.928  0.00  0.00    +0.470 A 
ATOM     12  N   LIG    1        7.231  -3.159  -3.007  0.00  0.00    -0.570 NA
ATOM     13  C   LIG    1        7.719  -3.572  -4.189  0.00  0.00    +0.550 A 
ATOM     14  O   LIG    1        8.493  -4.513  -4.247  0.00  0.00    -0.480 OA
ATOM     15  C   LIG    1        7.301  -2.863  -5.415  0.00  0.00    -0.220 A 
ATOM     16  C   LIG    1        7.328  -2.292  -9.168  0.00  0.00    +0.120 C 
ENDROOT
BRANCH  11  17
ATOM     17  C   LIG    1        5.887  -1.750  -1.571  0.00  0.00    +0.110 C 
ATOM     18  C   LIG    1        6.890  -0.800  -0.912  0.00  0.00    +0.080 C 
BRANCH  17  19
ATOM     19  S   LIG    1        4.290  -0.909  -1.755  0.00  0.00    -0.240 S 
BRANCH  19  20
ATOM     20  C   LIG    1        3.771  -0.637  -0.038  0.00  0.00    +0.160 C 
BRANCH  20  21
ATOM     21  C   LIG    1        2.438   0.065  -0.021  0.00  0.00    -0.070 A 
ATOM     22  C   LIG    1        2.380   1.424  -0.013  0.00  0.00    +0.040 A 
ATOM     23  C   LIG    1        1.156   2.091   0.002  0.00  0.00    +0.010 A 
ATOM     24  C   LIG    1       -0.017   1.401   0.010  0.00  0.00    +0.040 A 
ATOM     25  C   LIG    1        0.002  -0.004   0.002  0.00  0.00    -0.050 A 
ATOM     26  C   LIG    1       -1.188  -0.750   0.009  0.00  0.00    +0.030 A 
ATOM     27  C   LIG    1       -1.131  -2.110   0.001  0.00  0.00    +0.010 A 
ATOM     28  C   LIG    1        0.093  -2.776  -0.015  0.00  0.00    +0.010 A 
ATOM     29  C   LIG    1        1.266  -2.087  -0.022  0.00  0.00    +0.020 A 
ATOM     30  C   LIG    1        1.247  -0.682  -0.013  0.00  0.00    -0.030 A 
ENDBRANCH  20  21
ENDBRANCH  19  20
ENDBRANCH  17  19
ENDBRANCH  11  17
TORSDOF 4
