REMARK  Name = ZINCpe000000YRsh.0
REMARK                            x       y       z     vdW  Elec       q    Type
REMARK                         _______ _______ _______ _____ _____    ______ ____
ROOT
ATOM      1  C   LIG    1        2.569   9.881   3.348  0.00  0.00    +0.210 C 
ENDROOT
BRANCH   1   2
ATOM      2  N   LIG    1        2.612  11.345   3.354  0.00  0.00    -0.510 NA
ATOM      3  C   LIG    1        2.077  12.008   4.340  0.00  0.00    +0.380 C 
ATOM      4  N   LIG    1        1.466  11.364   5.386  0.00  0.00    -1.050 N 
ATOM      5  H   LIG    1        1.368  10.406   5.508  0.00  0.00    +0.450 HD
ATOM      6  S   LIG    1        0.928  12.572   6.407  0.00  0.00    +2.670 S 
ATOM      7  C   LIG    1        1.476  14.000   5.515  0.00  0.00    -0.630 A 
ATOM      8  C   LIG    1        1.391  15.347   5.741  0.00  0.00    +0.150 A 
ATOM      9  C   LIG    1        1.936  16.234   4.824  0.00  0.00    +0.040 A 
ATOM     10  C   LIG    1        2.561  15.746   3.691  0.00  0.00    +0.070 A 
ATOM     11  C   LIG    1        2.647  14.392   3.461  0.00  0.00    +0.100 A 
ATOM     12  O   LIG    1        1.691  12.491   7.603  0.00  0.00    -0.930 OA
ATOM     13  O   LIG    1       -0.493  12.563   6.367  0.00  0.00    -0.930 OA
ATOM     14  C   LIG    1        2.107  13.479   4.381  0.00  0.00    -0.020 A 
ENDBRANCH   1   2
BRANCH   1  15
ATOM     15  C   LIG    1        1.716   9.401   2.172  0.00  0.00    +0.070 C 
BRANCH  15  17
ATOM     16  O   LIG    1        2.264   7.267   3.016  0.00  0.00    -0.540 OA
ATOM     17  C   LIG    1        1.671   7.895   2.164  0.00  0.00    +0.520 C 
ATOM     18  N   LIG    1        0.973   7.246   1.212  0.00  0.00    -0.730 N 
ATOM     19  H   LIG    1        0.499   7.748   0.531  0.00  0.00    +0.400 HD
BRANCH  18  20
ATOM     20  C   LIG    1        0.930   5.781   1.205  0.00  0.00    +0.280 C 
BRANCH  20  21
ATOM     21  C   LIG    1        0.077   5.302   0.029  0.00  0.00    +0.100 C 
BRANCH  21  22
ATOM     22  C   LIG    1        0.033   3.795   0.022  0.00  0.00    +0.130 A 
ATOM     23  C   LIG    1       -1.188   3.148   0.030  0.00  0.00    -0.030 A 
ATOM     24  C   LIG    1       -1.217   1.761   0.017  0.00  0.00    +0.070 A 
ATOM     25  C   LIG    1       -0.013   1.076   0.008  0.00  0.00    -0.030 A 
ATOM     26  C   LIG    1        1.170   1.792   0.001  0.00  0.00    +0.270 A 
ATOM     27  N   LIG    1        1.160   3.110   0.007  0.00  0.00    -0.480 NA
ENDBRANCH  21  22
ENDBRANCH  20  21
ENDBRANCH  18  20
ENDBRANCH  15  17
ENDBRANCH   1  15
TORSDOF 6
