REMARK  Name = ZINCqH0000000tHM.0
REMARK                            x       y       z     vdW  Elec       q    Type
REMARK                         _______ _______ _______ _____ _____    ______ ____
ROOT
ATOM      1  S   LIG    1        2.707   0.911  -0.040  0.00  0.00    +2.700 S 
ATOM      2  O   LIG    1        2.415  -0.434   0.312  0.00  0.00    -0.950 OA
ATOM      3  O   LIG    1        3.634   1.718   0.673  0.00  0.00    -0.950 OA
ENDROOT
BRANCH   1   7
ATOM      4  C   LIG    1       -1.238   3.136   0.024  0.00  0.00    +0.210 A 
ATOM      5  C   LIG    1       -1.218   1.760  -0.164  0.00  0.00    +0.000 A 
ATOM      6  C   LIG    1       -0.013   1.084  -0.178  0.00  0.00    +0.150 A 
ATOM      7  C   LIG    1        1.172   1.777  -0.015  0.00  0.00    -0.700 A 
ATOM      8  C   LIG    1        1.156   3.147   0.167  0.00  0.00    +0.150 A 
ATOM      9  C   LIG    1       -0.045   3.829   0.187  0.00  0.00    -0.030 A 
BRANCH   4  12
ATOM     10  C   LIG    1       -4.893   3.921   0.457  0.00  0.00    +0.110 C 
ATOM     11  C   LIG    1       -3.557   3.229   0.544  0.00  0.00    +0.510 C 
ATOM     12  N   LIG    1       -2.456   3.823   0.043  0.00  0.00    -0.680 N 
ATOM     13  H   LIG    1       -2.508   4.727  -0.304  0.00  0.00    +0.420 HD
ATOM     14  O   LIG    1       -3.473   2.137   1.065  0.00  0.00    -0.520 OA
ENDBRANCH   4  12
ENDBRANCH   1   7
BRANCH   1  15
ATOM     15  N   LIG    1        3.226   0.880  -1.613  0.00  0.00    -1.110 NA
ATOM     16  H   LIG    1        3.296   0.035  -2.084  0.00  0.00    +0.420 HD
BRANCH  15  17
ATOM     17  C   LIG    1        3.580   2.129  -2.292  0.00  0.00    +0.300 C 
ATOM     18  C   LIG    1        5.089   2.360  -2.181  0.00  0.00    +0.050 C 
BRANCH  17  19
ATOM     19  C   LIG    1        3.191   2.038  -3.745  0.00  0.00    -0.090 A 
ATOM     20  C   LIG    1        3.388   0.860  -4.441  0.00  0.00    +0.050 A 
ATOM     21  C   LIG    1        3.030   0.777  -5.774  0.00  0.00    +0.030 A 
ATOM     22  C   LIG    1        2.477   1.871  -6.410  0.00  0.00    +0.070 A 
ATOM     23  C   LIG    1        2.280   3.050  -5.714  0.00  0.00    -0.180 A 
ATOM     24  C   LIG    1        2.632   3.131  -4.380  0.00  0.00    +0.080 A 
BRANCH  23  25
ATOM     25  C   LIG    1        1.676   4.243  -6.409  0.00  0.00    +0.510 C 
ATOM     26  F   LIG    1        2.577   5.312  -6.367  0.00  0.00    -0.170 F 
ATOM     27  F   LIG    1        0.490   4.607  -5.763  0.00  0.00    -0.180 F 
ATOM     28  F   LIG    1        1.400   3.917  -7.741  0.00  0.00    -0.180 F 
ENDBRANCH  23  25
ENDBRANCH  17  19
ENDBRANCH  15  17
ENDBRANCH   1  15
TORSDOF 6
