REMARK  Name = ZINCrH000004uFDV.0
REMARK                            x       y       z     vdW  Elec       q    Type
REMARK                         _______ _______ _______ _____ _____    ______ ____
ROOT
ATOM      1  O   LIG    1       -3.212   2.749  -5.993  0.00  0.00    -0.540 OA
ATOM      2  C   LIG    1       -2.381   3.054  -5.158  0.00  0.00    +0.590 C 
ATOM      3  N   LIG    1       -1.468   4.006  -5.431  0.00  0.00    -0.700 N 
ATOM      4  H   LIG    1       -0.806   4.249  -4.765  0.00  0.00    +0.400 HD
ENDROOT
BRANCH   2   5
ATOM      5  C   LIG    1       -2.373   2.384  -3.854  0.00  0.00    -0.270 A 
ATOM      6  C   LIG    1       -3.241   1.409  -3.460  0.00  0.00    +0.100 A 
ATOM      7  C   LIG    1       -3.014   0.945  -2.176  0.00  0.00    -0.120 A 
ATOM      8  C   LIG    1       -1.982   1.530  -1.556  0.00  0.00    -0.190 A 
ATOM      9  C   LIG    1       -1.523   1.187  -0.141  0.00  0.00    +0.110 C 
ATOM     10  C   LIG    1       -2.631   1.617   0.825  0.00  0.00    +0.020 C 
ATOM     11  C   LIG    1       -3.737   0.589   0.877  0.00  0.00    +0.000 C 
ATOM     12  C   LIG    1       -4.616   0.505  -0.348  0.00  0.00    +0.010 C 
ATOM     13  C   LIG    1       -3.880  -0.136  -1.525  0.00  0.00    +0.110 C 
ATOM     14  S   LIG    1       -1.244   2.708  -2.547  0.00  0.00    +0.190 S 
ENDBRANCH   2   5
BRANCH   3  15
ATOM     15  C   LIG    1       -1.476   4.676  -6.734  0.00  0.00    +0.320 C 
BRANCH  15  16
ATOM     16  C   LIG    1       -0.362   5.690  -6.785  0.00  0.00    -0.090 A 
ATOM     17  C   LIG    1       -0.636   7.028  -6.569  0.00  0.00    +0.030 A 
ATOM     18  C   LIG    1        0.386   7.958  -6.609  0.00  0.00    +0.000 A 
ATOM     19  C   LIG    1        1.680   7.552  -6.877  0.00  0.00    +0.010 A 
ATOM     20  C   LIG    1        1.953   6.214  -7.099  0.00  0.00    +0.000 A 
ATOM     21  C   LIG    1        0.932   5.284  -7.053  0.00  0.00    -0.060 A 
BRANCH  21  22
ATOM     22  C   LIG    1        1.229   3.826  -7.294  0.00  0.00    +0.230 C 
BRANCH  22  23
ATOM     23  N   LIG    1        1.247   3.111  -6.011  0.00  0.00    -0.530 NA
ATOM     24  C   LIG    1        2.442   3.461  -5.229  0.00  0.00    +0.140 C 
ATOM     25  C   LIG    1        2.390   2.741  -3.879  0.00  0.00    +0.220 C 
ATOM     26  O   LIG    1        2.281   1.333  -4.099  0.00  0.00    -0.380 OA
ATOM     27  C   LIG    1        1.128   0.956  -4.857  0.00  0.00    +0.220 C 
ATOM     28  C   LIG    1        1.167   1.658  -6.218  0.00  0.00    +0.140 C 
ENDBRANCH  22  23
ENDBRANCH  21  22
ENDBRANCH  15  16
ENDBRANCH   3  15
TORSDOF 5
