REMARK  Name = ZINCvU0000000Fd1.0
REMARK                            x       y       z     vdW  Elec       q    Type
REMARK                         _______ _______ _______ _____ _____    ______ ____
ROOT
ATOM      1  N   LIG    1        3.712   5.891   0.675  0.00  0.00    -0.530 N 
ATOM      2  C   LIG    1        2.409   5.587   0.506  0.00  0.00    +0.570 C 
ATOM      3  C   LIG    1        2.256   4.148   0.230  0.00  0.00    +0.090 A 
ATOM      4  C   LIG    1        3.497   3.576   0.239  0.00  0.00    -0.250 A 
ATOM      5  C   LIG    1        3.668   2.139   0.002  0.00  0.00    +0.460 A 
ATOM      6  C   LIG    1        2.391   1.382  -0.007  0.00  0.00    -0.210 A 
ATOM      7  C   LIG    1        2.398  -0.013  -0.018  0.00  0.00    +0.120 A 
ATOM      8  C   LIG    1        1.203  -0.699  -0.013  0.00  0.00    +0.000 A 
ATOM      9  C   LIG    1        0.002  -0.004   0.002  0.00  0.00    +0.090 A 
ATOM     10  C   LIG    1       -0.017   1.373   0.010  0.00  0.00    +0.020 A 
ATOM     11  C   LIG    1        1.179   2.091   0.002  0.00  0.00    +0.140 A 
ATOM     12  O   LIG    1        4.755   1.616  -0.171  0.00  0.00    -0.430 OA
ATOM     13  O   LIG    1        1.132   3.442  -0.001  0.00  0.00    -0.180 OA
ATOM     14  O   LIG    1        1.495   6.384   0.572  0.00  0.00    -0.430 OA
ATOM     15  C   LIG    1        4.493   4.653   0.519  0.00  0.00    +0.370 C 
ENDROOT
BRANCH   1  21
ATOM     16  C   LIG    1        2.871  10.500   1.663  0.00  0.00    +0.130 C 
ATOM     17  C   LIG    1        3.851   9.381   1.426  0.00  0.00    +0.170 A 
ATOM     18  C   LIG    1        5.207   9.638   1.487  0.00  0.00    -0.050 A 
ATOM     19  C   LIG    1        6.106   8.603   1.268  0.00  0.00    +0.100 A 
ATOM     20  C   LIG    1        5.606   7.342   0.995  0.00  0.00    -0.060 A 
ATOM     21  C   LIG    1        4.229   7.155   0.949  0.00  0.00    +0.390 A 
ATOM     22  N   LIG    1        3.404   8.169   1.158  0.00  0.00    -0.490 NA
ENDBRANCH   1  21
BRANCH  15  23
ATOM     23  C   LIG    1        5.454   4.785  -0.635  0.00  0.00    -0.110 A 
ATOM     24  C   LIG    1        5.080   5.479  -1.770  0.00  0.00    +0.020 A 
ATOM     25  C   LIG    1        5.963   5.604  -2.826  0.00  0.00    +0.010 A 
ATOM     26  C   LIG    1        7.216   5.026  -2.751  0.00  0.00    -0.060 A 
ATOM     27  C   LIG    1        7.589   4.328  -1.618  0.00  0.00    +0.020 A 
ATOM     28  C   LIG    1        6.708   4.207  -0.560  0.00  0.00    +0.050 A 
BRANCH  26  29
ATOM     29  C   LIG    1        8.177   5.159  -3.905  0.00  0.00    +0.020 C 
ATOM     30  C   LIG    1        8.467   6.639  -4.160  0.00  0.00    +0.040 C 
ATOM     31  C   LIG    1        7.558   4.537  -5.158  0.00  0.00    +0.030 C 
ENDBRANCH  26  29
ENDBRANCH  15  23
TORSDOF 3
