REMARK  Name = ZINCtj00000042td.0
REMARK                            x       y       z     vdW  Elec       q    Type
REMARK                         _______ _______ _______ _____ _____    ______ ____
ROOT
ATOM      1  O   LIG    1        0.395   3.497   4.504  0.00  0.00    -0.490 OA
ATOM      2  C   LIG    1        0.891   4.133   3.599  0.00  0.00    +0.510 C 
ATOM      3  N   LIG    1        1.417   3.494   2.535  0.00  0.00    -0.750 N 
ATOM      4  H   LIG    1        1.813   4.003   1.810  0.00  0.00    +0.400 HD
ENDROOT
BRANCH   3   5
ATOM      5  C   LIG    1        1.389   2.030   2.472  0.00  0.00    +0.320 C 
BRANCH   5   6
ATOM      6  C   LIG    1        2.193   1.556   1.261  0.00  0.00    +0.050 C 
ATOM      7  C   LIG    1        1.739   2.320   0.015  0.00  0.00    +0.040 C 
ATOM      8  C   LIG    1        0.251   2.059  -0.227  0.00  0.00    +0.050 C 
ATOM      9  C   LIG    1        0.022   0.561  -0.436  0.00  0.00    +0.020 C 
ATOM     10  C   LIG    1        0.477  -0.203   0.809  0.00  0.00    +0.050 C 
ATOM     11  C   LIG    1        1.965   0.058   1.052  0.00  0.00    +0.060 C 
BRANCH   6  12
ATOM     12  N   LIG    1        3.622   1.806   1.494  0.00  0.00    -0.380 N 
ATOM     13  C   LIG    1        4.090   0.970   2.608  0.00  0.00    +0.230 C 
ATOM     14  C   LIG    1        5.579   1.232   2.849  0.00  0.00    +0.260 C 
ATOM     15  O   LIG    1        5.776   2.624   3.116  0.00  0.00    -0.350 OA
ATOM     16  C   LIG    1        5.313   3.480   2.068  0.00  0.00    +0.260 C 
ATOM     17  C   LIG    1        3.824   3.223   1.826  0.00  0.00    +0.220 C 
ATOM     18  H   LIG    1        4.144   1.578   0.660  0.00  0.00    +0.420 HD
ENDBRANCH   6  12
ENDBRANCH   5   6
ENDBRANCH   3   5
BRANCH   2  19
ATOM     19  C   LIG    1        0.920   5.638   3.663  0.00  0.00    +0.220 C 
BRANCH  19  20
ATOM     20  N   LIG    1        0.291   6.087   4.912  0.00  0.00    -0.520 NA
ATOM     21  C   LIG    1       -1.143   5.768   4.924  0.00  0.00    +0.190 C 
ATOM     22  C   LIG    1       -1.744   6.178   6.270  0.00  0.00    +0.210 C 
ATOM     23  N   LIG    1       -1.526   7.616   6.482  0.00  0.00    -0.480 N 
ATOM     24  C   LIG    1       -0.091   7.936   6.471  0.00  0.00    +0.220 C 
ATOM     25  C   LIG    1        0.509   7.525   5.124  0.00  0.00    +0.190 C 
BRANCH  23  26
ATOM     26  C   LIG    1       -2.121   8.041   7.665  0.00  0.00    +0.310 A 
ATOM     27  C   LIG    1       -3.481   7.829   7.867  0.00  0.00    -0.060 A 
ATOM     28  C   LIG    1       -4.060   8.256   9.048  0.00  0.00    +0.090 A 
ATOM     29  C   LIG    1       -3.258   8.884   9.990  0.00  0.00    -0.060 A 
ATOM     30  C   LIG    1       -1.915   9.062   9.724  0.00  0.00    +0.290 A 
ATOM     31  N   LIG    1       -1.388   8.640   8.591  0.00  0.00    -0.520 NA
ENDBRANCH  23  26
ENDBRANCH  19  20
ENDBRANCH   2  19
TORSDOF 6
