REMARK  Name = ZINCpe00000VVGoz.0
REMARK                            x       y       z     vdW  Elec       q    Type
REMARK                         _______ _______ _______ _____ _____    ______ ____
ROOT
ATOM      1  N   LIG    1       -2.423  -0.103   0.522  0.00  0.00    -0.580 N 
ATOM      2  C   LIG    1       -1.673   0.461   1.663  0.00  0.00    +0.280 C 
ATOM      3  C   LIG    1       -0.673   1.535   1.199  0.00  0.00    +0.050 C 
ATOM      4  C   LIG    1       -0.020   1.097  -0.092  0.00  0.00    +0.180 C 
ATOM      5  N   LIG    1       -0.784   1.627  -1.221  0.00  0.00    -0.550 NA
ATOM      6  C   LIG    1       -1.868   0.838  -1.671  0.00  0.00    +0.190 C 
ATOM      7  C   LIG    1       -2.934   0.719  -0.556  0.00  0.00    +0.310 C 
ENDROOT
BRANCH   1  16
ATOM      8  C   LIG    1       -2.187  -4.521   2.642  0.00  0.00    +0.160 C 
ATOM      9  C   LIG    1       -2.547  -3.632   1.480  0.00  0.00    +0.270 A 
ATOM     10  N   LIG    1       -3.086  -4.155   0.398  0.00  0.00    -0.510 NA
ATOM     11  C   LIG    1       -3.417  -3.392  -0.650  0.00  0.00    +0.490 A 
ATOM     12  N   LIG    1       -3.961  -3.676  -1.829  0.00  0.00    -0.540 NA
ATOM     13  C   LIG    1       -4.095  -2.564  -2.540  0.00  0.00    +0.490 A 
ATOM     14  N   LIG    1       -3.648  -1.543  -1.850  0.00  0.00    -0.350 NA
ATOM     15  N   LIG    1       -3.206  -2.043  -0.618  0.00  0.00    -0.360 N 
ATOM     16  C   LIG    1       -2.644  -1.462   0.482  0.00  0.00    +0.480 A 
ATOM     17  C   LIG    1       -2.308  -2.262   1.557  0.00  0.00    -0.160 A 
ENDBRANCH   1  16
BRANCH   5  18
ATOM     18  C   LIG    1        0.104   1.987  -2.334  0.00  0.00    +0.210 C 
BRANCH  18  19
ATOM     19  C   LIG    1        0.804   3.284  -2.020  0.00  0.00    +0.510 C 
ATOM     20  N   LIG    1        1.602   3.860  -2.941  0.00  0.00    -0.730 N 
ATOM     21  H   LIG    1        1.726   3.439  -3.807  0.00  0.00    +0.400 HD
ATOM     22  O   LIG    1        0.650   3.809  -0.938  0.00  0.00    -0.510 OA
BRANCH  20  23
ATOM     23  C   LIG    1        2.283   5.120  -2.635  0.00  0.00    +0.170 C 
ATOM     24  C   LIG    1        1.243   6.198  -2.321  0.00  0.00    +0.030 C 
ATOM     25  C   LIG    1        3.119   5.554  -3.841  0.00  0.00    +0.030 C 
ATOM     26  C   LIG    1        3.197   4.925  -1.424  0.00  0.00    +0.030 C 
ENDBRANCH  20  23
ENDBRANCH  18  19
ENDBRANCH   5  18
TORSDOF 4
