REMARK  Name = ZINCpe000000YzsI.0
REMARK                            x       y       z     vdW  Elec       q    Type
REMARK                         _______ _______ _______ _____ _____    ______ ____
ROOT
ATOM      1  N   LIG    1       -4.894   5.048   0.052  0.00  0.00    -0.720 N 
ATOM      2  H   LIG    1       -5.402   4.222   0.051  0.00  0.00    +0.400 HD
ATOM      3  C   LIG    1       -3.547   5.009   0.046  0.00  0.00    +0.590 C 
ATOM      4  O   LIG    1       -2.909   6.045   0.048  0.00  0.00    -0.510 OA
ENDROOT
BRANCH   1   8
ATOM      5  N   LIG    1       -7.831   7.939   0.929  0.00  0.00    -0.520 NA
ATOM      6  C   LIG    1       -7.732   7.503  -0.470  0.00  0.00    +0.180 C 
ATOM      7  C   LIG    1       -6.988   6.168  -0.539  0.00  0.00    +0.040 C 
ATOM      8  C   LIG    1       -5.590   6.337   0.062  0.00  0.00    +0.230 C 
ATOM      9  C   LIG    1       -5.718   6.838   1.503  0.00  0.00    +0.030 C 
ATOM     10  C   LIG    1       -6.501   8.153   1.513  0.00  0.00    +0.180 C 
BRANCH   5  11
ATOM     11  C   LIG    1       -8.659   9.146   1.047  0.00  0.00    +0.210 C 
BRANCH  11  15
ATOM     12  N   LIG    1       -9.687  10.487   2.853  0.00  0.00    -0.860 N 
ATOM     13  H   LIG    1       -9.868  10.665   3.790  0.00  0.00    +0.400 HD
ATOM     14  H   LIG    1      -10.043  11.077   2.170  0.00  0.00    +0.400 HD
ATOM     15  C   LIG    1       -8.940   9.422   2.502  0.00  0.00    +0.520 C 
ATOM     16  O   LIG    1       -8.495   8.685   3.356  0.00  0.00    -0.520 OA
ENDBRANCH  11  15
ENDBRANCH   5  11
ENDBRANCH   1   8
BRANCH   3  17
ATOM     17  C   LIG    1       -2.847   3.714   0.036  0.00  0.00    -0.040 A 
ATOM     18  C   LIG    1       -1.480   3.512   0.028  0.00  0.00    +0.040 A 
ATOM     19  C   LIG    1       -1.311   2.116   0.020  0.00  0.00    +0.070 A 
ATOM     20  N   LIG    1       -2.509   1.570   0.017  0.00  0.00    -0.250 NA
ATOM     21  N   LIG    1       -3.422   2.474   0.032  0.00  0.00    -0.370 N 
ATOM     22  H   LIG    1       -4.376   2.302   0.035  0.00  0.00    +0.450 HD
BRANCH  19  23
ATOM     23  C   LIG    1       -0.017   1.389   0.010  0.00  0.00    -0.020 A 
ATOM     24  C   LIG    1        1.182   2.098   0.002  0.00  0.00    +0.070 A 
ATOM     25  C   LIG    1        2.383   1.419  -0.013  0.00  0.00    -0.010 A 
ATOM     26  C   LIG    1        2.398   0.033  -0.021  0.00  0.00    +0.100 A 
ATOM     27  C   LIG    1        1.207  -0.676  -0.013  0.00  0.00    -0.010 A 
ATOM     28  F   LIG    1        3.575  -0.628  -0.035  0.00  0.00    -0.140 F 
ATOM     29  C   LIG    1        0.002  -0.004   0.002  0.00  0.00    +0.070 A 
ENDBRANCH  19  23
ENDBRANCH   3  17
TORSDOF 5
