REMARK  Name = ZINCnE000001TCNr.0
REMARK                            x       y       z     vdW  Elec       q    Type
REMARK                         _______ _______ _______ _____ _____    ______ ____
ROOT
ATOM      1  C   LIG    1       -1.194   2.204   0.039  0.00  0.00    +0.620 C 
ATOM      2  N   LIG    1       -1.109   3.544  -0.075  0.00  0.00    -0.600 N 
ATOM      3  O   LIG    1       -0.181   1.535   0.112  0.00  0.00    -0.520 OA
ENDROOT
BRANCH   1   7
ATOM      4  C   LIG    1       -4.692   1.267   0.149  0.00  0.00    +0.000 A 
ATOM      5  C   LIG    1       -4.122   0.013   0.121  0.00  0.00    -0.060 A 
ATOM      6  C   LIG    1       -2.735   0.201   0.074  0.00  0.00    +0.030 A 
ATOM      7  C   LIG    1       -2.514   1.549   0.075  0.00  0.00    -0.120 A 
ATOM      8  O   LIG    1       -3.701   2.179   0.121  0.00  0.00    -0.130 OA
BRANCH   4  10
ATOM      9  O   LIG    1       -6.941   0.642   0.223  0.00  0.00    -0.650 OA
ATOM     10  C   LIG    1       -6.130   1.559   0.201  0.00  0.00    +0.560 C 
ATOM     11  O   LIG    1       -6.519   2.720   0.222  0.00  0.00    -0.660 OA
ENDBRANCH   4  10
ENDBRANCH   1   7
BRANCH   2  12
ATOM     12  C   LIG    1        0.200   4.186  -0.214  0.00  0.00    +0.390 C 
BRANCH  12  13
ATOM     13  C   LIG    1        0.501   4.401  -1.675  0.00  0.00    -0.200 A 
ATOM     14  C   LIG    1        0.180   5.491  -2.374  0.00  0.00    +0.010 A 
ATOM     15  C   LIG    1        0.560   5.463  -3.705  0.00  0.00    +0.000 A 
ATOM     16  C   LIG    1        1.192   4.352  -4.086  0.00  0.00    -0.060 A 
ATOM     17  S   LIG    1        1.338   3.258  -2.716  0.00  0.00    +0.130 S 
ENDBRANCH  12  13
ENDBRANCH   2  12
BRANCH   2  18
ATOM     18  C   LIG    1       -2.327   4.359  -0.060  0.00  0.00    +0.410 C 
BRANCH  18  19
ATOM     19  C   LIG    1       -2.734   4.627   1.366  0.00  0.00    -0.020 A 
ATOM     20  C   LIG    1       -2.340   5.674   2.113  0.00  0.00    -0.060 A 
ATOM     21  C   LIG    1       -2.957   5.530   3.377  0.00  0.00    -0.090 A 
ATOM     22  C   LIG    1       -3.691   4.404   3.327  0.00  0.00    +0.170 A 
ATOM     23  O   LIG    1       -3.557   3.864   2.104  0.00  0.00    -0.140 OA
ENDBRANCH  18  19
ENDBRANCH   2  18
TORSDOF 6
