REMARK  Name = ZINCtj000001Vgbi.1
REMARK                            x       y       z     vdW  Elec       q    Type
REMARK                         _______ _______ _______ _____ _____    ______ ____
ROOT
ATOM      1  C   LIG    1        2.876   2.140   7.297  0.00  0.00    +0.170 C 
ATOM      2  C   LIG    1        3.105   0.957   8.256  0.00  0.00    +0.070 C 
ATOM      3  C   LIG    1        3.236   1.994   9.387  0.00  0.00    +0.290 C 
ATOM      4  C   LIG    1        2.387   2.922   8.517  0.00  0.00    -0.120 C 
ATOM      5  C   LIG    1        0.894   3.113   8.788  0.00  0.00    +0.060 C 
ATOM      6  C   LIG    1        1.277   4.438   9.473  0.00  0.00    +0.040 C 
ATOM      7  C   LIG    1        2.542   4.441   8.597  0.00  0.00    +0.060 C 
ENDROOT
BRANCH   3   8
ATOM      8  N   LIG    1        4.606   2.470   9.592  0.00  0.00    -0.720 N 
ATOM      9  H   LIG    1        4.998   3.103   8.970  0.00  0.00    +0.410 HD
ATOM     10  C   LIG    1        5.322   2.030  10.646  0.00  0.00    +0.530 C 
ATOM     11  O   LIG    1        4.832   1.239  11.424  0.00  0.00    -0.500 OA
BRANCH  10  12
ATOM     12  C   LIG    1        6.731   2.521  10.857  0.00  0.00    +0.200 C 
BRANCH  12  13
ATOM     13  C   LIG    1        7.306   1.881  12.095  0.00  0.00    +0.280 A 
ATOM     14  N   LIG    1        7.966   0.752  12.141  0.00  0.00    -0.520 NA
ATOM     15  C   LIG    1        8.325   0.490  13.397  0.00  0.00    +0.260 A 
ATOM     16  N   LIG    1        7.896   1.452  14.171  0.00  0.00    -0.300 NA
ATOM     17  N   LIG    1        7.234   2.374  13.343  0.00  0.00    -0.370 N 
ATOM     18  C   LIG    1        6.590   3.622  13.759  0.00  0.00    +0.360 C 
BRANCH  15  19
ATOM     19  C   LIG    1        9.099  -0.721  13.851  0.00  0.00    +0.050 C 
ATOM     20  C   LIG    1        9.240  -0.944  15.358  0.00  0.00    +0.050 C 
ATOM     21  C   LIG    1       10.445  -0.481  14.537  0.00  0.00    +0.050 C 
ENDBRANCH  15  19
ENDBRANCH  12  13
ENDBRANCH  10  12
ENDBRANCH   3   8
BRANCH   1  22
ATOM     22  N   LIG    1        1.828   1.893   6.297  0.00  0.00    -0.500 N 
ATOM     23  H   LIG    1        1.094   1.337   6.709  0.00  0.00    +0.430 HD
ATOM     24  H   LIG    1        1.448   2.774   5.985  0.00  0.00    +0.430 HD
BRANCH  22  25
ATOM     25  C   LIG    1        2.404   1.175   5.152  0.00  0.00    +0.450 C 
BRANCH  25  29
ATOM     26  C   LIG    1        0.000   1.080   2.488  0.00  0.00    +0.190 A 
ATOM     27  N   LIG    1       -0.225  -0.035   3.115  0.00  0.00    -0.340 NA
ATOM     28  O   LIG    1        0.532  -0.148   4.056  0.00  0.00    +0.110 OA
ATOM     29  C   LIG    1        1.330   0.922   4.126  0.00  0.00    +0.090 A 
ATOM     30  N   LIG    1        0.999   1.710   3.131  0.00  0.00    -0.430 NA
BRANCH  26  32
ATOM     31  C   LIG    1       -0.013   1.086   0.008  0.00  0.00    +0.050 C 
ATOM     32  C   LIG    1       -0.729   1.579   1.267  0.00  0.00    +0.170 C 
ENDBRANCH  26  32
ENDBRANCH  25  29
ENDBRANCH  22  25
ENDBRANCH   1  22
TORSDOF 8
