REMARK  Name = ZINCkj00000GePWe.1
REMARK                            x       y       z     vdW  Elec       q    Type
REMARK                         _______ _______ _______ _____ _____    ______ ____
ROOT
ATOM      1  N   LIG    1        5.678   3.379   3.069  0.00  0.00    -0.750 N 
ATOM      2  H   LIG    1        5.059   3.253   3.806  0.00  0.00    +0.400 HD
ATOM      3  C   LIG    1        5.344   2.965   1.831  0.00  0.00    +0.700 C 
ATOM      4  N   LIG    1        4.151   2.377   1.616  0.00  0.00    -0.730 N 
ATOM      5  H   LIG    1        3.533   2.250   2.352  0.00  0.00    +0.400 HD
ATOM      6  O   LIG    1        6.119   3.123   0.907  0.00  0.00    -0.580 OA
ENDROOT
BRANCH   1   9
ATOM      7  N   LIG    1        8.098   2.886   5.092  0.00  0.00    -0.400 N 
ATOM      8  C   LIG    1        8.050   2.955   3.608  0.00  0.00    +0.260 C 
ATOM      9  C   LIG    1        6.975   4.019   3.303  0.00  0.00    +0.290 C 
ATOM     10  C   LIG    1        6.915   4.906   4.564  0.00  0.00    -0.010 C 
ATOM     11  C   LIG    1        7.284   6.349   4.216  0.00  0.00    +0.080 C 
ATOM     12  C   LIG    1        7.961   4.299   5.528  0.00  0.00    +0.280 C 
ATOM     13  H   LIG    1        7.332   2.332   5.444  0.00  0.00    +0.420 HD
BRANCH   7  15
ATOM     14  C   LIG    1        9.421   2.304   7.069  0.00  0.00    +0.090 C 
ATOM     15  C   LIG    1        9.383   2.332   5.539  0.00  0.00    +0.170 C 
ATOM     16  C   LIG    1        9.542   0.910   4.999  0.00  0.00    +0.090 C 
ENDBRANCH   7  15
ENDBRANCH   1   9
BRANCH   4  17
ATOM     17  C   LIG    1        3.788   1.927   0.269  0.00  0.00    +0.340 C 
BRANCH  17  18
ATOM     18  C   LIG    1        2.414   1.308   0.300  0.00  0.00    -0.200 C 
ATOM     19  C   LIG    1        1.391   2.051  -0.000  0.00  0.00    +0.020 C 
ATOM     20  C   LIG    1       -0.019   1.527   0.010  0.00  0.00    +0.050 C 
ATOM     21  C   LIG    1        0.002  -0.004   0.002  0.00  0.00    +0.210 C 
ATOM     22  O   LIG    1        0.930  -0.449   0.999  0.00  0.00    -0.380 OA
ATOM     23  C   LIG    1        2.288  -0.141   0.675  0.00  0.00    +0.270 C 
ENDBRANCH  17  18
ENDBRANCH   4  17
TORSDOF 4
