REMARK  Name = ZINCkj00000GePWe.0
REMARK                            x       y       z     vdW  Elec       q    Type
REMARK                         _______ _______ _______ _____ _____    ______ ____
ROOT
ATOM      1  N   LIG    1       -0.683  -0.084   3.103  0.00  0.00    -0.740 N 
ATOM      2  H   LIG    1       -1.630  -0.217   2.938  0.00  0.00    +0.410 HD
ATOM      3  C   LIG    1        0.000  -0.968   3.857  0.00  0.00    +0.710 C 
ATOM      4  N   LIG    1       -0.632  -2.036   4.381  0.00  0.00    -0.730 N 
ATOM      5  H   LIG    1       -1.578  -2.169   4.216  0.00  0.00    +0.400 HD
ATOM      6  O   LIG    1        1.187  -0.801   4.064  0.00  0.00    -0.580 OA
ENDROOT
BRANCH   1   9
ATOM      7  N   LIG    1        0.085   3.455   2.576  0.00  0.00    -0.390 N 
ATOM      8  C   LIG    1       -0.083   2.294   3.488  0.00  0.00    +0.260 C 
ATOM      9  C   LIG    1        0.004   1.077   2.532  0.00  0.00    +0.280 C 
ATOM     10  C   LIG    1       -0.729   1.579   1.267  0.00  0.00    +0.000 C 
ATOM     11  C   LIG    1       -0.013   1.086   0.008  0.00  0.00    +0.070 C 
ATOM     12  C   LIG    1       -0.667   3.116   1.349  0.00  0.00    +0.270 C 
ATOM     13  H   LIG    1        1.062   3.590   2.361  0.00  0.00    +0.430 HD
BRANCH   7  15
ATOM     14  C   LIG    1        0.284   4.972   4.488  0.00  0.00    +0.090 C 
ATOM     15  C   LIG    1       -0.470   4.667   3.192  0.00  0.00    +0.170 C 
ATOM     16  C   LIG    1       -0.321   5.844   2.227  0.00  0.00    +0.090 C 
ENDBRANCH   7  15
ENDBRANCH   1   9
BRANCH   4  17
ATOM     17  C   LIG    1        0.111  -2.997   5.201  0.00  0.00    +0.340 C 
BRANCH  17  18
ATOM     18  C   LIG    1       -0.819  -4.089   5.662  0.00  0.00    -0.200 C 
ATOM     19  C   LIG    1       -0.880  -5.187   4.969  0.00  0.00    +0.020 C 
ATOM     20  C   LIG    1       -1.784  -6.330   5.342  0.00  0.00    +0.050 C 
ATOM     21  C   LIG    1       -2.244  -6.167   6.794  0.00  0.00    +0.210 C 
ATOM     22  O   LIG    1       -2.694  -4.819   6.977  0.00  0.00    -0.370 OA
ATOM     23  C   LIG    1       -1.631  -3.864   6.906  0.00  0.00    +0.270 C 
ENDBRANCH  17  18
ENDBRANCH   4  17
TORSDOF 4
