REMARK  Name = ZINCbw0000000HcZ.0
REMARK                            x       y       z     vdW  Elec       q    Type
REMARK                         _______ _______ _______ _____ _____    ______ ____
ROOT
ATOM      1  C   LIG    1        1.401   1.607  -0.003  0.00  0.00    -0.040 A 
ATOM      2  C   LIG    1        1.631   2.972  -0.003  0.00  0.00    +0.000 A 
ATOM      3  C   LIG    1        2.922   3.457  -0.008  0.00  0.00    +0.070 A 
ATOM      4  C   LIG    1        4.000   2.566  -0.024  0.00  0.00    -0.200 A 
ATOM      5  C   LIG    1        3.759   1.189  -0.028  0.00  0.00    +0.070 A 
ATOM      6  C   LIG    1        2.462   0.719  -0.018  0.00  0.00    +0.000 A 
ENDROOT
BRANCH   1   8
ATOM      7  C   LIG    1       -0.753   1.593  -1.232  0.00  0.00    +0.030 C 
ATOM      8  C   LIG    1       -0.013   1.086   0.008  0.00  0.00    +0.020 C 
ATOM      9  C   LIG    1       -0.729   1.579   1.267  0.00  0.00    +0.030 C 
ENDBRANCH   1   8
BRANCH   4  10
ATOM     10  C   LIG    1        5.380   3.076  -0.036  0.00  0.00    +0.490 C 
ATOM     11  O   LIG    1        5.586   4.271  -0.032  0.00  0.00    -0.460 OA
ENDBRANCH   4  10
TORSDOF 2
