REMARK  Name = ZINCpk00000kUTHf.0
REMARK                            x       y       z     vdW  Elec       q    Type
REMARK                         _______ _______ _______ _____ _____    ______ ____
ROOT
ATOM      1  C   LIG    1       -8.500  -1.402  -2.640  0.00  0.00    +0.360 C 
ATOM      2  N   LIG    1       -7.142  -1.176  -2.140  0.00  0.00    -0.360 N 
ATOM      3  N   LIG    1       -6.040  -0.789  -2.912  0.00  0.00    -0.290 NA
ATOM      4  C   LIG    1       -4.997  -0.683  -2.136  0.00  0.00    +0.270 A 
ATOM      5  C   LIG    1       -5.398  -1.002  -0.819  0.00  0.00    -0.290 A 
ATOM      6  C   LIG    1       -6.743  -1.310  -0.865  0.00  0.00    +0.170 A 
ENDROOT
BRANCH   5   7
ATOM      7  C   LIG    1       -4.539  -1.012   0.379  0.00  0.00    +0.630 C 
ATOM      8  N   LIG    1       -3.233  -0.694   0.275  0.00  0.00    -0.640 N 
ATOM      9  C   LIG    1       -2.112  -0.601   1.230  0.00  0.00    +0.280 C 
ATOM     10  C   LIG    1       -1.196  -0.847   0.017  0.00  0.00    +0.250 C 
ATOM     11  C   LIG    1       -2.350  -0.300  -0.843  0.00  0.00    +0.280 C 
ATOM     12  O   LIG    1       -5.008  -1.307   1.462  0.00  0.00    -0.540 OA
BRANCH  10  13
ATOM     13  N   LIG    1        0.002  -0.004   0.002  0.00  0.00    -0.610 N 
ATOM     14  C   LIG    1        1.376  -0.518  -0.024  0.00  0.00    +0.260 C 
ATOM     15  C   LIG    1        2.269   0.668   0.404  0.00  0.00    +0.040 C 
ATOM     16  C   LIG    1        1.397   1.879  -0.001  0.00  0.00    +0.050 C 
ATOM     17  C   LIG    1       -0.016   1.340   0.009  0.00  0.00    +0.520 C 
ATOM     18  O   LIG    1       -1.020   2.021   0.018  0.00  0.00    -0.520 OA
ENDBRANCH  10  13
ENDBRANCH   5   7
BRANCH   6  19
ATOM     19  C   LIG    1       -7.606  -1.717   0.301  0.00  0.00    +0.180 C 
BRANCH  19  20
ATOM     20  C   LIG    1       -7.574  -3.216   0.451  0.00  0.00    -0.080 A 
ATOM     21  C   LIG    1       -8.506  -3.996  -0.207  0.00  0.00    +0.000 A 
ATOM     22  C   LIG    1       -8.474  -5.372  -0.074  0.00  0.00    +0.000 A 
ATOM     23  C   LIG    1       -7.515  -5.966   0.725  0.00  0.00    +0.000 A 
ATOM     24  C   LIG    1       -6.586  -5.186   1.387  0.00  0.00    +0.000 A 
ATOM     25  C   LIG    1       -6.615  -3.811   1.250  0.00  0.00    +0.040 A 
ENDBRANCH  19  20
ENDBRANCH   6  19
TORSDOF 4
