REMARK  Name = ZINCrD000000fA6W.0
REMARK                            x       y       z     vdW  Elec       q    Type
REMARK                         _______ _______ _______ _____ _____    ______ ____
ROOT
ATOM      1  C   LIG    1        3.632  -2.019   0.059  0.00  0.00    +0.500 C 
ATOM      2  N   LIG    1        3.621  -0.675  -0.036  0.00  0.00    -0.680 N 
ATOM      3  H   LIG    1        4.457  -0.188  -0.109  0.00  0.00    +0.410 HD
ATOM      4  O   LIG    1        2.587  -2.635   0.066  0.00  0.00    -0.480 OA
ENDROOT
BRANCH   2   5
ATOM      5  C   LIG    1        2.405   0.018  -0.029  0.00  0.00    +0.140 A 
ATOM      6  C   LIG    1        1.284  -0.540  -0.633  0.00  0.00    +0.080 A 
ATOM      7  C   LIG    1        0.081   0.139  -0.629  0.00  0.00    +0.050 A 
ATOM      8  C   LIG    1       -0.017   1.377  -0.025  0.00  0.00    +0.000 A 
ATOM      9  C   LIG    1        1.104   1.947   0.585  0.00  0.00    -0.120 A 
ATOM     10 CL   LIG    1       -1.529   2.229  -0.029  0.00  0.00    -0.030 Cl
ATOM     11  C   LIG    1        2.319   1.260   0.580  0.00  0.00    +0.040 A 
BRANCH   9  12
ATOM     12  C   LIG    1        1.004   3.272   1.232  0.00  0.00    +0.560 C 
ATOM     13  O   LIG    1       -0.055   3.868   1.234  0.00  0.00    -0.510 OA
ATOM     14  N   LIG    1        2.087   3.818   1.819  0.00  0.00    -0.850 N 
ATOM     15  H   LIG    1        2.021   4.688   2.244  0.00  0.00    +0.410 HD
ATOM     16  H   LIG    1        2.932   3.342   1.817  0.00  0.00    +0.400 HD
ENDBRANCH   9  12
ENDBRANCH   2   5
BRANCH   1  17
ATOM     17  C   LIG    1        4.942  -2.758   0.157  0.00  0.00    +0.060 C 
BRANCH  17  29
ATOM     18  C   LIG    1        1.944  -5.115   2.802  0.00  0.00    +0.100 C 
ATOM     19  C   LIG    1        2.656  -4.812   1.509  0.00  0.00    +0.510 C 
ATOM     20  N   LIG    1        3.979  -4.556   1.511  0.00  0.00    -0.560 N 
ATOM     21  C   LIG    1        4.689  -4.570   2.705  0.00  0.00    +0.240 C 
ATOM     22  C   LIG    1        5.971  -4.955   2.708  0.00  0.00    -0.040 C 
ATOM     23  C   LIG    1        6.613  -5.329   1.433  0.00  0.00    -0.030 A 
ATOM     24  C   LIG    1        7.833  -6.003   1.420  0.00  0.00    +0.020 A 
ATOM     25  C   LIG    1        8.403  -6.361   0.214  0.00  0.00    +0.020 A 
ATOM     26  C   LIG    1        7.768  -6.053  -0.975  0.00  0.00    +0.010 A 
ATOM     27  C   LIG    1        6.559  -5.376  -0.969  0.00  0.00    +0.030 A 
ATOM     28  C   LIG    1        5.983  -5.010   0.227  0.00  0.00    -0.110 A 
ATOM     29  C   LIG    1        4.674  -4.261   0.253  0.00  0.00    +0.320 C 
ATOM     30  O   LIG    1        2.037  -4.799   0.465  0.00  0.00    -0.480 OA
ENDBRANCH  17  29
ENDBRANCH   1  17
TORSDOF 4
