REMARK  Name = ZINCpe000000YrkL.0
REMARK                            x       y       z     vdW  Elec       q    Type
REMARK                         _______ _______ _______ _____ _____    ______ ____
ROOT
ATOM      1  C   LIG    1        2.657   0.681   2.286  0.00  0.00    +0.220 C 
ATOM      2  C   LIG    1        2.283   0.919   0.823  0.00  0.00    +0.280 C 
ATOM      3  N   LIG    1        1.003   1.646   0.778  0.00  0.00    -0.610 N 
ATOM      4  C   LIG    1        0.866   2.857   1.603  0.00  0.00    +0.260 C 
ATOM      5  C   LIG    1        1.308   2.521   3.032  0.00  0.00    +0.230 C 
ATOM      6  C   LIG    1       -0.014   1.211   0.009  0.00  0.00    +0.560 C 
ATOM      7  O   LIG    1        0.141   0.249  -0.718  0.00  0.00    -0.520 OA
ATOM      8  O   LIG    1        2.606   1.921   2.995  0.00  0.00    -0.360 OA
ENDROOT
BRANCH   1  14
ATOM      9  C   LIG    1        3.433  -2.315   2.467  0.00  0.00    +0.340 C 
ATOM     10  N   LIG    1        4.375  -1.194   2.442  0.00  0.00    -0.370 N 
ATOM     11  N   LIG    1        5.772  -1.290   2.496  0.00  0.00    -0.280 NA
ATOM     12  C   LIG    1        6.266  -0.079   2.451  0.00  0.00    +0.230 A 
ATOM     13  C   LIG    1        5.203   0.825   2.362  0.00  0.00    -0.090 A 
ATOM     14  C   LIG    1        4.051   0.114   2.364  0.00  0.00    +0.080 A 
ENDBRANCH   1  14
BRANCH   6  15
ATOM     15  C   LIG    1       -1.317   1.909   0.044  0.00  0.00    -0.120 A 
ATOM     16  C   LIG    1       -1.372   3.299  -0.073  0.00  0.00    +0.050 A 
ATOM     17  C   LIG    1       -2.591   3.943  -0.046  0.00  0.00    +0.020 A 
ATOM     18  C   LIG    1       -3.758   3.216   0.109  0.00  0.00    -0.060 A 
ATOM     19  C   LIG    1       -3.711   1.838   0.231  0.00  0.00    +0.050 A 
ATOM     20  C   LIG    1       -2.498   1.181   0.200  0.00  0.00    +0.060 A 
BRANCH  18  21
ATOM     21  C   LIG    1       -5.086   3.927   0.144  0.00  0.00    +0.110 C 
ATOM     22  C   LIG    1       -5.466   4.602  -1.188  0.00  0.00    +0.210 C 
ATOM     23  O   LIG    1       -5.884   5.716  -0.373  0.00  0.00    -0.380 OA
ATOM     24  C   LIG    1       -5.012   5.355   0.717  0.00  0.00    +0.210 C 
BRANCH  21  25
ATOM     25  O   LIG    1       -6.131   3.132   0.709  0.00  0.00    -0.530 OA
ATOM     26  H   LIG    1       -6.990   3.574   0.738  0.00  0.00    +0.390 HD
ENDBRANCH  21  25
ENDBRANCH  18  21
ENDBRANCH   6  15
TORSDOF 4
