REMARK  Name = ZINCrH000004tmy5.0
REMARK                            x       y       z     vdW  Elec       q    Type
REMARK                         _______ _______ _______ _____ _____    ______ ____
ROOT
ATOM      1  N   LIG    1       -2.649   8.228  -0.246  0.00  0.00    -0.510 NA
ATOM      2  C   LIG    1       -3.276   7.802  -1.504  0.00  0.00    +0.270 C 
ATOM      3  C   LIG    1       -2.714   8.585  -2.656  0.00  0.00    -0.070 C 
ATOM      4  C   LIG    1       -2.050   9.712  -2.502  0.00  0.00    -0.050 C 
ATOM      5  C   LIG    1       -1.786  10.320  -1.153  0.00  0.00    +0.040 C 
ATOM      6  C   LIG    1       -2.717   9.692  -0.112  0.00  0.00    +0.220 C 
ENDROOT
BRANCH   4   7
ATOM      7  C   LIG    1       -1.546  10.406  -3.703  0.00  0.00    -0.150 A 
ATOM      8  C   LIG    1       -2.064  11.526  -4.270  0.00  0.00    +0.240 A 
ATOM      9  N   LIG    1       -1.325  11.873  -5.363  0.00  0.00    -0.590 N 
ATOM     10  H   LIG    1       -1.500  12.640  -5.931  0.00  0.00    +0.420 HD
ATOM     11  C   LIG    1       -0.298  10.973  -5.549  0.00  0.00    +0.090 A 
ATOM     12  C   LIG    1        0.715  10.866  -6.496  0.00  0.00    -0.010 A 
ATOM     13  C   LIG    1        1.619   9.829  -6.421  0.00  0.00    +0.030 A 
ATOM     14  C   LIG    1        1.530   8.885  -5.408  0.00  0.00    -0.020 A 
ATOM     15  C   LIG    1        0.534   8.973  -4.461  0.00  0.00    +0.050 A 
ATOM     16  C   LIG    1       -0.387  10.016  -4.523  0.00  0.00    -0.090 A 
ENDBRANCH   4   7
BRANCH   1  17
ATOM     17  C   LIG    1       -1.260   7.756  -0.164  0.00  0.00    +0.220 C 
BRANCH  17  20
ATOM     18  N   LIG    1       -0.074   5.594   0.030  0.00  0.00    -0.680 N 
ATOM     19  H   LIG    1        0.757   6.090   0.092  0.00  0.00    +0.410 HD
ATOM     20  C   LIG    1       -1.246   6.253  -0.058  0.00  0.00    +0.520 C 
ATOM     21  O   LIG    1       -2.291   5.635  -0.051  0.00  0.00    -0.490 OA
BRANCH  18  25
ATOM     22  C   LIG    1       -0.020   1.428   0.036  0.00  0.00    -0.050 A 
ATOM     23  C   LIG    1       -1.069   2.115   0.651  0.00  0.00    +0.090 A 
ATOM     24  C   LIG    1       -1.081   3.492   0.652  0.00  0.00    +0.030 A 
ATOM     25  C   LIG    1       -0.056   4.199   0.032  0.00  0.00    +0.180 A 
ATOM     26  C   LIG    1        0.988   3.518  -0.585  0.00  0.00    -0.010 A 
ATOM     27  C   LIG    1        1.009   2.141  -0.586  0.00  0.00    +0.090 A 
BRANCH  22  29
ATOM     28  N   LIG    1        0.013  -1.140   0.038  0.00  0.00    -0.420 NA
ATOM     29  C   LIG    1       -0.001  -0.004   0.037  0.00  0.00    +0.250 C 
ENDBRANCH  22  29
ENDBRANCH  18  25
ENDBRANCH  17  20
ENDBRANCH   1  17
TORSDOF 5
