REMARK  Name = ZINCpk00000xI9xS.0
REMARK                            x       y       z     vdW  Elec       q    Type
REMARK                         _______ _______ _______ _____ _____    ______ ____
ROOT
ATOM      1  C   LIG    1       -0.033   3.786  -0.031  0.00  0.00    +0.160 C 
ATOM      2  C   LIG    1       -1.240   3.170   0.042  0.00  0.00    -0.140 C 
ATOM      3  C   LIG    1       -1.256   1.655   0.087  0.00  0.00    +0.350 C 
ATOM      4  N   LIG    1        0.047   0.971   0.060  0.00  0.00    -0.710 N 
ATOM      5  H   LIG    1        0.099   0.003   0.090  0.00  0.00    +0.440 HD
ATOM      6  C   LIG    1        1.167   1.716  -0.013  0.00  0.00    +0.710 C 
ATOM      7  O   LIG    1        2.245   1.155  -0.042  0.00  0.00    -0.550 OA
ATOM      8  N   LIG    1        1.133   3.054  -0.057  0.00  0.00    -0.640 N 
ATOM      9  H   LIG    1        1.975   3.533  -0.109  0.00  0.00    +0.440 HD
ENDROOT
BRANCH   3  10
ATOM     10  C   LIG    1       -1.971   1.241   1.347  0.00  0.00    -0.160 A 
ATOM     11  C   LIG    1       -1.266   1.107   2.529  0.00  0.00    +0.070 A 
ATOM     12  C   LIG    1       -1.921   0.733   3.687  0.00  0.00    -0.080 A 
ATOM     13  C   LIG    1       -3.284   0.479   3.660  0.00  0.00    +0.140 A 
ATOM     14  C   LIG    1       -3.989   0.609   2.471  0.00  0.00    -0.020 A 
ATOM     15  C   LIG    1       -3.330   0.989   1.318  0.00  0.00    +0.070 A 
BRANCH  13  16
ATOM     16  O   LIG    1       -3.929   0.105   4.796  0.00  0.00    -0.320 OA
ATOM     17  C   LIG    1       -3.141  -0.008   5.982  0.00  0.00    +0.250 C 
ENDBRANCH  13  16
ENDBRANCH   3  10
BRANCH   1  18
ATOM     18  C   LIG    1        0.031   5.266  -0.084  0.00  0.00    +0.500 C 
ATOM     19  O   LIG    1       -0.992   5.915  -0.166  0.00  0.00    -0.460 OA
BRANCH  18  20
ATOM     20  O   LIG    1        1.223   5.891  -0.042  0.00  0.00    -0.350 OA
BRANCH  20  22
ATOM     21  C   LIG    1        2.645   7.867  -0.039  0.00  0.00    +0.070 C 
ATOM     22  C   LIG    1        1.210   7.341  -0.098  0.00  0.00    +0.220 C 
ENDBRANCH  20  22
ENDBRANCH  18  20
ENDBRANCH   1  18
BRANCH   2  23
ATOM     23  C   LIG    1       -2.485   3.942   0.070  0.00  0.00    +0.540 C 
ATOM     24  O   LIG    1       -3.029   4.179   1.131  0.00  0.00    -0.480 OA
BRANCH  23  25
ATOM     25  O   LIG    1       -3.027   4.388  -1.081  0.00  0.00    -0.340 OA
BRANCH  25  26
ATOM     26  C   LIG    1       -4.262   5.146  -0.978  0.00  0.00    +0.210 C 
ATOM     27  C   LIG    1       -4.721   5.565  -2.376  0.00  0.00    +0.070 C 
ENDBRANCH  25  26
ENDBRANCH  23  25
ENDBRANCH   2  23
TORSDOF 8
