REMARK  Name = ZINCtV000002B3BC.0
REMARK                            x       y       z     vdW  Elec       q    Type
REMARK                         _______ _______ _______ _____ _____    ______ ____
ROOT
ATOM      1  C   LIG    1       -4.820   1.083   0.252  0.00  0.00    +0.000 A 
ATOM      2  C   LIG    1       -6.026   1.696   0.377  0.00  0.00    -0.050 A 
ATOM      3  C   LIG    1       -7.019   0.626   0.459  0.00  0.00    -0.140 A 
ATOM      4  C   LIG    1       -8.409   0.596   0.591  0.00  0.00    +0.080 A 
ATOM      5  C   LIG    1       -9.058  -0.606   0.646  0.00  0.00    +0.010 A 
ATOM      6  C   LIG    1       -8.345  -1.794   0.570  0.00  0.00    +0.070 A 
ATOM      7  C   LIG    1       -6.973  -1.786   0.439  0.00  0.00    +0.030 A 
ATOM      8  C   LIG    1       -6.290  -0.576   0.382  0.00  0.00    +0.080 A 
ATOM      9  O   LIG    1       -4.988  -0.257   0.259  0.00  0.00    -0.170 OA
ENDROOT
BRANCH   1  10
ATOM     10  C   LIG    1       -3.529   1.772   0.133  0.00  0.00    +0.540 C 
ATOM     11  O   LIG    1       -3.486   2.987   0.137  0.00  0.00    -0.450 OA
BRANCH  10  12
ATOM     12  O   LIG    1       -2.391   1.057   0.019  0.00  0.00    -0.270 OA
BRANCH  12  16
ATOM     13  C   LIG    1        1.154   3.171   0.062  0.00  0.00    +0.140 A 
ATOM     14  C   LIG    1        0.729   2.553  -1.105  0.00  0.00    +0.000 A 
ATOM     15  C   LIG    1       -0.455   1.842  -1.118  0.00  0.00    +0.070 A 
ATOM     16  C   LIG    1       -1.222   1.752   0.034  0.00  0.00    +0.040 A 
ATOM     17  C   LIG    1       -0.795   2.365   1.202  0.00  0.00    +0.050 A 
ATOM     18  C   LIG    1        0.389   3.076   1.215  0.00  0.00    -0.050 A 
BRANCH  13  20
ATOM     19  C   LIG    1        2.695   4.483   1.311  0.00  0.00    +0.240 C 
ATOM     20  O   LIG    1        2.319   3.872   0.075  0.00  0.00    -0.310 OA
ENDBRANCH  13  20
ENDBRANCH  12  16
ENDBRANCH  10  12
ENDBRANCH   1  10
BRANCH   2  21
ATOM     21  C   LIG    1       -6.287   3.180   0.420  0.00  0.00    +0.170 C 
BRANCH  21  22
ATOM     22  S   LIG    1       -6.560   3.795  -1.265  0.00  0.00    -0.220 S 
BRANCH  22  23
ATOM     23  C   LIG    1       -6.853   5.567  -1.011  0.00  0.00    +0.130 C 
BRANCH  23  24
ATOM     24  C   LIG    1       -7.100   6.231  -2.341  0.00  0.00    -0.080 A 
ATOM     25  C   LIG    1       -6.041   6.751  -3.061  0.00  0.00    +0.020 A 
ATOM     26  C   LIG    1       -6.267   7.356  -4.283  0.00  0.00    +0.000 A 
ATOM     27  C   LIG    1       -7.553   7.451  -4.780  0.00  0.00    +0.010 A 
ATOM     28  C   LIG    1       -8.613   6.936  -4.057  0.00  0.00    +0.000 A 
ATOM     29  C   LIG    1       -8.386   6.326  -2.837  0.00  0.00    +0.020 A 
ENDBRANCH  23  24
ENDBRANCH  22  23
ENDBRANCH  21  22
ENDBRANCH   2  21
TORSDOF 8
