REMARK  Name = ZINCrg000000thJL.0
REMARK                            x       y       z     vdW  Elec       q    Type
REMARK                         _______ _______ _______ _____ _____    ______ ____
ROOT
ATOM      1  O   LIG    1       -5.595   7.569   1.134  0.00  0.00    -0.520 OA
ATOM      2  C   LIG    1       -4.530   7.847   1.643  0.00  0.00    +0.500 C 
ATOM      3  N   LIG    1       -3.489   6.997   1.538  0.00  0.00    -0.720 N 
ATOM      4  H   LIG    1       -2.638   7.219   1.945  0.00  0.00    +0.400 HD
ENDROOT
BRANCH   3   5
ATOM      5  C   LIG    1       -3.645   5.736   0.808  0.00  0.00    +0.260 C 
ATOM      6  C   LIG    1       -3.377   5.940  -0.700  0.00  0.00    +0.020 C 
ATOM      7  C   LIG    1       -2.593   4.691  -1.142  0.00  0.00    +0.190 C 
ATOM      8  N   LIG    1       -2.457   3.821   0.046  0.00  0.00    -0.480 N 
ATOM      9  C   LIG    1       -2.547   4.724   1.222  0.00  0.00    +0.190 C 
BRANCH   8  10
ATOM     10  C   LIG    1       -1.238   3.138   0.031  0.00  0.00    +0.110 A 
ATOM     11  C   LIG    1       -1.219   1.749   0.017  0.00  0.00    +0.060 A 
ATOM     12  C   LIG    1       -0.013   1.076   0.008  0.00  0.00    +0.080 A 
ATOM     13  C   LIG    1        1.176   1.783   0.000  0.00  0.00    -0.080 A 
ATOM     14  C   LIG    1        1.161   3.169   0.008  0.00  0.00    +0.120 A 
ATOM     15  F   LIG    1        2.323   3.857   0.000  0.00  0.00    -0.120 F 
ATOM     16 CL   LIG    1        2.690   0.933  -0.019  0.00  0.00    -0.040 Cl
ATOM     17  C   LIG    1       -0.044   3.847   0.023  0.00  0.00    -0.040 A 
ENDBRANCH   8  10
ENDBRANCH   3   5
BRANCH   2  18
ATOM     18  C   LIG    1       -4.369   9.144   2.394  0.00  0.00    +0.380 C 
BRANCH  18  19
ATOM     19  N   LIG    1       -5.633   9.885   2.365  0.00  0.00    -0.420 N 
ATOM     20  N   LIG    1       -5.893  10.788   1.329  0.00  0.00    -0.260 NA
ATOM     21  C   LIG    1       -6.992  11.461   1.263  0.00  0.00    +0.570 A 
ATOM     22  N   LIG    1       -7.981  11.330   2.213  0.00  0.00    -0.340 N 
ATOM     23  N   LIG    1       -9.236  11.926   2.375  0.00  0.00    -0.240 NA
ATOM     24  C   LIG    1       -9.795  11.450   3.464  0.00  0.00    +0.280 A 
ATOM     25  C   LIG    1       -8.930  10.531   4.049  0.00  0.00    +0.010 A 
ATOM     26  C   LIG    1       -7.801  10.462   3.262  0.00  0.00    +0.010 A 
ATOM     27  C   LIG    1       -6.555   9.693   3.336  0.00  0.00    +0.570 A 
ATOM     28  O   LIG    1       -6.354   8.908   4.246  0.00  0.00    -0.490 OA
ENDBRANCH  18  19
ENDBRANCH   2  18
TORSDOF 4
