REMARK  Name = ZINCpk000000mWeZ.0
REMARK                            x       y       z     vdW  Elec       q    Type
REMARK                         _______ _______ _______ _____ _____    ______ ____
ROOT
ATOM      1  C   LIG    1        0.758   2.744   0.579  0.00  0.00    +0.520 C 
ATOM      2  N   LIG    1        0.467   1.429   0.546  0.00  0.00    -0.720 N 
ATOM      3  H   LIG    1        1.182   0.774   0.529  0.00  0.00    +0.410 HD
ATOM      4  O   LIG    1       -0.137   3.563   0.601  0.00  0.00    -0.550 OA
ENDROOT
BRANCH   1   5
ATOM      5  C   LIG    1        2.195   3.198   0.589  0.00  0.00    +0.060 C 
BRANCH   5   6
ATOM      6  C   LIG    1        2.247   4.726   0.628  0.00  0.00    +0.320 C 
BRANCH   6   7
ATOM      7  C   LIG    1        3.679   5.177   0.761  0.00  0.00    -0.080 A 
ATOM      8  C   LIG    1        4.601   4.368   1.399  0.00  0.00    +0.010 A 
ATOM      9  C   LIG    1        5.915   4.780   1.518  0.00  0.00    +0.000 A 
ATOM     10  C   LIG    1        6.305   6.004   1.008  0.00  0.00    +0.000 A 
ATOM     11  C   LIG    1        5.382   6.815   0.375  0.00  0.00    +0.000 A 
ATOM     12  C   LIG    1        4.068   6.402   0.252  0.00  0.00    +0.010 A 
ENDBRANCH   6   7
BRANCH   6  15
ATOM     13  C   LIG    1        1.766   5.670  -3.049  0.00  0.00    +0.080 C 
ATOM     14  C   LIG    1        2.281   5.021  -1.791  0.00  0.00    +0.510 C 
ATOM     15  N   LIG    1        1.679   5.266  -0.611  0.00  0.00    -0.720 N 
ATOM     16  H   LIG    1        0.869   5.799  -0.581  0.00  0.00    +0.410 HD
ATOM     17  O   LIG    1        3.239   4.277  -1.841  0.00  0.00    -0.540 OA
ENDBRANCH   6  15
ENDBRANCH   5   6
ENDBRANCH   1   5
BRANCH   2  18
ATOM     18  C   LIG    1       -0.930   0.988   0.537  0.00  0.00    +0.280 C 
BRANCH  18  19
ATOM     19  C   LIG    1       -0.984  -0.539   0.618  0.00  0.00    +0.090 C 
ATOM     20  C   LIG    1       -0.339  -1.139  -0.634  0.00  0.00    +0.050 C 
ATOM     21  C   LIG    1       -2.442  -0.995   0.709  0.00  0.00    +0.020 C 
BRANCH  19  22
ATOM     22  N   LIG    1       -0.254  -0.992   1.810  0.00  0.00    -0.520 NA
ATOM     23  C   LIG    1       -0.187  -2.460   1.860  0.00  0.00    +0.150 C 
ATOM     24  C   LIG    1        0.630  -2.886   3.082  0.00  0.00    +0.220 C 
ATOM     25  O   LIG    1        0.042  -2.330   4.261  0.00  0.00    -0.380 OA
ATOM     26  C   LIG    1       -0.039  -0.903   4.246  0.00  0.00    +0.220 C 
ATOM     27  C   LIG    1       -0.864  -0.456   3.035  0.00  0.00    +0.150 C 
ENDBRANCH  19  22
ENDBRANCH  18  19
ENDBRANCH   2  18
TORSDOF 7
