REMARK  Name = ZINCpe000027pH72.0
REMARK                            x       y       z     vdW  Elec       q    Type
REMARK                         _______ _______ _______ _____ _____    ______ ____
ROOT
ATOM      1  C   LIG    1        1.664   2.404   0.025  0.00  0.00    -0.070 A 
ATOM      2  C   LIG    1        0.587   1.522  -0.121  0.00  0.00    +0.020 A 
ATOM      3  C   LIG    1       -0.699   2.016  -0.218  0.00  0.00    +0.090 A 
ATOM      4  C   LIG    1       -0.923   3.391  -0.159  0.00  0.00    +0.190 A 
ATOM      5  C   LIG    1        0.144   4.268  -0.015  0.00  0.00    -0.670 A 
ATOM      6  C   LIG    1        1.430   3.784   0.077  0.00  0.00    +0.140 A 
ENDROOT
BRANCH   5   7
ATOM      7  S   LIG    1       -0.148   6.004   0.052  0.00  0.00    +2.700 S 
ATOM      8  O   LIG    1       -1.020   6.306  -1.029  0.00  0.00    -0.940 OA
ATOM      9  O   LIG    1        1.122   6.619   0.220  0.00  0.00    -0.950 OA
BRANCH   7  10
ATOM     10  N   LIG    1       -1.000   6.305   1.439  0.00  0.00    -0.980 NA
ATOM     11  C   LIG    1       -2.461   6.406   1.394  0.00  0.00    +0.320 C 
BRANCH  10  12
ATOM     12  C   LIG    1       -0.294   6.471   2.712  0.00  0.00    +0.310 C 
BRANCH  12  13
ATOM     13  C   LIG    1       -0.039   7.958   2.963  0.00  0.00    +0.150 C 
ATOM     14  C   LIG    1        0.807   8.124   4.228  0.00  0.00    +0.010 C 
BRANCH  13  15
ATOM     15  O   LIG    1       -1.287   8.633   3.133  0.00  0.00    -0.560 OA
ATOM     16  H   LIG    1       -1.201   9.583   3.297  0.00  0.00    +0.380 HD
ENDBRANCH  13  15
ENDBRANCH  12  13
ENDBRANCH  10  12
ENDBRANCH   7  10
ENDBRANCH   5   7
BRANCH   1  18
ATOM     17  C   LIG    1        3.258   0.553   0.071  0.00  0.00    -0.060 C 
ATOM     18  C   LIG    1        3.035   1.885   0.122  0.00  0.00    +0.160 C 
BRANCH  17  19
ATOM     19  C   LIG    1        4.581   0.052   0.164  0.00  0.00    +0.500 C 
ATOM     20  O   LIG    1        5.515   0.821   0.291  0.00  0.00    -0.510 OA
BRANCH  19  22
ATOM     21  C   LIG    1        6.161  -1.713   0.214  0.00  0.00    +0.250 C 
ATOM     22  O   LIG    1        4.803  -1.278   0.113  0.00  0.00    -0.350 OA
ENDBRANCH  19  22
ENDBRANCH  17  19
ENDBRANCH   1  18
BRANCH   4  23
ATOM     23  O   LIG    1       -2.189   3.875  -0.249  0.00  0.00    -0.330 OA
ATOM     24  C   LIG    1       -2.728   4.041  -1.562  0.00  0.00    +0.250 C 
ENDBRANCH   4  23
BRANCH   3  25
ATOM     25  O   LIG    1       -1.746   1.162  -0.366  0.00  0.00    -0.300 OA
ATOM     26  C   LIG    1       -1.444  -0.234  -0.412  0.00  0.00    +0.250 C 
ENDBRANCH   3  25
TORSDOF 10
