REMARK  Name = ZINCvU00000004uN.0
REMARK                            x       y       z     vdW  Elec       q    Type
REMARK                         _______ _______ _______ _____ _____    ______ ____
ROOT
ATOM      1  C   LIG    1       -1.256   3.431   0.136  0.00  0.00    +0.370 A 
ATOM      2  N   LIG    1       -2.362   4.135   0.146  0.00  0.00    -0.520 NA
ATOM      3  C   LIG    1       -3.573   3.550   0.052  0.00  0.00    +0.160 A 
ATOM      4  C   LIG    1       -4.751   4.302   0.068  0.00  0.00    +0.030 A 
ATOM      5  C   LIG    1       -5.967   3.666  -0.030  0.00  0.00    +0.070 A 
ATOM      6  C   LIG    1       -6.041   2.284  -0.146  0.00  0.00    +0.000 A 
ATOM      7  C   LIG    1       -4.895   1.520  -0.165  0.00  0.00    +0.100 A 
ATOM      8  C   LIG    1       -3.652   2.143  -0.066  0.00  0.00    -0.200 A 
ATOM      9  C   LIG    1       -2.399   1.376  -0.082  0.00  0.00    +0.560 A 
ATOM     10  O   LIG    1       -2.402   0.163  -0.181  0.00  0.00    -0.490 OA
ATOM     11  N   LIG    1       -1.241   2.069   0.019  0.00  0.00    -0.490 N 
ENDROOT
BRANCH  11  12
ATOM     12  C   LIG    1       -0.017   1.385   0.010  0.00  0.00    +0.100 A 
ATOM     13  C   LIG    1        0.635   1.145  -1.193  0.00  0.00    +0.070 A 
ATOM     14  C   LIG    1        1.837   0.466  -1.203  0.00  0.00    +0.030 A 
ATOM     15  C   LIG    1        2.395   0.023  -0.010  0.00  0.00    -0.080 A 
ATOM     16  C   LIG    1        1.742   0.264   1.193  0.00  0.00    +0.060 A 
ATOM     17  C   LIG    1        0.540   0.942   1.202  0.00  0.00    +0.070 A 
BRANCH  15  18
ATOM     18  S   LIG    1        3.930  -0.842  -0.023  0.00  0.00    -0.080 S 
BRANCH  18  19
ATOM     19  C   LIG    1        4.354  -0.894  -1.786  0.00  0.00    +0.430 C 
ATOM     20  F   LIG    1        4.469   0.411  -2.276  0.00  0.00    -0.180 F 
ATOM     21  F   LIG    1        3.350  -1.570  -2.487  0.00  0.00    -0.180 F 
ENDBRANCH  18  19
ENDBRANCH  15  18
ENDBRANCH  11  12
BRANCH   1  22
ATOM     22  S   LIG    1        0.281   4.281   0.271  0.00  0.00    +0.030 S 
BRANCH  22  23
ATOM     23  C   LIG    1       -0.311   5.986   0.394  0.00  0.00    +0.080 C 
BRANCH  23  24
ATOM     24  C   LIG    1        0.883   6.933   0.523  0.00  0.00    +0.120 C 
BRANCH  24  25
ATOM     25  C   LIG    1        0.382   8.375   0.627  0.00  0.00    +0.040 C 
ATOM     26  N   LIG    1       -0.984   8.610   1.101  0.00  0.00    -0.110 NA
ATOM     27  N   LIG    1       -0.820   8.755  -0.119  0.00  0.00    -0.120 NA
BRANCH  25  28
ATOM     28  C   LIG    1        1.445   9.443   0.895  0.00  0.00    +0.120 C 
BRANCH  28  29
ATOM     29  C   LIG    1        0.779  10.818   0.969  0.00  0.00    +0.160 C 
BRANCH  29  31
ATOM     30  C   LIG    1        2.618  12.664   1.433  0.00  0.00    +0.030 C 
ATOM     31  C   LIG    1        1.802  11.845   1.227  0.00  0.00    -0.190 C 
ENDBRANCH  29  31
ENDBRANCH  28  29
ENDBRANCH  25  28
ENDBRANCH  24  25
ENDBRANCH  23  24
ENDBRANCH  22  23
ENDBRANCH   1  22
TORSDOF 10
