REMARK  Name = ZINCpk000005Ja6G.0
REMARK                            x       y       z     vdW  Elec       q    Type
REMARK                         _______ _______ _______ _____ _____    ______ ____
ROOT
ATOM      1  C   LIG    1       -6.144   3.619   0.052  0.00  0.00    +0.230 C 
ATOM      2  C   LIG    1       -7.662   3.453  -0.027  0.00  0.00    +0.060 C 
ENDROOT
BRANCH   1   3
ATOM      3  N   LIG    1       -5.806   4.485   1.184  0.00  0.00    -0.610 N 
ATOM      4  C   LIG    1       -5.140   5.638   0.975  0.00  0.00    +0.510 C 
ATOM      5  O   LIG    1       -4.821   5.959  -0.150  0.00  0.00    -0.520 OA
ATOM      6  C   LIG    1       -6.191   4.098   2.543  0.00  0.00    +0.290 C 
BRANCH   4   7
ATOM      7  C   LIG    1       -4.793   6.529   2.139  0.00  0.00    +0.230 C 
ATOM      8  C   LIG    1       -3.431   6.119   2.701  0.00  0.00    +0.040 C 
ATOM      9  C   LIG    1       -2.990   7.162   3.734  0.00  0.00    +0.050 C 
ATOM     10  C   LIG    1       -2.703   8.473   2.999  0.00  0.00    +0.060 C 
ATOM     11  C   LIG    1       -3.844   8.805   2.081  0.00  0.00    +0.520 C 
ATOM     12  O   LIG    1       -3.940   9.944   1.674  0.00  0.00    -0.540 OA
ATOM     13  N   LIG    1       -4.758   7.916   1.691  0.00  0.00    -0.590 N 
ATOM     14  C   LIG    1       -5.792   8.360   0.753  0.00  0.00    +0.280 C 
ENDBRANCH   4   7
ENDBRANCH   1   3
BRANCH   1  15
ATOM     15  C   LIG    1       -5.490   2.249   0.246  0.00  0.00    +0.280 C 
BRANCH  15  17
ATOM     16  C   LIG    1       -3.263   1.340   0.633  0.00  0.00    +0.610 C 
ATOM     17  N   LIG    1       -4.048   2.418   0.441  0.00  0.00    -0.720 N 
ATOM     18  H   LIG    1       -3.659   3.307   0.433  0.00  0.00    +0.400 HD
ATOM     19  O   LIG    1       -3.751   0.226   0.643  0.00  0.00    -0.520 OA
BRANCH  16  24
ATOM     20  C   LIG    1        1.227   3.505   1.113  0.00  0.00    +0.180 C 
ATOM     21  C   LIG    1        0.151   2.453   1.039  0.00  0.00    +0.030 A 
ATOM     22  C   LIG    1        0.343   1.121   1.161  0.00  0.00    -0.060 A 
ATOM     23  C   LIG    1       -0.914   0.509   1.032  0.00  0.00    -0.070 A 
ATOM     24  C   LIG    1       -1.819   1.510   0.828  0.00  0.00    -0.100 A 
ATOM     25  C   LIG    1       -1.206  -0.968   1.097  0.00  0.00    +0.140 C 
ATOM     26  O   LIG    1       -1.154   2.684   0.842  0.00  0.00    -0.160 OA
ENDBRANCH  16  24
ENDBRANCH  15  17
ENDBRANCH   1  15
TORSDOF 5
