REMARK  Name = ZINCpk000000n28D.0
REMARK                            x       y       z     vdW  Elec       q    Type
REMARK                         _______ _______ _______ _____ _____    ______ ____
ROOT
ATOM      1  C   LIG    1        0.010  -0.030   0.249  0.00  0.00    +0.520 C 
ATOM      2  N   LIG    1       -0.028   1.316   0.296  0.00  0.00    -0.730 N 
ATOM      3  H   LIG    1        0.783   1.829   0.156  0.00  0.00    +0.400 HD
ATOM      4  O   LIG    1       -1.004  -0.672   0.424  0.00  0.00    -0.510 OA
ENDROOT
BRANCH   1   5
ATOM      5  C   LIG    1        1.313  -0.738  -0.021  0.00  0.00    +0.170 C 
ATOM      6  C   LIG    1        2.283  -0.478   1.132  0.00  0.00    +0.060 C 
BRANCH   5   7
ATOM      7  O   LIG    1        1.077  -2.143  -0.137  0.00  0.00    -0.280 OA
BRANCH   7  12
ATOM      8  C   LIG    1        2.671  -4.940  -1.856  0.00  0.00    -0.130 A 
ATOM      9  C   LIG    1        3.818  -4.311  -2.350  0.00  0.00    +0.030 A 
ATOM     10  C   LIG    1        4.033  -2.972  -2.098  0.00  0.00    +0.040 A 
ATOM     11  C   LIG    1        3.116  -2.248  -1.358  0.00  0.00    -0.050 A 
ATOM     12  C   LIG    1        1.973  -2.861  -0.864  0.00  0.00    +0.120 A 
ATOM     13  C   LIG    1        1.748  -4.206  -1.104  0.00  0.00    +0.050 A 
BRANCH   8  15
ATOM     14  C   LIG    1        3.436  -7.157  -2.929  0.00  0.00    +0.080 C 
ATOM     15  C   LIG    1        2.437  -6.368  -2.122  0.00  0.00    +0.390 C 
ATOM     16  O   LIG    1        1.442  -6.910  -1.693  0.00  0.00    -0.450 OA
ENDBRANCH   8  15
ENDBRANCH   7  12
ENDBRANCH   5   7
ENDBRANCH   1   5
BRANCH   2  17
ATOM     17  C   LIG    1       -1.296   2.004   0.552  0.00  0.00    +0.280 C 
BRANCH  17  18
ATOM     18  C   LIG    1       -1.064   3.517   0.554  0.00  0.00    +0.010 C 
BRANCH  18  19
ATOM     19  C   LIG    1       -2.388   4.235   0.822  0.00  0.00    +0.300 C 
BRANCH  19  20
ATOM     20  N   LIG    1       -2.165   5.683   0.823  0.00  0.00    -0.520 N 
ATOM     21  C   LIG    1       -1.852   6.320   1.982  0.00  0.00    +0.350 A 
ATOM     22  C   LIG    1       -1.645   7.664   1.965  0.00  0.00    -0.130 A 
ATOM     23  C   LIG    1       -1.769   8.356   0.756  0.00  0.00    +0.430 A 
ATOM     24  N   LIG    1       -2.079   7.702  -0.344  0.00  0.00    -0.550 NA
ATOM     25  C   LIG    1       -2.277   6.381  -0.323  0.00  0.00    +0.620 A 
ATOM     26  O   LIG    1       -2.562   5.799  -1.356  0.00  0.00    -0.530 OA
ENDBRANCH  19  20
ENDBRANCH  18  19
ENDBRANCH  17  18
ENDBRANCH   2  17
TORSDOF 8
