REMARK  Name = ZINCpe000000Szdt.0
REMARK                            x       y       z     vdW  Elec       q    Type
REMARK                         _______ _______ _______ _____ _____    ______ ____
ROOT
ATOM      1  N   LIG    1        2.986   1.486  -0.088  0.00  0.00    -0.730 N 
ATOM      2  H   LIG    1        3.145   2.437   0.014  0.00  0.00    +0.400 HD
ATOM      3  C   LIG    1        1.724   1.021  -0.186  0.00  0.00    +0.570 C 
ATOM      4  O   LIG    1        1.524  -0.171  -0.314  0.00  0.00    -0.530 OA
ENDROOT
BRANCH   3   5
ATOM      5  C   LIG    1        0.587   1.959  -0.138  0.00  0.00    -0.180 A 
ATOM      6  C   LIG    1        0.814   3.337  -0.095  0.00  0.00    +0.100 A 
ATOM      7  C   LIG    1       -0.252   4.209  -0.049  0.00  0.00    -0.070 A 
ATOM      8  C   LIG    1       -1.552   3.727  -0.047  0.00  0.00    +0.070 A 
ATOM      9  C   LIG    1       -1.793   2.367  -0.095  0.00  0.00    +0.040 A 
ATOM     10  F   LIG    1       -3.063   1.906  -0.099  0.00  0.00    -0.130 F 
ATOM     11 CL   LIG    1        0.033   5.921   0.005  0.00  0.00    -0.050 Cl
ATOM     12  C   LIG    1       -0.729   1.472  -0.135  0.00  0.00    +0.250 A 
BRANCH  12  13
ATOM     13  N   LIG    1       -0.968   0.103  -0.178  0.00  0.00    -0.850 N 
ATOM     14  H   LIG    1       -0.372  -0.478  -0.677  0.00  0.00    +0.420 HD
ATOM     15  H   LIG    1       -1.730  -0.271   0.291  0.00  0.00    +0.400 HD
ENDBRANCH  12  13
ENDBRANCH   3   5
BRANCH   1  16
ATOM     16  C   LIG    1        4.115   0.554  -0.135  0.00  0.00    +0.300 C 
BRANCH  16  17
ATOM     17  C   LIG    1        5.425   1.334  -0.004  0.00  0.00    +0.040 C 
BRANCH  17  25
ATOM     18  C   LIG    1       12.527   1.091   1.355  0.00  0.00    +0.100 C 
ATOM     19  C   LIG    1       11.363   2.034   1.508  0.00  0.00    +0.510 C 
ATOM     20  N   LIG    1       10.101   1.570   1.411  0.00  0.00    -0.620 N 
ATOM     21  C   LIG    1        9.844   0.131   1.256  0.00  0.00    +0.270 C 
ATOM     22  C   LIG    1        8.991  -0.082  -0.001  0.00  0.00    +0.290 C 
ATOM     23  N   LIG    1        7.848   0.841   0.046  0.00  0.00    -0.620 N 
ATOM     24  C   LIG    1        8.106   2.280   0.195  0.00  0.00    +0.270 C 
ATOM     25  C   LIG    1        6.587   0.376  -0.053  0.00  0.00    +0.520 C 
ATOM     26  O   LIG    1        6.387  -0.814  -0.180  0.00  0.00    -0.530 OA
ATOM     27  C   LIG    1        8.959   2.492   1.457  0.00  0.00    +0.270 C 
ATOM     28  O   LIG    1       11.560   3.212   1.719  0.00  0.00    -0.540 OA
ENDBRANCH  17  25
ENDBRANCH  16  17
ENDBRANCH   1  16
TORSDOF 5
