REMARK  Name = ZINCqH0000037RUN.1
REMARK                            x       y       z     vdW  Elec       q    Type
REMARK                         _______ _______ _______ _____ _____    ______ ____
ROOT
ATOM      1  C   LIG    1       -2.512   0.995   0.026  0.00  0.00    +0.110 C 
ATOM      2  C   LIG    1       -1.215   1.762   0.028  0.00  0.00    -0.040 A 
ATOM      3  C   LIG    1       -0.013   1.084   0.012  0.00  0.00    -0.010 A 
ATOM      4  C   LIG    1        1.183   1.790   0.007  0.00  0.00    +0.150 A 
ATOM      5  C   LIG    1        1.169   3.179   0.024  0.00  0.00    +0.020 A 
ATOM      6  C   LIG    1       -0.034   3.857   0.045  0.00  0.00    +0.000 A 
ATOM      7  C   LIG    1       -1.229   3.150   0.050  0.00  0.00    +0.070 A 
ENDROOT
BRANCH   7   8
ATOM      8  N   LIG    1       -2.447   3.837   0.072  0.00  0.00    -0.500 N 
ATOM      9  C   LIG    1       -2.623   4.638  -1.147  0.00  0.00    +0.190 C 
ATOM     10  C   LIG    1       -3.998   5.309  -1.121  0.00  0.00    +0.180 C 
ATOM     11  N   LIG    1       -4.106   6.151   0.079  0.00  0.00    -0.550 NA
ATOM     12  C   LIG    1       -3.931   5.350   1.298  0.00  0.00    +0.180 C 
ATOM     13  C   LIG    1       -5.386   6.873   0.102  0.00  0.00    +0.190 C 
ATOM     14  C   LIG    1       -2.556   4.679   1.272  0.00  0.00    +0.190 C 
ENDBRANCH   7   8
BRANCH   4  15
ATOM     15  N   LIG    1        2.404   1.102  -0.015  0.00  0.00    -0.670 N 
ATOM     16  H   LIG    1        2.494   0.259   0.456  0.00  0.00    +0.410 HD
ATOM     17  C   LIG    1        3.452   1.611  -0.692  0.00  0.00    +0.520 C 
ATOM     18  O   LIG    1        3.366   2.704  -1.212  0.00  0.00    -0.510 OA
BRANCH  17  19
ATOM     19  C   LIG    1        4.731   0.823  -0.804  0.00  0.00    +0.120 C 
BRANCH  19  20
ATOM     20  C   LIG    1        5.738   1.609  -1.604  0.00  0.00    -0.100 A 
ATOM     21  C   LIG    1        6.602   2.481  -0.965  0.00  0.00    +0.130 A 
ATOM     22  C   LIG    1        7.527   3.202  -1.702  0.00  0.00    -0.010 A 
ATOM     23  C   LIG    1        7.586   3.052  -3.074  0.00  0.00    +0.080 A 
ATOM     24  C   LIG    1        6.722   2.181  -3.712  0.00  0.00    +0.020 A 
ATOM     25  F   LIG    1        6.545   2.627   0.377  0.00  0.00    -0.130 F 
ATOM     26  C   LIG    1        5.802   1.456  -2.978  0.00  0.00    +0.000 A 
ATOM     27 CL   LIG    1        4.723   0.358  -3.780  0.00  0.00    -0.050 Cl
ENDBRANCH  19  20
ENDBRANCH  17  19
ENDBRANCH   4  15
TORSDOF 4
