REMARK  Name = ZINCrg000000rE14.0
REMARK                            x       y       z     vdW  Elec       q    Type
REMARK                         _______ _______ _______ _____ _____    ______ ____
ROOT
ATOM      1  C   LIG    1       -0.734   1.954   1.269  0.00  0.00    +0.040 C 
ENDROOT
BRANCH   1   2
ATOM      2  C   LIG    1       -0.755   3.484   1.277  0.00  0.00    +0.060 C 
BRANCH   2   5
ATOM      3  N   LIG    1       -1.599   5.292   2.739  0.00  0.00    -0.730 N 
ATOM      4  H   LIG    1       -1.245   5.931   2.100  0.00  0.00    +0.400 HD
ATOM      5  C   LIG    1       -1.460   3.970   2.517  0.00  0.00    +0.520 C 
ATOM      6  O   LIG    1       -1.903   3.171   3.316  0.00  0.00    -0.530 OA
BRANCH   3   8
ATOM      7  C   LIG    1       -1.291   5.823   5.106  0.00  0.00    +0.040 C 
ATOM      8  C   LIG    1       -2.285   5.765   3.944  0.00  0.00    +0.280 C 
BRANCH   8   9
ATOM      9  C   LIG    1       -2.848   7.140   3.695  0.00  0.00    -0.090 A 
ATOM     10  C   LIG    1       -2.114   8.069   2.982  0.00  0.00    +0.000 A 
ATOM     11  C   LIG    1       -2.632   9.329   2.750  0.00  0.00    +0.000 A 
ATOM     12  C   LIG    1       -3.882   9.663   3.239  0.00  0.00    +0.000 A 
ATOM     13  C   LIG    1       -4.614   8.736   3.956  0.00  0.00    +0.020 A 
ATOM     14  C   LIG    1       -4.097   7.474   4.184  0.00  0.00    +0.010 A 
ENDBRANCH   8   9
ENDBRANCH   3   8
ENDBRANCH   2   5
ENDBRANCH   1   2
BRANCH   1  15
ATOM     15  C   LIG    1       -0.018   1.461   0.010  0.00  0.00    +0.320 C 
BRANCH  15  16
ATOM     16  N   LIG    1        0.002  -0.004   0.002  0.00  0.00    -0.410 N 
ATOM     17  C   LIG    1        0.999  -0.795   0.446  0.00  0.00    +0.500 A 
ATOM     18  N   LIG    1        0.671  -2.051   0.283  0.00  0.00    -0.500 NA
ATOM     19  C   LIG    1       -0.541  -2.135  -0.270  0.00  0.00    +0.320 A 
ATOM     20  N   LIG    1       -1.353  -3.191  -0.651  0.00  0.00    -0.510 N 
ATOM     21  C   LIG    1       -0.896  -4.570  -0.460  0.00  0.00    +0.340 C 
ATOM     22  C   LIG    1       -2.560  -2.953  -1.198  0.00  0.00    +0.710 A 
ATOM     23  O   LIG    1       -3.258  -3.893  -1.526  0.00  0.00    -0.530 OA
ATOM     24  N   LIG    1       -3.013  -1.702  -1.390  0.00  0.00    -0.550 N 
ATOM     25  C   LIG    1       -4.333  -1.496  -1.989  0.00  0.00    +0.350 C 
ATOM     26  C   LIG    1       -2.269  -0.632  -1.039  0.00  0.00    +0.590 A 
ATOM     27  O   LIG    1       -2.690   0.497  -1.217  0.00  0.00    -0.510 OA
ATOM     28  C   LIG    1       -0.999  -0.837  -0.457  0.00  0.00    -0.150 A 
ENDBRANCH  15  16
ENDBRANCH   1  15
TORSDOF 6
