REMARK  Name = ZINCrD0000075Ydz.0
REMARK                            x       y       z     vdW  Elec       q    Type
REMARK                         _______ _______ _______ _____ _____    ______ ____
ROOT
ATOM      1  N   LIG    1        1.911   5.531  -1.288  0.00  0.00    -0.720 N 
ATOM      2  H   LIG    1        2.318   4.869  -0.707  0.00  0.00    +0.400 HD
ATOM      3  C   LIG    1        0.616   5.867  -1.123  0.00  0.00    +0.540 C 
ATOM      4  O   LIG    1        0.082   6.624  -1.905  0.00  0.00    -0.510 OA
ENDROOT
BRANCH   1   7
ATOM      5  O   LIG    1        1.367   5.082  -3.921  0.00  0.00    -0.520 OA
ATOM      6  C   LIG    1        2.493   5.430  -3.636  0.00  0.00    +0.500 C 
ATOM      7  C   LIG    1        2.704   6.165  -2.344  0.00  0.00    +0.260 C 
ATOM      8  C   LIG    1        4.185   6.127  -1.960  0.00  0.00    +0.040 C 
ATOM      9  C   LIG    1        5.014   6.540  -3.182  0.00  0.00    +0.040 C 
ATOM     10  C   LIG    1        4.882   5.454  -4.250  0.00  0.00    +0.260 C 
ATOM     11  N   LIG    1        3.478   5.139  -4.487  0.00  0.00    -0.600 N 
BRANCH  11  12
ATOM     12  C   LIG    1        3.128   4.460  -5.736  0.00  0.00    +0.230 C 
ATOM     13  C   LIG    1        2.156   5.331  -6.535  0.00  0.00    +0.010 C 
ATOM     14  C   LIG    1        1.790   4.622  -7.841  0.00  0.00    +0.010 C 
ATOM     15  C   LIG    1        1.129   3.279  -7.523  0.00  0.00    +0.000 C 
ATOM     16  C   LIG    1        2.101   2.408  -6.724  0.00  0.00    +0.010 C 
ATOM     17  C   LIG    1        2.466   3.117  -5.419  0.00  0.00    +0.010 C 
ENDBRANCH  11  12
ENDBRANCH   1   7
BRANCH   3  18
ATOM     18  C   LIG    1       -0.168   5.301   0.033  0.00  0.00    -0.030 C 
ATOM     19  C   LIG    1        0.554   5.608   1.361  0.00  0.00    +0.040 C 
ATOM     20  C   LIG    1       -0.134   6.896   1.879  0.00  0.00    +0.020 C 
ATOM     21  C   LIG    1       -1.617   6.671   1.491  0.00  0.00    +0.020 C 
ATOM     22  C   LIG    1       -1.548   5.978   0.115  0.00  0.00    +0.050 C 
BRANCH  18  23
ATOM     23  C   LIG    1       -0.332   3.812  -0.134  0.00  0.00    -0.130 A 
ATOM     24  C   LIG    1        0.126   3.180  -1.280  0.00  0.00    +0.070 A 
ATOM     25  C   LIG    1       -0.047   1.809  -1.390  0.00  0.00    -0.040 A 
ATOM     26  C   LIG    1       -0.665   1.123  -0.362  0.00  0.00    +0.260 A 
ATOM     27  N   LIG    1       -1.093   1.758   0.711  0.00  0.00    -0.480 NA
ATOM     28  C   LIG    1       -0.941   3.060   0.853  0.00  0.00    +0.270 A 
ENDBRANCH  18  23
ENDBRANCH   3  18
TORSDOF 4
