REMARK  Name = ZINCqH0000003i1I.0
REMARK                            x       y       z     vdW  Elec       q    Type
REMARK                         _______ _______ _______ _____ _____    ______ ____
ROOT
ATOM      1  C   LIG    1        2.330   5.181   0.695  0.00  0.00    -0.020 C 
ATOM      2  C   LIG    1        3.134   4.834  -0.559  0.00  0.00    +0.090 C 
ENDROOT
BRANCH   1   3
ATOM      3  C   LIG    1        1.069   5.904   0.299  0.00  0.00    +0.540 C 
ATOM      4  N   LIG    1       -0.034   5.203  -0.031  0.00  0.00    -0.540 N 
ATOM      5  C   LIG    1        0.017   3.739  -0.140  0.00  0.00    +0.260 C 
ATOM      6  C   LIG    1       -0.733   3.337  -1.417  0.00  0.00    +0.030 C 
ATOM      7  C   LIG    1       -2.199   3.747  -1.280  0.00  0.00    +0.080 C 
ATOM      8  C   LIG    1       -2.307   5.194  -0.876  0.00  0.00    -0.110 A 
ATOM      9  C   LIG    1       -3.495   5.866  -1.105  0.00  0.00    +0.030 A 
ATOM     10  C   LIG    1       -3.624   7.194  -0.746  0.00  0.00    -0.010 A 
ATOM     11  C   LIG    1       -2.571   7.857  -0.145  0.00  0.00    +0.030 A 
ATOM     12  C   LIG    1       -1.383   7.193   0.090  0.00  0.00    +0.020 A 
ATOM     13  C   LIG    1       -1.249   5.858  -0.275  0.00  0.00    +0.150 A 
ATOM     14  O   LIG    1        1.045   7.117   0.277  0.00  0.00    -0.490 OA
ENDBRANCH   1   3
BRANCH   1  15
ATOM     15  S   LIG    1        3.322   6.246   1.772  0.00  0.00    +0.100 S 
BRANCH  15  19
ATOM     16  C   LIG    1        6.504   4.454   3.178  0.00  0.00    +0.090 A 
ATOM     17  C   LIG    1        6.237   3.308   2.550  0.00  0.00    -0.070 A 
ATOM     18  S   LIG    1        4.739   3.515   1.647  0.00  0.00    +0.140 S 
ATOM     19  C   LIG    1        4.619   5.131   2.194  0.00  0.00    +0.010 A 
ATOM     20  N   LIG    1        5.620   5.414   2.969  0.00  0.00    -0.430 NA
BRANCH  16  21
ATOM     21  C   LIG    1        7.715   4.639   4.055  0.00  0.00    +0.220 C 
BRANCH  21  22
ATOM     22  C   LIG    1        8.504   5.831   3.577  0.00  0.00    +0.460 C 
ATOM     23  O   LIG    1        8.122   6.465   2.623  0.00  0.00    -0.490 OA
BRANCH  22  24
ATOM     24  O   LIG    1        9.631   6.188   4.213  0.00  0.00    -0.360 OA
BRANCH  24  26
ATOM     25  C   LIG    1       11.590   7.597   4.543  0.00  0.00    +0.070 C 
ATOM     26  C   LIG    1       10.340   7.346   3.697  0.00  0.00    +0.200 C 
ENDBRANCH  24  26
ENDBRANCH  22  24
ENDBRANCH  21  22
ENDBRANCH  16  21
ENDBRANCH  15  19
ENDBRANCH   1  15
TORSDOF 7
