REMARK  Name = ZINCvU00000006A4.0
REMARK                            x       y       z     vdW  Elec       q    Type
REMARK                         _______ _______ _______ _____ _____    ______ ____
ROOT
ATOM      1  C   LIG    1        2.279   0.843   0.601  0.00  0.00    +0.470 C 
ATOM      2  O   LIG    1        1.969  -0.207   1.111  0.00  0.00    -0.500 OA
ENDROOT
BRANCH   1   3
ATOM      3  C   LIG    1        3.714   1.301   0.631  0.00  0.00    +0.290 C 
BRANCH   3   4
ATOM      4  N   LIG    1        4.530   0.305   1.330  0.00  0.00    -0.720 N 
ATOM      5  H   LIG    1        4.240  -0.620   1.367  0.00  0.00    +0.410 HD
ATOM      6  C   LIG    1        5.683   0.675   1.923  0.00  0.00    +0.560 C 
ATOM      7  O   LIG    1        6.045   1.834   1.877  0.00  0.00    -0.500 OA
BRANCH   6   8
ATOM      8  C   LIG    1        6.506  -0.329   2.628  0.00  0.00    -0.130 A 
ATOM      9  C   LIG    1        6.092  -1.661   2.683  0.00  0.00    +0.060 A 
ATOM     10  C   LIG    1        6.865  -2.594   3.343  0.00  0.00    +0.020 A 
ATOM     11  C   LIG    1        8.048  -2.212   3.951  0.00  0.00    +0.060 A 
ATOM     12  C   LIG    1        8.464  -0.894   3.902  0.00  0.00    +0.020 A 
ATOM     13  C   LIG    1        7.704   0.049   3.239  0.00  0.00    +0.020 A 
ATOM     14 CL   LIG    1        8.232   1.701   3.171  0.00  0.00    -0.030 Cl
ENDBRANCH   6   8
ENDBRANCH   3   4
BRANCH   3  16
ATOM     15  C   LIG    1        3.375   2.505  -1.532  0.00  0.00    +0.040 C 
ATOM     16  C   LIG    1        4.227   1.466  -0.801  0.00  0.00    -0.020 C 
ATOM     17  C   LIG    1        5.684   1.931  -0.771  0.00  0.00    +0.040 C 
ENDBRANCH   3  16
ENDBRANCH   1   3
BRANCH   1  18
ATOM     18  O   LIG    1        1.344   1.602   0.007  0.00  0.00    -0.310 OA
BRANCH  18  19
ATOM     19  C   LIG    1       -0.018   1.098   0.016  0.00  0.00    +0.190 C 
ATOM     20  C   LIG    1       -0.739   1.600   1.269  0.00  0.00    +0.070 C 
BRANCH  19  21
ATOM     21  C   LIG    1       -0.743   1.588  -1.211  0.00  0.00    +0.520 C 
ATOM     22  N   LIG    1       -2.029   1.243  -1.416  0.00  0.00    -0.660 N 
ATOM     23  H   LIG    1       -2.465   0.616  -0.817  0.00  0.00    +0.420 HD
ATOM     24  O   LIG    1       -0.168   2.292  -2.014  0.00  0.00    -0.480 OA
BRANCH  22  25
ATOM     25  C   LIG    1       -2.738   1.790  -2.493  0.00  0.00    +0.180 A 
ATOM     26  C   LIG    1       -2.355   3.012  -3.027  0.00  0.00    +0.080 A 
ATOM     27  C   LIG    1       -3.056   3.550  -4.091  0.00  0.00    -0.000 A 
ATOM     28  C   LIG    1       -4.139   2.871  -4.622  0.00  0.00    -0.040 A 
ATOM     29  C   LIG    1       -4.523   1.652  -4.090  0.00  0.00    +0.090 A 
ATOM     30 CL   LIG    1       -5.017   3.549  -5.957  0.00  0.00    -0.030 Cl
ATOM     31 CL   LIG    1       -2.579   5.079  -4.760  0.00  0.00    -0.030 Cl
ATOM     32  C   LIG    1       -3.822   1.107  -3.031  0.00  0.00    -0.060 A 
ATOM     33 CL   LIG    1       -4.299  -0.425  -2.370  0.00  0.00    -0.040 Cl
ENDBRANCH  22  25
ENDBRANCH  19  21
ENDBRANCH  18  19
ENDBRANCH   1  18
TORSDOF 8
