REMARK  Name = ZINCrD000000CQZ0.0
REMARK                            x       y       z     vdW  Elec       q    Type
REMARK                         _______ _______ _______ _____ _____    ______ ____
ROOT
ATOM      1  O   LIG    1       -5.244   3.350   0.779  0.00  0.00    -0.440 OA
ATOM      2  C   LIG    1       -4.530   2.390   0.983  0.00  0.00    +0.400 C 
ATOM      3  C   LIG    1       -3.106   2.547   1.487  0.00  0.00    +0.050 C 
ATOM      4  C   LIG    1       -2.249   1.512   0.760  0.00  0.00    +0.120 C 
ATOM      5  O   LIG    1       -2.752   0.201   0.958  0.00  0.00    -0.290 OA
ATOM      6  C   LIG    1       -4.067  -0.037   0.740  0.00  0.00    +0.180 A 
ATOM      7  C   LIG    1       -4.508  -1.333   0.510  0.00  0.00    -0.020 A 
ATOM      8  C   LIG    1       -5.851  -1.581   0.306  0.00  0.00    +0.090 A 
ATOM      9  C   LIG    1       -6.773  -0.546   0.327  0.00  0.00    -0.030 A 
ATOM     10  C   LIG    1       -6.356   0.749   0.548  0.00  0.00    +0.110 A 
ATOM     11  C   LIG    1       -0.783   1.608   1.248  0.00  0.00    +0.110 C 
ATOM     12  C   LIG    1       -0.013   1.086   0.008  0.00  0.00    +0.290 C 
ATOM     13  N   LIG    1       -0.768   1.595  -1.152  0.00  0.00    -1.010 NA
ATOM     14  C   LIG    1       -2.157   1.848  -0.736  0.00  0.00    +0.270 C 
ATOM     15  C   LIG    1       -5.000   1.013   0.752  0.00  0.00    -0.250 A 
ENDROOT
BRANCH  13  16
ATOM     16  S   LIG    1       -0.154   1.841  -2.671  0.00  0.00    +2.710 S 
ATOM     17  O   LIG    1        1.247   2.014  -2.514  0.00  0.00    -0.950 OA
ATOM     18  O   LIG    1       -0.992   2.808  -3.290  0.00  0.00    -0.950 OA
BRANCH  16  19
ATOM     19  C   LIG    1       -0.374   0.343  -3.571  0.00  0.00    -0.690 A 
ATOM     20  C   LIG    1        0.615  -0.623  -3.558  0.00  0.00    +0.130 A 
ATOM     21  C   LIG    1        0.440  -1.801  -4.260  0.00  0.00    -0.010 A 
ATOM     22  C   LIG    1       -0.719  -2.008  -4.985  0.00  0.00    +0.010 A 
ATOM     23  C   LIG    1       -1.705  -1.040  -5.003  0.00  0.00    +0.000 A 
ATOM     24  C   LIG    1       -1.533   0.136  -4.296  0.00  0.00    +0.130 A 
BRANCH  22  25
ATOM     25  C   LIG    1       -0.906  -3.289  -5.755  0.00  0.00    -0.020 C 
ATOM     26  C   LIG    1        0.120  -4.403  -5.535  0.00  0.00    +0.030 C 
ATOM     27  C   LIG    1        0.116  -3.614  -6.847  0.00  0.00    +0.040 C 
ENDBRANCH  22  25
ENDBRANCH  16  19
ENDBRANCH  13  16
TORSDOF 3
