REMARK  Name = ZINCrH00000No4FC.0
REMARK                            x       y       z     vdW  Elec       q    Type
REMARK                         _______ _______ _______ _____ _____    ______ ____
ROOT
ATOM      1  O   LIG    1       -0.245   2.145  -1.103  0.00  0.00    -0.330 OA
ENDROOT
BRANCH   1   2
ATOM      2  C   LIG    1        0.391   1.966  -2.279  0.00  0.00    +0.500 C 
ATOM      3  O   LIG    1        1.418   1.316  -2.322  0.00  0.00    -0.500 OA
BRANCH   2   4
ATOM      4  C   LIG    1       -0.153   2.554  -3.502  0.00  0.00    -0.020 C 
ATOM      5  C   LIG    1        0.483   2.375  -4.678  0.00  0.00    +0.140 C 
BRANCH   5   6
ATOM      6  C   LIG    1       -0.065   2.967  -5.909  0.00  0.00    -0.070 A 
ATOM      7  C   LIG    1       -1.248   3.711  -5.865  0.00  0.00    +0.100 A 
ATOM      8  C   LIG    1       -1.752   4.267  -7.021  0.00  0.00    +0.050 A 
ATOM      9  C   LIG    1       -1.097   4.081  -8.226  0.00  0.00    +0.120 A 
ATOM     10  C   LIG    1        0.072   3.341  -8.279  0.00  0.00    -0.040 A 
ATOM     11  C   LIG    1        0.592   2.784  -7.130  0.00  0.00    +0.130 A 
BRANCH  10  12
ATOM     12  N   LIG    1        0.765   3.148  -9.572  0.00  0.00    +0.030 N 
ATOM     13  O   LIG    1        0.308   3.640 -10.588  0.00  0.00    -0.150 OA
ATOM     14  O   LIG    1        1.794   2.497  -9.621  0.00  0.00    -0.150 OA
ENDBRANCH  10  12
ENDBRANCH   5   6
ENDBRANCH   2   4
ENDBRANCH   1   2
BRANCH   1  15
ATOM     15  C   LIG    1        0.343   1.543   0.051  0.00  0.00    +0.230 C 
BRANCH  15  16
ATOM     16  C   LIG    1       -0.500   1.848   1.262  0.00  0.00    +0.430 C 
ATOM     17  O   LIG    1       -1.507   2.516   1.148  0.00  0.00    -0.450 OA
BRANCH  16  21
ATOM     18  C   LIG    1        2.042  -0.512   4.994  0.00  0.00    +0.130 C 
ATOM     19  C   LIG    1        1.031   0.289   4.215  0.00  0.00    +0.020 A 
ATOM     20  C   LIG    1        1.070   0.514   2.891  0.00  0.00    -0.010 A 
ATOM     21  C   LIG    1       -0.105   1.338   2.577  0.00  0.00    -0.270 A 
ATOM     22  C   LIG    1       -0.765   1.527   3.777  0.00  0.00    +0.130 A 
ATOM     23  C   LIG    1       -2.040   2.307   3.971  0.00  0.00    +0.150 C 
ATOM     24  N   LIG    1       -0.073   0.895   4.741  0.00  0.00    -0.410 N 
BRANCH  24  25
ATOM     25  C   LIG    1       -0.450   0.862   6.156  0.00  0.00    +0.180 C 
ATOM     26  C   LIG    1       -0.433  -0.497   6.860  0.00  0.00    +0.060 C 
ATOM     27  C   LIG    1       -1.767   0.173   6.520  0.00  0.00    +0.040 C 
ENDBRANCH  24  25
ENDBRANCH  16  21
ENDBRANCH  15  16
ENDBRANCH   1  15
TORSDOF 8
