REMARK  Name = ZINCqH00000028FY.0
REMARK                            x       y       z     vdW  Elec       q    Type
REMARK                         _______ _______ _______ _____ _____    ______ ____
ROOT
ATOM      1  C   LIG    1       -1.116   7.834  -2.602  0.00  0.00    +0.350 A 
ATOM      2  C   LIG    1       -1.796   7.128  -3.594  0.00  0.00    -0.050 A 
ATOM      3  C   LIG    1       -1.861   5.763  -3.522  0.00  0.00    +0.160 A 
ATOM      4  C   LIG    1       -1.234   5.119  -2.445  0.00  0.00    -0.220 A 
ATOM      5  C   LIG    1       -0.574   5.889  -1.485  0.00  0.00    +0.370 A 
ATOM      6  N   LIG    1       -0.532   7.200  -1.594  0.00  0.00    -0.530 NA
ENDROOT
BRANCH   1  11
ATOM      7  C   LIG    1        0.101  13.322  -2.949  0.00  0.00    +0.030 C 
ATOM      8  C   LIG    1        0.222  11.798  -2.889  0.00  0.00    -0.030 C 
ATOM      9  C   LIG    1       -0.362  11.290  -1.567  0.00  0.00    +0.020 C 
ATOM     10  C   LIG    1       -0.292   9.762  -1.538  0.00  0.00    +0.200 C 
ATOM     11  N   LIG    1       -1.049   9.215  -2.671  0.00  0.00    -0.470 N 
ATOM     12  C   LIG    1       -0.478   9.650  -3.952  0.00  0.00    +0.200 C 
ATOM     13  C   LIG    1       -0.553  11.176  -4.053  0.00  0.00    +0.050 C 
ENDBRANCH   1  11
BRANCH   4  14
ATOM     14  C   LIG    1       -1.276   3.650  -2.324  0.00  0.00    +0.520 C 
ATOM     15  O   LIG    1       -1.857   2.988  -3.162  0.00  0.00    -0.510 OA
BRANCH  14  16
ATOM     16  O   LIG    1       -0.670   3.041  -1.286  0.00  0.00    -0.350 OA
BRANCH  16  17
ATOM     17  C   LIG    1       -0.753   1.593  -1.232  0.00  0.00    +0.260 C 
BRANCH  17  18
ATOM     18  C   LIG    1       -0.013   1.086   0.008  0.00  0.00    +0.230 C 
BRANCH  18  19
ATOM     19  O   LIG    1       -0.682   1.547   1.184  0.00  0.00    -0.300 OA
BRANCH  19  20
ATOM     20  C   LIG    1       -0.149   1.182   2.380  0.00  0.00    +0.090 A 
ATOM     21  C   LIG    1        0.991   0.393   2.431  0.00  0.00    +0.200 A 
ATOM     22  N   LIG    1        1.514   0.041   3.588  0.00  0.00    -0.440 NA
ATOM     23  C   LIG    1        0.978   0.410   4.734  0.00  0.00    +0.260 A 
ATOM     24  C   LIG    1       -0.162   1.193   4.765  0.00  0.00    -0.110 A 
ATOM     25 BR   LIG    1       -0.920   1.716   6.417  0.00  0.00    -0.020 Br
ATOM     26  C   LIG    1       -0.742   1.591   3.570  0.00  0.00    +0.070 A 
ENDBRANCH  19  20
ENDBRANCH  18  19
ENDBRANCH  17  18
ENDBRANCH  16  17
ENDBRANCH  14  16
ENDBRANCH   4  14
TORSDOF 7
