REMARK  Name = ZINCqH0000004WUv.0
REMARK                            x       y       z     vdW  Elec       q    Type
REMARK                         _______ _______ _______ _____ _____    ______ ____
ROOT
ATOM      1  C   LIG    1        0.007   0.062   2.475  0.00  0.00    +0.220 C 
ENDROOT
BRANCH   1   4
ATOM      2  C   LIG    1       -0.066   1.460   0.011  0.00  0.00    +0.280 C 
ATOM      3  N   LIG    1       -0.028  -0.005   0.002  0.00  0.00    -0.610 N 
ATOM      4  C   LIG    1        0.007  -0.684   1.166  0.00  0.00    +0.520 C 
ATOM      5  O   LIG    1        0.039  -1.897   1.159  0.00  0.00    -0.510 OA
BRANCH   3   6
ATOM      6  C   LIG    1       -0.027  -0.730  -1.270  0.00  0.00    +0.250 C 
ATOM      7  C   LIG    1        1.200  -0.323  -2.089  0.00  0.00    +0.000 C 
ATOM      8  C   LIG    1        1.425  -1.340  -3.210  0.00  0.00    +0.010 C 
ATOM      9  C   LIG    1        1.256  -2.756  -2.657  0.00  0.00    +0.000 C 
ATOM     10  C   LIG    1        0.014  -3.401  -3.277  0.00  0.00    +0.000 C 
ATOM     11  C   LIG    1       -1.241  -2.822  -2.621  0.00  0.00    +0.000 C 
ATOM     12  C   LIG    1       -1.500  -1.417  -3.167  0.00  0.00    +0.020 C 
ATOM     13  C   LIG    1       -1.297  -0.389  -2.052  0.00  0.00    +0.010 C 
ENDBRANCH   3   6
ENDBRANCH   1   4
BRANCH   1  14
ATOM     14  O   LIG    1        0.048  -0.872   3.556  0.00  0.00    -0.290 OA
BRANCH  14  15
ATOM     15  C   LIG    1        0.052  -0.359   4.815  0.00  0.00    +0.110 A 
ATOM     16  C   LIG    1        0.025   1.015   5.004  0.00  0.00    -0.050 A 
ATOM     17  C   LIG    1        0.025   1.536   6.283  0.00  0.00    +0.050 A 
ATOM     18  C   LIG    1        0.064   0.685   7.379  0.00  0.00    +0.130 A 
ATOM     19  C   LIG    1        0.097  -0.690   7.189  0.00  0.00    +0.020 A 
ATOM     20  C   LIG    1        0.091  -1.210   5.910  0.00  0.00    +0.020 A 
BRANCH  18  21
ATOM     21  N   LIG    1        0.070   1.214   8.677  0.00  0.00    -0.560 N 
ATOM     22  C   LIG    1       -0.011   0.407   9.900  0.00  0.00    +0.260 C 
ATOM     23  C   LIG    1       -0.407   1.395  11.020  0.00  0.00    +0.060 C 
ATOM     24  C   LIG    1        0.123   2.735  10.459  0.00  0.00    +0.070 C 
ATOM     25  C   LIG    1        0.158   2.525   8.961  0.00  0.00    +0.510 C 
ATOM     26  O   LIG    1        0.250   3.410   8.137  0.00  0.00    -0.510 OA
ENDBRANCH  18  21
ENDBRANCH  14  15
ENDBRANCH   1  14
TORSDOF 5
