REMARK  Name = ZINCrH000004s5xd.0
REMARK                            x       y       z     vdW  Elec       q    Type
REMARK                         _______ _______ _______ _____ _____    ______ ____
ROOT
ATOM      1  C   LIG    1       -1.179   3.482  -0.092  0.00  0.00    +0.310 C 
ENDROOT
BRANCH   1   2
ATOM      2  N   LIG    1       -1.181   2.021   0.013  0.00  0.00    -0.740 N 
ATOM      3  H   LIG    1       -2.021   1.541   0.085  0.00  0.00    +0.390 HD
ATOM      4  C   LIG    1       -0.016   1.344   0.009  0.00  0.00    +0.710 C 
ATOM      5  N   LIG    1       -0.021  -0.004   0.004  0.00  0.00    -0.630 N 
ATOM      6  C   LIG    1        1.235  -0.756  -0.127  0.00  0.00    +0.300 C 
ATOM      7  C   LIG    1        1.331  -1.753   1.038  0.00  0.00    +0.030 C 
ATOM      8  C   LIG    1        0.075  -2.627   1.060  0.00  0.00    -0.010 C 
ATOM      9  C   LIG    1       -1.157  -1.746   1.281  0.00  0.00    +0.050 C 
ATOM     10  C   LIG    1       -1.281  -0.749   0.124  0.00  0.00    +0.260 C 
ATOM     11  O   LIG    1        1.039   1.948   0.006  0.00  0.00    -0.580 OA
BRANCH   8  12
ATOM     12  C   LIG    1        0.181  -3.631   2.179  0.00  0.00    +0.520 C 
ATOM     13  O   LIG    1       -0.646  -3.641   3.065  0.00  0.00    -0.540 OA
ATOM     14  N   LIG    1        1.196  -4.518   2.194  0.00  0.00    -0.860 N 
ATOM     15  H   LIG    1        1.265  -5.164   2.914  0.00  0.00    +0.400 HD
ATOM     16  H   LIG    1        1.858  -4.509   1.485  0.00  0.00    +0.400 HD
ENDBRANCH   8  12
ENDBRANCH   1   2
BRANCH   1  23
ATOM     17  C   LIG    1       -0.239   6.202   0.175  0.00  0.00    +0.090 C 
ATOM     18  C   LIG    1       -0.542   5.385   1.405  0.00  0.00    -0.080 A 
ATOM     19  C   LIG    1       -0.374   5.938   2.660  0.00  0.00    +0.000 A 
ATOM     20  C   LIG    1       -0.648   5.187   3.789  0.00  0.00    +0.000 A 
ATOM     21  C   LIG    1       -1.092   3.885   3.661  0.00  0.00    -0.010 A 
ATOM     22  C   LIG    1       -1.264   3.333   2.405  0.00  0.00    +0.010 A 
ATOM     23  C   LIG    1       -0.992   4.084   1.277  0.00  0.00    -0.090 A 
ENDBRANCH   1  23
BRANCH   1  24
ATOM     24  C   LIG    1       -2.511   3.954  -0.678  0.00  0.00    +0.000 C 
ATOM     25  C   LIG    1       -3.656   3.510   0.235  0.00  0.00    +0.020 C 
ATOM     26  C   LIG    1       -4.988   3.981  -0.351  0.00  0.00    +0.010 C 
ATOM     27  C   LIG    1       -5.179   3.370  -1.741  0.00  0.00    -0.020 C 
ATOM     28  C   LIG    1       -4.034   3.814  -2.654  0.00  0.00    +0.010 C 
ATOM     29  C   LIG    1       -6.511   3.841  -2.327  0.00  0.00    +0.000 C 
ATOM     30  C   LIG    1       -2.702   3.343  -2.068  0.00  0.00    +0.010 C 
ENDBRANCH   1  24
TORSDOF 4
