REMARK  Name = ZINCvU0000000GBT.0
REMARK                            x       y       z     vdW  Elec       q    Type
REMARK                         _______ _______ _______ _____ _____    ______ ____
ROOT
ATOM      1  C   LIG    1        3.108   6.476   2.607  0.00  0.00    +0.560 C 
ATOM      2  N   LIG    1        2.767   5.886   1.444  0.00  0.00    -0.730 N 
ATOM      3  H   LIG    1        3.113   6.230   0.606  0.00  0.00    +0.400 HD
ATOM      4  O   LIG    1        2.674   6.045   3.657  0.00  0.00    -0.530 OA
ENDROOT
BRANCH   1   9
ATOM      5  C   LIG    1        5.207   9.354   3.798  0.00  0.00    -0.100 A 
ATOM      6  C   LIG    1        5.700   9.841   2.601  0.00  0.00    +0.060 A 
ATOM      7  C   LIG    1        5.352   9.238   1.405  0.00  0.00    +0.000 A 
ATOM      8  C   LIG    1        4.514   8.142   1.400  0.00  0.00    +0.060 A 
ATOM      9  C   LIG    1        4.010   7.648   2.604  0.00  0.00    -0.140 A 
ATOM     10  C   LIG    1        4.365   8.261   3.807  0.00  0.00    +0.110 A 
BRANCH   5  11
ATOM     11  C   LIG    1        5.592  10.017   5.095  0.00  0.00    +0.260 C 
BRANCH  11  12
ATOM     12  O   LIG    1        6.778   9.407   5.609  0.00  0.00    -0.300 OA
BRANCH  12  17
ATOM     13  C   LIG    1        8.659  11.496  10.437  0.00  0.00    +0.130 C 
ATOM     14  C   LIG    1        8.171  10.917   9.134  0.00  0.00    +0.090 A 
ATOM     15  C   LIG    1        8.868   9.879   8.545  0.00  0.00    +0.010 A 
ATOM     16  C   LIG    1        8.413   9.352   7.348  0.00  0.00    +0.040 A 
ATOM     17  C   LIG    1        7.262   9.892   6.782  0.00  0.00    +0.070 A 
ATOM     18  C   LIG    1        6.620  10.937   7.431  0.00  0.00    +0.180 A 
ATOM     19  N   LIG    1        7.083  11.407   8.572  0.00  0.00    -0.450 NA
ENDBRANCH  12  17
ENDBRANCH  11  12
ENDBRANCH   5  11
ENDBRANCH   1   9
BRANCH   2  20
ATOM     20  C   LIG    1        1.873   4.725   1.446  0.00  0.00    +0.260 C 
BRANCH  20  21
ATOM     21  C   LIG    1        1.649   4.252   0.009  0.00  0.00    +0.110 C 
BRANCH  21  22
ATOM     22  C   LIG    1        0.729   3.058   0.011  0.00  0.00    -0.170 A 
ATOM     23  C   LIG    1        1.098   1.767   0.001  0.00  0.00    +0.260 A 
ATOM     24  N   LIG    1       -0.011   0.966   0.007  0.00  0.00    -0.580 N 
ATOM     25  H   LIG    1        0.002  -0.004   0.002  0.00  0.00    +0.420 HD
ATOM     26  C   LIG    1       -1.150   1.742   0.016  0.00  0.00    +0.070 A 
ATOM     27  C   LIG    1       -2.510   1.446   0.033  0.00  0.00    +0.110 A 
ATOM     28  C   LIG    1       -3.437   2.468   0.046  0.00  0.00    +0.020 A 
ATOM     29  C   LIG    1       -3.026   3.795   0.049  0.00  0.00    -0.030 A 
ATOM     30  C   LIG    1       -1.685   4.110   0.038  0.00  0.00    +0.070 A 
ATOM     31 CL   LIG    1       -4.210   5.065   0.066  0.00  0.00    -0.060 Cl
ATOM     32  F   LIG    1       -2.923   0.160   0.030  0.00  0.00    -0.130 F 
ATOM     33  C   LIG    1       -0.735   3.086   0.024  0.00  0.00    -0.060 A 
ENDBRANCH  21  22
ENDBRANCH  20  21
ENDBRANCH   2  20
TORSDOF 7
