REMARK  Name = ZINCkj000005h2Po.0
REMARK                            x       y       z     vdW  Elec       q    Type
REMARK                         _______ _______ _______ _____ _____    ______ ____
ROOT
ATOM      1  C   LIG    1        0.126   0.861   2.732  0.00  0.00    +0.390 C 
ATOM      2  N   LIG    1       -0.181   1.031   4.010  0.00  0.00    -0.560 NA
ATOM      3  C   LIG    1        0.577   0.506   4.969  0.00  0.00    +0.510 C 
ATOM      4  C   LIG    1        1.710  -0.220   4.616  0.00  0.00    -0.150 C 
ATOM      5  C   LIG    1        2.004  -0.373   3.264  0.00  0.00    +0.520 C 
ATOM      6  H   LIG    1       -0.971   1.542   4.249  0.00  0.00    +0.440 HD
ATOM      7  N   LIG    1        1.197   0.176   2.359  0.00  0.00    -0.560 NA
ENDROOT
BRANCH   5   8
ATOM      8  N   LIG    1        3.123  -1.089   2.865  0.00  0.00    -0.790 NA
ATOM      9  H   LIG    1        3.707  -1.486   3.529  0.00  0.00    +0.430 HD
ATOM     10  H   LIG    1        3.321  -1.192   1.921  0.00  0.00    +0.430 HD
ENDBRANCH   5   8
BRANCH   3  11
ATOM     11  N   LIG    1        0.245   0.684   6.303  0.00  0.00    -0.810 NA
ATOM     12  H   LIG    1       -0.546   1.191   6.543  0.00  0.00    +0.420 HD
ATOM     13  H   LIG    1        0.805   0.302   6.997  0.00  0.00    +0.440 HD
ENDBRANCH   3  11
BRANCH   1  14
ATOM     14  S   LIG    1       -0.913   1.569   1.498  0.00  0.00    +0.170 S 
BRANCH  14  15
ATOM     15  C   LIG    1       -0.035   1.040   0.006  0.00  0.00    +0.120 C 
BRANCH  15  18
ATOM     16  C   LIG    1        0.995   0.583  -2.597  0.00  0.00    +0.310 C 
ATOM     17  N   LIG    1       -0.288   1.272  -2.443  0.00  0.00    -0.560 N 
ATOM     18  C   LIG    1       -0.763   1.546  -1.212  0.00  0.00    +0.530 C 
ATOM     19  O   LIG    1       -1.776   2.200  -1.084  0.00  0.00    -0.510 OA
BRANCH  17  20
ATOM     20  C   LIG    1       -1.022   1.646  -3.575  0.00  0.00    +0.120 A 
ATOM     21  C   LIG    1       -1.573   0.674  -4.399  0.00  0.00    +0.010 A 
ATOM     22  C   LIG    1       -2.301   1.047  -5.512  0.00  0.00    +0.020 A 
ATOM     23  C   LIG    1       -2.471   2.386  -5.812  0.00  0.00    +0.020 A 
ATOM     24  C   LIG    1       -1.918   3.356  -4.997  0.00  0.00    +0.020 A 
ATOM     25  C   LIG    1       -1.194   2.990  -3.879  0.00  0.00    +0.020 A 
ENDBRANCH  17  20
ENDBRANCH  15  18
ENDBRANCH  14  15
ENDBRANCH   1  14
TORSDOF 6
