REMARK  Name = ZINCc70000001ExZ.0
REMARK                            x       y       z     vdW  Elec       q    Type
REMARK                         _______ _______ _______ _____ _____    ______ ____
ROOT
ATOM      1  N   LIG    1       -0.018   1.461   0.010  0.00  0.00    -0.340 N 
ATOM      2  C   LIG    1       -1.120   2.240   0.019  0.00  0.00    +0.240 A 
ATOM      3  C   LIG    1       -0.712   3.530   0.028  0.00  0.00    -0.020 A 
ATOM      4  C   LIG    1        0.686   3.540   0.015  0.00  0.00    -0.490 A 
ATOM      5  N   LIG    1        1.104   2.300   0.004  0.00  0.00    -0.180 NA
ENDROOT
BRANCH   1   7
ATOM      6  C   LIG    1       -0.104  -0.523   1.437  0.00  0.00    +0.050 C 
ATOM      7  C   LIG    1        0.002  -0.004   0.002  0.00  0.00    +0.250 C 
ATOM      8  C   LIG    1       -1.180  -0.526  -0.817  0.00  0.00    +0.060 C 
ENDBRANCH   1   7
BRANCH   4   9
ATOM      9  S   LIG    1        1.709   4.975   0.012  0.00  0.00    +2.740 S 
ATOM     10  O   LIG    1        2.965   4.573   0.542  0.00  0.00    -0.950 OA
ATOM     11  O   LIG    1        0.930   6.024   0.569  0.00  0.00    -0.950 OA
BRANCH   9  12
ATOM     12  N   LIG    1        1.979   5.382  -1.571  0.00  0.00    -1.250 NA
ATOM     13  H   LIG    1        2.526   6.153  -1.786  0.00  0.00    +0.420 HD
ATOM     14  H   LIG    1        1.589   4.849  -2.281  0.00  0.00    +0.420 HD
ENDBRANCH   9  12
ENDBRANCH   4   9
TORSDOF 3
