REMARK  Name = ZINCpe00000z0CRX.0
REMARK                            x       y       z     vdW  Elec       q    Type
REMARK                         _______ _______ _______ _____ _____    ______ ____
ROOT
ATOM      1  C   LIG    1        1.281  -0.719  -0.014  0.00  0.00    +0.240 C 
ENDROOT
BRANCH   1   2
ATOM      2  C   LIG    1        1.801  -0.866   1.417  0.00  0.00    -0.020 C 
ATOM      3  C   LIG    1        0.693  -1.131   2.451  0.00  0.00    +0.010 C 
ATOM      4  C   LIG    1        1.453  -0.180   3.391  0.00  0.00    -0.000 C 
ATOM      5  C   LIG    1        2.035   0.477   2.128  0.00  0.00    +0.020 C 
ENDBRANCH   1   2
BRANCH   1   6
ATOM      6  N   LIG    1        0.002  -0.004   0.002  0.00  0.00    -0.710 N 
ATOM      7  H   LIG    1       -0.831  -0.500   0.007  0.00  0.00    +0.410 HD
ATOM      8  C   LIG    1       -0.016   1.344   0.009  0.00  0.00    +0.610 C 
ATOM      9  O   LIG    1        1.028   1.966   0.003  0.00  0.00    -0.520 OA
BRANCH   8  10
ATOM     10  C   LIG    1       -1.304   2.064   0.019  0.00  0.00    -0.000 A 
ATOM     11  C   LIG    1       -1.464   3.421   0.033  0.00  0.00    +0.200 A 
ATOM     12  N   LIG    1       -2.803   3.666   0.035  0.00  0.00    -0.350 N 
ATOM     13  C   LIG    1       -3.526   4.827   0.044  0.00  0.00    +0.230 A 
ATOM     14  C   LIG    1       -4.873   4.799   0.051  0.00  0.00    +0.060 A 
ATOM     15  C   LIG    1       -5.558   3.571   0.048  0.00  0.00    +0.020 A 
ATOM     16  C   LIG    1       -4.855   2.407   0.039  0.00  0.00    +0.150 A 
ATOM     17  F   LIG    1       -5.500   1.220   0.035  0.00  0.00    -0.110 F 
ATOM     18  C   LIG    1       -3.442   2.452   0.032  0.00  0.00    +0.200 A 
ATOM     19  N   LIG    1       -2.525   1.498   0.023  0.00  0.00    -0.450 NA
ENDBRANCH   8  10
ENDBRANCH   1   6
BRANCH   1  20
ATOM     20  C   LIG    1        1.082  -2.106  -0.629  0.00  0.00    +0.280 C 
BRANCH  20  22
ATOM     21  C   LIG    1        0.202  -3.067  -2.688  0.00  0.00    +0.520 C 
ATOM     22  N   LIG    1        0.472  -1.969  -1.954  0.00  0.00    -0.730 N 
ATOM     23  H   LIG    1        0.263  -1.089  -2.303  0.00  0.00    +0.400 HD
ATOM     24  O   LIG    1        0.464  -4.168  -2.252  0.00  0.00    -0.510 OA
BRANCH  21  26
ATOM     25  C   LIG    1       -1.831  -2.342  -3.908  0.00  0.00    +0.030 C 
ATOM     26  C   LIG    1       -0.425  -2.926  -4.052  0.00  0.00    +0.170 C 
BRANCH  26  27
ATOM     27  O   LIG    1       -0.504  -4.210  -4.674  0.00  0.00    -0.540 OA
ATOM     28  H   LIG    1       -0.898  -4.196  -5.557  0.00  0.00    +0.390 HD
ENDBRANCH  26  27
ENDBRANCH  21  26
ENDBRANCH  20  22
ENDBRANCH   1  20
TORSDOF 7
