REMARK  Name = ZINCfA000000bkMa.0
REMARK                            x       y       z     vdW  Elec       q    Type
REMARK                         _______ _______ _______ _____ _____    ______ ____
ROOT
ATOM      1  C   LIG    1       -4.766   3.054  -1.575  0.00  0.00    +0.110 C 
ATOM      2  C   LIG    1       -3.627   4.069  -1.460  0.00  0.00    +0.250 C 
ENDROOT
BRANCH   2   3
ATOM      3  C   LIG    1       -3.871   5.209  -2.414  0.00  0.00    +0.080 A 
ATOM      4  C   LIG    1       -4.676   6.263  -2.027  0.00  0.00    +0.030 A 
ATOM      5  C   LIG    1       -4.894   7.308  -2.912  0.00  0.00    +0.130 A 
ATOM      6  C   LIG    1       -4.291   7.252  -4.160  0.00  0.00    -0.130 A 
ATOM      7  C   LIG    1       -3.498   6.164  -4.477  0.00  0.00    +0.330 A 
ATOM      8 BR   LIG    1       -4.549   8.646  -5.411  0.00  0.00    +0.010 Br
ATOM      9  N   LIG    1       -3.309   5.191  -3.607  0.00  0.00    -0.490 NA
ENDBRANCH   2   3
BRANCH   2  10
ATOM     10  N   LIG    1       -2.354   3.415  -1.792  0.00  0.00    -0.500 N 
ATOM     11  H   LIG    1       -2.423   2.990  -2.705  0.00  0.00    +0.440 HD
ATOM     12  H   LIG    1       -1.615   4.102  -1.797  0.00  0.00    +0.430 HD
BRANCH  10  13
ATOM     13  C   LIG    1       -2.057   2.382  -0.791  0.00  0.00    +0.180 C 
ATOM     14  C   LIG    1       -0.799   1.616  -1.202  0.00  0.00    +0.060 C 
ATOM     15  C   LIG    1       -0.013   1.086   0.008  0.00  0.00    +0.150 C 
ATOM     16  S   LIG    1       -0.923   1.703   1.476  0.00  0.00    -0.200 S 
ATOM     17  C   LIG    1       -1.814   3.049   0.588  0.00  0.00    +0.120 C 
ENDBRANCH  10  13
ENDBRANCH   2  10
TORSDOF 3
