REMARK  Name = ZINCrD000000AgLA.0
REMARK                            x       y       z     vdW  Elec       q    Type
REMARK                         _______ _______ _______ _____ _____    ______ ____
ROOT
ATOM      1  C   LIG    1        0.588   5.950   2.899  0.00  0.00    +0.080 C 
ENDROOT
BRANCH   1   3
ATOM      2  O   LIG    1       -1.628   5.151   2.758  0.00  0.00    -0.530 OA
ATOM      3  C   LIG    1       -0.468   4.972   2.452  0.00  0.00    +0.520 C 
ATOM      4  N   LIG    1       -0.124   3.900   1.712  0.00  0.00    -0.590 N 
ATOM      5  C   LIG    1        1.258   3.722   1.370  0.00  0.00    +0.250 C 
ATOM      6  C   LIG    1        1.453   3.099   0.021  0.00  0.00    -0.030 C 
ATOM      7  C   LIG    1        1.429   1.596  -0.003  0.00  0.00    +0.020 C 
ATOM      8  C   LIG    1       -0.013   1.086   0.008  0.00  0.00    -0.010 C 
ATOM      9  C   LIG    1       -0.752   1.555   1.239  0.00  0.00    +0.030 C 
ATOM     10  C   LIG    1       -0.705   1.575  -1.266  0.00  0.00    +0.030 C 
ATOM     11  C   LIG    1       -0.800   3.100  -1.173  0.00  0.00    -0.030 C 
ATOM     12  C   LIG    1       -1.739   3.465  -0.033  0.00  0.00    +0.010 C 
ATOM     13  C   LIG    1        0.576   3.724  -1.051  0.00  0.00    +0.020 C 
ATOM     14  C   LIG    1       -1.169   2.979   1.301  0.00  0.00    +0.240 C 
ENDBRANCH   1   3
BRANCH   1  15
ATOM     15  C   LIG    1       -0.064   7.066   3.717  0.00  0.00    -0.300 C 
BRANCH  15  16
ATOM     16  S   LIG    1        1.207   8.243   4.255  0.00  0.00    +2.500 S 
ATOM     17  O   LIG    1        1.728   8.957   3.143  0.00  0.00    -0.930 OA
ATOM     18  O   LIG    1        2.071   7.642   5.210  0.00  0.00    -0.930 OA
BRANCH  16  19
ATOM     19  C   LIG    1        0.321   9.458   5.174  0.00  0.00    -0.660 A 
ATOM     20  C   LIG    1        0.139   9.298   6.535  0.00  0.00    +0.120 A 
ATOM     21  C   LIG    1       -0.556  10.252   7.254  0.00  0.00    +0.000 A 
ATOM     22  C   LIG    1       -1.071  11.367   6.615  0.00  0.00    -0.040 A 
ATOM     23  C   LIG    1       -1.858  12.537   7.167  0.00  0.00    +0.080 C 
ATOM     24  C   LIG    1       -1.759  13.635   6.087  0.00  0.00    +0.040 C 
ATOM     25  C   LIG    1       -1.541  12.814   4.798  0.00  0.00    +0.080 C 
ATOM     26  C   LIG    1       -0.889  11.526   5.254  0.00  0.00    -0.120 A 
ATOM     27  C   LIG    1       -0.187  10.573   4.537  0.00  0.00    +0.130 A 
ENDBRANCH  16  19
ENDBRANCH  15  16
ENDBRANCH   1  15
TORSDOF 4
