REMARK  Name = ZINCtV000002PAiO.1
REMARK                            x       y       z     vdW  Elec       q    Type
REMARK                         _______ _______ _______ _____ _____    ______ ____
ROOT
ATOM      1  O   LIG    1       -3.881   3.550   0.746  0.00  0.00    -0.930 OA
ATOM      2  S   LIG    1       -2.774   4.103   0.048  0.00  0.00    +2.690 S 
ATOM      3  O   LIG    1       -2.209   5.369   0.363  0.00  0.00    -0.930 OA
ENDROOT
BRANCH   2   4
ATOM      4  C   LIG    1       -1.466   2.929   0.178  0.00  0.00    -0.680 A 
ATOM      5  C   LIG    1       -1.756   1.597   0.406  0.00  0.00    +0.170 A 
ATOM      6  C   LIG    1       -0.733   0.674   0.514  0.00  0.00    +0.020 A 
ATOM      7  C   LIG    1        0.586   1.084   0.382  0.00  0.00    +0.180 A 
ATOM      8  C   LIG    1        0.874   2.422   0.147  0.00  0.00    -0.130 A 
ATOM      9 BR   LIG    1        2.670   2.985  -0.034  0.00  0.00    -0.010 Br
ATOM     10  C   LIG    1       -0.153   3.341   0.045  0.00  0.00    +0.190 A 
BRANCH   7  11
ATOM     11  O   LIG    1        1.593   0.178   0.483  0.00  0.00    -0.250 OA
BRANCH  11  12
ATOM     12  C   LIG    1        2.175   0.004   1.699  0.00  0.00    +0.120 A 
ATOM     13  C   LIG    1        1.789   0.792   2.773  0.00  0.00    -0.070 A 
ATOM     14  C   LIG    1        2.379   0.610   4.009  0.00  0.00    +0.050 A 
ATOM     15  C   LIG    1        3.360  -0.351   4.174  0.00  0.00    -0.020 A 
ATOM     16  C   LIG    1        3.750  -1.134   3.103  0.00  0.00    +0.050 A 
ATOM     17  C   LIG    1        3.160  -0.959   1.867  0.00  0.00    +0.000 A 
ENDBRANCH  11  12
ENDBRANCH   7  11
ENDBRANCH   2   4
BRANCH   2  18
ATOM     18  N   LIG    1       -3.213   4.172  -1.547  0.00  0.00    -1.060 N 
ATOM     19  H   LIG    1       -3.141   5.007  -2.035  0.00  0.00    +0.430 HD
BRANCH  18  20
ATOM     20  C   LIG    1       -3.689   3.026  -2.191  0.00  0.00    +0.210 A 
ATOM     21  C   LIG    1       -4.471   2.112  -1.497  0.00  0.00    +0.010 A 
ATOM     22  C   LIG    1       -4.939   0.981  -2.135  0.00  0.00    +0.120 A 
ATOM     23  C   LIG    1       -4.631   0.758  -3.466  0.00  0.00    -0.050 A 
ATOM     24  C   LIG    1       -3.853   1.667  -4.160  0.00  0.00    +0.120 A 
ATOM     25 CL   LIG    1       -5.223  -0.665  -4.265  0.00  0.00    -0.040 Cl
ATOM     26  C   LIG    1       -3.386   2.803  -3.528  0.00  0.00    -0.190 A 
BRANCH  26  27
ATOM     27  C   LIG    1       -2.543   3.795  -4.287  0.00  0.00    +0.510 C 
ATOM     28  F   LIG    1       -1.292   3.911  -3.671  0.00  0.00    -0.170 F 
ATOM     29  F   LIG    1       -3.179   5.042  -4.288  0.00  0.00    -0.170 F 
ATOM     30  F   LIG    1       -2.376   3.355  -5.604  0.00  0.00    -0.170 F 
ENDBRANCH  26  27
ENDBRANCH  18  20
ENDBRANCH   2  18
TORSDOF 6
