REMARK  Name = ZINCpe00000gzDo8.0
REMARK                            x       y       z     vdW  Elec       q    Type
REMARK                         _______ _______ _______ _____ _____    ______ ____
ROOT
ATOM      1  C   LIG    1        1.120   3.657   0.011  0.00  0.00    +0.210 C 
ENDROOT
BRANCH   1   2
ATOM      2  N   LIG    1        2.461   4.250  -0.078  0.00  0.00    -0.520 NA
ATOM      3  C   LIG    1        3.242   3.626  -1.153  0.00  0.00    +0.180 C 
ATOM      4  C   LIG    1        4.675   4.163  -1.122  0.00  0.00    +0.030 C 
ATOM      5  C   LIG    1        4.649   5.684  -1.301  0.00  0.00    +0.270 C 
ATOM      6  C   LIG    1        3.789   6.305  -0.196  0.00  0.00    +0.030 C 
ATOM      7  C   LIG    1        2.382   5.706  -0.254  0.00  0.00    +0.180 C 
BRANCH   5   8
ATOM      8  N   LIG    1        6.013   6.210  -1.214  0.00  0.00    -0.630 N 
ATOM      9  C   LIG    1        6.709   6.954  -2.275  0.00  0.00    +0.250 C 
ATOM     10  C   LIG    1        8.088   7.266  -1.664  0.00  0.00    +0.250 C 
ATOM     11  N   LIG    1        8.027   6.657  -0.327  0.00  0.00    -0.750 N 
ATOM     12  H   LIG    1        8.742   6.666   0.329  0.00  0.00    +0.430 HD
ATOM     13  C   LIG    1        6.827   6.086  -0.157  0.00  0.00    +0.700 C 
ATOM     14  O   LIG    1        6.506   5.508   0.863  0.00  0.00    -0.570 OA
ENDBRANCH   5   8
ENDBRANCH   1   2
BRANCH   1  17
ATOM     15  N   LIG    1       -0.845   3.813   1.506  0.00  0.00    -0.730 N 
ATOM     16  H   LIG    1       -1.338   3.281   0.862  0.00  0.00    +0.400 HD
ATOM     17  C   LIG    1        0.445   4.128   1.274  0.00  0.00    +0.510 C 
ATOM     18  O   LIG    1        1.062   4.790   2.081  0.00  0.00    -0.510 OA
BRANCH  15  19
ATOM     19  C   LIG    1       -1.501   4.271   2.733  0.00  0.00    +0.320 C 
BRANCH  19  24
ATOM     20  C   LIG    1       -4.553   2.124   3.329  0.00  0.00    +0.130 A 
ATOM     21  C   LIG    1       -5.553   2.909   2.775  0.00  0.00    -0.070 A 
ATOM     22  C   LIG    1       -5.239   4.131   2.212  0.00  0.00    +0.050 A 
ATOM     23  C   LIG    1       -3.929   4.573   2.203  0.00  0.00    -0.010 A 
ATOM     24  C   LIG    1       -2.929   3.789   2.749  0.00  0.00    -0.070 A 
ATOM     25  C   LIG    1       -3.238   2.567   3.314  0.00  0.00    +0.000 A 
BRANCH  20  27
ATOM     26  C   LIG    1       -6.234   0.530   3.864  0.00  0.00    +0.250 C 
ATOM     27  O   LIG    1       -4.860   0.922   3.884  0.00  0.00    -0.320 OA
ENDBRANCH  20  27
ENDBRANCH  19  24
ENDBRANCH  15  19
ENDBRANCH   1  17
TORSDOF 6
