REMARK  Name = ZINCpk00000e9DxI.0
REMARK                            x       y       z     vdW  Elec       q    Type
REMARK                         _______ _______ _______ _____ _____    ______ ____
ROOT
ATOM      1  C   LIG    1        3.471   0.584  -0.027  0.00  0.00    +0.320 C 
ENDROOT
BRANCH   1   2
ATOM      2  N   LIG    1        2.006   0.610  -0.014  0.00  0.00    -0.310 N 
ATOM      3  N   LIG    1        1.222  -0.415  -0.012  0.00  0.00    -0.090 NA
ATOM      4  N   LIG    1        0.002  -0.004   0.002  0.00  0.00    -0.060 NA
ATOM      5  N   LIG    1       -0.015   1.284   0.009  0.00  0.00    -0.300 NA
ATOM      6  C   LIG    1        1.226   1.706  -0.001  0.00  0.00    +0.210 A 
ATOM      7  C   LIG    1        1.688   3.140   0.002  0.00  0.00    +0.220 C 
ENDBRANCH   1   2
BRANCH   1   8
ATOM      8  C   LIG    1        3.950  -0.128  -1.266  0.00  0.00    +0.470 C 
ATOM      9  O   LIG    1        4.628  -1.123  -1.167  0.00  0.00    -0.460 OA
BRANCH   8  10
ATOM     10  O   LIG    1        3.622   0.343  -2.480  0.00  0.00    -0.350 OA
BRANCH  10  11
ATOM     11  C   LIG    1        4.118  -0.394  -3.628  0.00  0.00    +0.410 C 
BRANCH  11  15
ATOM     12  C   LIG    1        2.503   0.842  -6.622  0.00  0.00    +0.190 A 
ATOM     13  N   LIG    1        3.596   1.550  -6.581  0.00  0.00    -0.280 NA
ATOM     14  N   LIG    1        4.284   1.212  -5.548  0.00  0.00    -0.250 NA
ATOM     15  C   LIG    1        3.654   0.278  -4.895  0.00  0.00    +0.140 A 
ATOM     16  O   LIG    1        2.516   0.018  -5.561  0.00  0.00    -0.210 OA
BRANCH  12  18
ATOM     17  C   LIG    1        1.738  -0.047  -8.807  0.00  0.00    +0.060 C 
ATOM     18  C   LIG    1        1.424   0.928  -7.671  0.00  0.00    +0.190 C 
ENDBRANCH  12  18
ENDBRANCH  11  15
ENDBRANCH  10  11
ENDBRANCH   8  10
ENDBRANCH   1   8
BRANCH   1  19
ATOM     19  C   LIG    1        3.980  -0.152   1.214  0.00  0.00    +0.140 C 
BRANCH  19  20
ATOM     20  C   LIG    1        3.606   0.626   2.449  0.00  0.00    -0.100 A 
ATOM     21  C   LIG    1        4.469   1.581   2.952  0.00  0.00    +0.020 A 
ATOM     22  C   LIG    1        4.124   2.298   4.082  0.00  0.00    +0.010 A 
ATOM     23  C   LIG    1        2.920   2.053   4.715  0.00  0.00    +0.020 A 
ATOM     24  C   LIG    1        2.058   1.095   4.214  0.00  0.00    +0.010 A 
ATOM     25  C   LIG    1        2.401   0.381   3.081  0.00  0.00    +0.010 A 
ENDBRANCH  19  20
ENDBRANCH   1  19
TORSDOF 8
