REMARK  Name = ZINCrD00000F5Lt9.0
REMARK                            x       y       z     vdW  Elec       q    Type
REMARK                         _______ _______ _______ _____ _____    ______ ____
ROOT
ATOM      1  C   LIG    1       -6.552  10.197   0.107  0.00  0.00    +0.170 C 
ATOM      2  C   LIG    1       -7.652   9.168   0.101  0.00  0.00    +0.110 A 
ATOM      3  N   LIG    1       -8.934   9.416   0.105  0.00  0.00    -0.270 NA
ATOM      4  N   LIG    1       -9.631   8.202   0.102  0.00  0.00    -0.350 N 
ATOM      5  C   LIG    1       -8.733   7.197   0.091  0.00  0.00    +0.160 A 
ATOM      6 CL   LIG    1       -9.092   5.498   0.082  0.00  0.00    +0.040 Cl
ATOM      7  C   LIG    1       -7.476   7.767   0.086  0.00  0.00    -0.190 A 
ENDROOT
BRANCH   7   8
ATOM      8  C   LIG    1       -6.189   7.047   0.075  0.00  0.00    +0.260 C 
ATOM      9  N   LIG    1       -6.171   5.749   0.067  0.00  0.00    -0.230 NA
BRANCH   9  10
ATOM     10  N   LIG    1       -4.949   5.065   0.056  0.00  0.00    -0.580 N 
ATOM     11  H   LIG    1       -4.115   5.562   0.054  0.00  0.00    +0.380 HD
ATOM     12  C   LIG    1       -4.930   3.718   0.049  0.00  0.00    +0.580 C 
ATOM     13  O   LIG    1       -5.976   3.095   0.051  0.00  0.00    -0.510 OA
BRANCH  12  14
ATOM     14  C   LIG    1       -3.643   2.998   0.037  0.00  0.00    -0.200 A 
ATOM     15  C   LIG    1       -3.623   1.600   0.029  0.00  0.00    +0.140 A 
ATOM     16  C   LIG    1       -2.420   0.931   0.019  0.00  0.00    -0.080 A 
ATOM     17  C   LIG    1       -1.225   1.645   0.017  0.00  0.00    +0.250 A 
ATOM     18  C   LIG    1       -1.242   3.037   0.030  0.00  0.00    -0.080 A 
ATOM     19  C   LIG    1       -2.441   3.712   0.035  0.00  0.00    +0.090 A 
BRANCH  17  20
ATOM     20  N   LIG    1       -0.011   0.966   0.007  0.00  0.00    -0.870 N 
ATOM     21  H   LIG    1        0.822   1.462   0.002  0.00  0.00    +0.400 HD
ATOM     22  H   LIG    1        0.002  -0.004   0.002  0.00  0.00    +0.400 HD
ENDBRANCH  17  20
ENDBRANCH  12  14
ENDBRANCH   9  10
ENDBRANCH   7   8
BRANCH   4  23
ATOM     23  C   LIG    1      -11.088   8.051   0.110  0.00  0.00    +0.400 C 
BRANCH  23  24
ATOM     24  C   LIG    1      -11.579   7.990   1.534  0.00  0.00    -0.140 A 
ATOM     25  C   LIG    1      -11.685   6.771   2.176  0.00  0.00    +0.060 A 
ATOM     26  C   LIG    1      -12.130   6.715   3.484  0.00  0.00    -0.010 A 
ATOM     27  C   LIG    1      -12.480   7.879   4.146  0.00  0.00    +0.110 A 
ATOM     28  C   LIG    1      -12.378   9.099   3.499  0.00  0.00    -0.020 A 
ATOM     29  F   LIG    1      -12.921   7.825   5.422  0.00  0.00    -0.140 F 
ATOM     30  C   LIG    1      -11.928   9.154   2.194  0.00  0.00    +0.080 A 
ENDBRANCH  23  24
ENDBRANCH   4  23
TORSDOF 6
