REMARK  Name = ZINCvU0000000F7t.0
REMARK                            x       y       z     vdW  Elec       q    Type
REMARK                         _______ _______ _______ _____ _____    ______ ____
ROOT
ATOM      1  C   LIG    1        0.817  -0.191  -3.969  0.00  0.00    +0.260 A 
ATOM      2  N   LIG    1        1.038   1.035  -4.389  0.00  0.00    -0.300 NA
ATOM      3  N   LIG    1        0.480   1.897  -3.431  0.00  0.00    -0.370 N 
ATOM      4  C   LIG    1       -0.046   1.114  -2.472  0.00  0.00    +0.290 A 
ATOM      5  N   LIG    1        0.158  -0.133  -2.804  0.00  0.00    -0.520 NA
ENDROOT
BRANCH   4   6
ATOM      6  C   LIG    1       -0.754   1.593  -1.231  0.00  0.00    +0.080 C 
ATOM      7  C   LIG    1       -0.013   1.086   0.008  0.00  0.00    +0.040 C 
ATOM      8  C   LIG    1       -0.730   1.580   1.266  0.00  0.00    +0.030 C 
ATOM      9  C   LIG    1       -2.165   1.054   1.278  0.00  0.00    -0.040 C 
ATOM     10  C   LIG    1       -2.157  -0.476   1.288  0.00  0.00    +0.210 C 
ATOM     11  O   LIG    1       -3.503  -0.956   1.262  0.00  0.00    -0.380 OA
ATOM     12  C   LIG    1       -4.244  -0.561   0.105  0.00  0.00    +0.200 C 
ATOM     13  C   LIG    1       -4.330   0.967   0.050  0.00  0.00    -0.010 C 
ATOM     14  C   LIG    1       -2.910   1.546   0.035  0.00  0.00    +0.000 C 
ATOM     15  C   LIG    1       -2.186   1.056  -1.221  0.00  0.00    +0.040 C 
ENDBRANCH   4   6
BRANCH   1  20
ATOM     16  C   LIG    1        2.293  -2.517  -6.528  0.00  0.00    -0.190 A 
ATOM     17  C   LIG    1        1.997  -3.749  -5.975  0.00  0.00    +0.080 A 
ATOM     18  C   LIG    1        1.319  -3.829  -4.772  0.00  0.00    +0.020 A 
ATOM     19  C   LIG    1        0.933  -2.678  -4.117  0.00  0.00    +0.110 A 
ATOM     20  C   LIG    1        1.229  -1.433  -4.669  0.00  0.00    -0.010 A 
ATOM     21  C   LIG    1        1.907  -1.358  -5.883  0.00  0.00    +0.100 A 
BRANCH  16  23
ATOM     22  F   LIG    1        3.308  -3.730  -8.297  0.00  0.00    -0.180 F 
ATOM     23  C   LIG    1        3.032  -2.438  -7.838  0.00  0.00    +0.510 C 
ATOM     24  F   LIG    1        4.232  -1.742  -7.656  0.00  0.00    -0.180 F 
ATOM     25  F   LIG    1        2.243  -1.767  -8.779  0.00  0.00    -0.180 F 
ENDBRANCH  16  23
ENDBRANCH   1  20
BRANCH   3  26
ATOM     26  C   LIG    1        0.475   3.362  -3.467  0.00  0.00    +0.240 C 
ATOM     27  C   LIG    1        1.917   3.879  -3.503  0.00  0.00    +0.030 C 
ATOM     28  C   LIG    1        1.897   5.406  -3.619  0.00  0.00    +0.020 C 
ATOM     29  C   LIG    1        1.106   5.805  -4.868  0.00  0.00    +0.210 C 
ATOM     30  O   LIG    1       -0.215   5.267  -4.784  0.00  0.00    -0.370 OA
ATOM     31  C   LIG    1       -0.262   3.840  -4.721  0.00  0.00    +0.230 C 
ENDBRANCH   3  26
TORSDOF 4
