REMARK  Name = ZINCrH000004ljJC.0
REMARK                            x       y       z     vdW  Elec       q    Type
REMARK                         _______ _______ _______ _____ _____    ______ ____
ROOT
ATOM      1  N   LIG    1        3.450   1.771  -0.095  0.00  0.00    -0.590 N 
ATOM      2  C   LIG    1        2.215   1.231  -0.097  0.00  0.00    +0.560 C 
ATOM      3  O   LIG    1        2.076   0.031   0.036  0.00  0.00    -0.520 OA
ENDROOT
BRANCH   2   4
ATOM      4  C   LIG    1        1.030   2.098  -0.261  0.00  0.00    -0.130 A 
ATOM      5  C   LIG    1        0.930   3.291   0.460  0.00  0.00    +0.060 A 
ATOM      6  C   LIG    1       -0.178   4.094   0.308  0.00  0.00    +0.000 A 
ATOM      7  C   LIG    1       -1.192   3.724  -0.569  0.00  0.00    +0.180 A 
ATOM      8  C   LIG    1       -1.095   2.538  -1.288  0.00  0.00    +0.030 A 
ATOM      9  C   LIG    1        0.007   1.727  -1.137  0.00  0.00    +0.100 A 
BRANCH   7  10
ATOM     10  N   LIG    1       -2.313   4.545  -0.724  0.00  0.00    -0.330 N 
ATOM     11  N   LIG    1       -3.027   4.751  -1.911  0.00  0.00    -0.290 NA
ATOM     12  C   LIG    1       -4.010   5.577  -1.661  0.00  0.00    +0.090 A 
ATOM     13  C   LIG    1       -3.952   5.935  -0.309  0.00  0.00    -0.110 A 
ATOM     14  C   LIG    1       -5.027   6.067  -2.659  0.00  0.00    +0.160 C 
ATOM     15  C   LIG    1       -2.902   5.289   0.249  0.00  0.00    +0.090 A 
ATOM     16  C   LIG    1       -2.463   5.379   1.688  0.00  0.00    +0.150 C 
ENDBRANCH   7  10
ENDBRANCH   2   4
BRANCH   1  17
ATOM     17  C   LIG    1        3.613   3.227  -0.117  0.00  0.00    +0.300 C 
BRANCH  17  18
ATOM     18  C   LIG    1        3.870   3.733   1.304  0.00  0.00    +0.170 C 
BRANCH  18  20
ATOM     19  C   LIG    1        5.486   3.689   3.074  0.00  0.00    +0.200 C 
ATOM     20  O   LIG    1        5.146   3.270   1.750  0.00  0.00    -0.380 OA
ENDBRANCH  18  20
ENDBRANCH  17  18
ENDBRANCH   1  17
BRANCH   1  21
ATOM     21  C   LIG    1        4.629   0.902  -0.070  0.00  0.00    +0.340 C 
BRANCH  21  22
ATOM     22  C   LIG    1        5.046   0.581  -1.482  0.00  0.00    -0.110 A 
ATOM     23  C   LIG    1        4.531  -0.533  -2.119  0.00  0.00    +0.030 A 
ATOM     24  C   LIG    1        4.910  -0.824  -3.416  0.00  0.00    +0.000 A 
ATOM     25  C   LIG    1        5.812  -0.008  -4.073  0.00  0.00    +0.000 A 
ATOM     26  C   LIG    1        6.330   1.103  -3.434  0.00  0.00    +0.000 A 
ATOM     27  C   LIG    1        5.947   1.398  -2.139  0.00  0.00    +0.020 A 
ENDBRANCH  21  22
ENDBRANCH   1  21
TORSDOF 7
