REMARK  Name = ZINCrD00000F5Ln1.0
REMARK                            x       y       z     vdW  Elec       q    Type
REMARK                         _______ _______ _______ _____ _____    ______ ____
ROOT
ATOM      1  O   LIG    1       -4.813  -0.513  -0.275  0.00  0.00    -0.520 OA
ATOM      2  C   LIG    1       -3.751  -1.092  -0.139  0.00  0.00    +0.550 C 
ATOM      3  N   LIG    1       -3.727  -2.431   0.009  0.00  0.00    -0.660 N 
ATOM      4  H   LIG    1       -2.879  -2.901   0.040  0.00  0.00    +0.420 HD
ENDROOT
BRANCH   3   5
ATOM      5  C   LIG    1       -4.926  -3.144   0.117  0.00  0.00    +0.090 A 
ATOM      6  C   LIG    1       -6.035  -2.571   0.737  0.00  0.00    +0.110 A 
ATOM      7  C   LIG    1       -7.201  -3.312   0.817  0.00  0.00    +0.010 A 
ATOM      8  C   LIG    1       -7.225  -4.597   0.289  0.00  0.00    +0.350 A 
ATOM      9  N   LIG    1       -6.152  -5.112  -0.289  0.00  0.00    -0.490 NA
ATOM     10  C   LIG    1       -5.025  -4.434  -0.388  0.00  0.00    +0.280 A 
BRANCH   8  11
ATOM     11  N   LIG    1       -8.398  -5.356   0.370  0.00  0.00    -0.330 N 
ATOM     12  C   LIG    1       -8.567  -6.619  -0.099  0.00  0.00    +0.260 A 
ATOM     13  C   LIG    1       -9.838  -6.991   0.178  0.00  0.00    -0.100 A 
ATOM     14  C   LIG    1      -10.467  -5.927   0.835  0.00  0.00    +0.260 A 
ATOM     15  N   LIG    1       -9.604  -4.950   0.955  0.00  0.00    -0.290 NA
ENDBRANCH   8  11
ENDBRANCH   3   5
BRANCH   2  16
ATOM     16  C   LIG    1       -2.501  -0.334  -0.137  0.00  0.00    -0.080 C 
ATOM     17  C   LIG    1       -2.524   1.008  -0.285  0.00  0.00    +0.140 C 
BRANCH  17  18
ATOM     18  C   LIG    1       -1.267   1.770  -0.282  0.00  0.00    -0.070 A 
ATOM     19  C   LIG    1       -0.045   1.107  -0.126  0.00  0.00    +0.060 A 
ATOM     20  C   LIG    1        1.132   1.825  -0.129  0.00  0.00    -0.040 A 
ATOM     21  C   LIG    1        1.109   3.207  -0.282  0.00  0.00    +0.080 A 
ATOM     22  O   LIG    1        2.283   3.895  -0.279  0.00  0.00    -0.290 OA
ATOM     23  C   LIG    1        2.252   5.225  -0.806  0.00  0.00    +0.230 C 
ATOM     24  C   LIG    1        1.035   5.949  -0.214  0.00  0.00    +0.230 C 
ATOM     25  O   LIG    1       -0.142   5.226  -0.589  0.00  0.00    -0.300 OA
ATOM     26  C   LIG    1       -0.104   3.873  -0.434  0.00  0.00    +0.060 A 
ATOM     27 CL   LIG    1        2.648   1.000   0.058  0.00  0.00    -0.040 Cl
ATOM     28  C   LIG    1       -1.289   3.161  -0.430  0.00  0.00    +0.070 A 
ENDBRANCH  17  18
ENDBRANCH   2  16
TORSDOF 4
