REMARK  Name = ZINCqH000000745y.0
REMARK                            x       y       z     vdW  Elec       q    Type
REMARK                         _______ _______ _______ _____ _____    ______ ____
ROOT
ATOM      1  C   LIG    1        1.184   2.091  -0.185  0.00  0.00    +0.320 A 
ATOM      2  C   LIG    1        1.303   3.437  -0.004  0.00  0.00    -0.230 A 
ATOM      3  C   LIG    1        0.495   4.714   0.067  0.00  0.00    +0.120 C 
ATOM      4  C   LIG    1        1.419   5.740   0.757  0.00  0.00    +0.030 C 
ATOM      5  C   LIG    1        2.828   5.214   0.412  0.00  0.00    +0.140 C 
ATOM      6  C   LIG    1        2.655   3.725   0.202  0.00  0.00    +0.070 A 
ATOM      7  N   LIG    1        3.330   2.602   0.140  0.00  0.00    -0.260 NA
ATOM      8  N   LIG    1        2.432   1.556  -0.102  0.00  0.00    -0.340 N 
ENDROOT
BRANCH   8   9
ATOM      9  C   LIG    1        2.760   0.200  -0.236  0.00  0.00    +0.160 A 
ATOM     10  C   LIG    1        1.948  -0.771   0.334  0.00  0.00    -0.030 A 
ATOM     11  C   LIG    1        2.271  -2.107   0.197  0.00  0.00    +0.050 A 
ATOM     12  C   LIG    1        3.407  -2.477  -0.498  0.00  0.00    +0.010 A 
ATOM     13  C   LIG    1        4.221  -1.512  -1.063  0.00  0.00    +0.050 A 
ATOM     14  C   LIG    1        3.900  -0.174  -0.933  0.00  0.00    +0.030 A 
ENDBRANCH   8   9
BRANCH   1  16
ATOM     15  C   LIG    1       -1.045   2.012  -1.000  0.00  0.00    +0.570 C 
ATOM     16  N   LIG    1        0.001   1.392  -0.417  0.00  0.00    -0.650 N 
ATOM     17  H   LIG    1       -0.071   0.461  -0.157  0.00  0.00    +0.410 HD
ATOM     18  O   LIG    1       -0.986   3.201  -1.247  0.00  0.00    -0.480 OA
BRANCH  15  22
ATOM     19  C   LIG    1       -4.545  -0.189  -1.971  0.00  0.00    +0.190 A 
ATOM     20  C   LIG    1       -3.466  -0.829  -1.370  0.00  0.00    -0.080 A 
ATOM     21  C   LIG    1       -2.328  -0.120  -1.059  0.00  0.00    +0.130 A 
ATOM     22  C   LIG    1       -2.260   1.248  -1.337  0.00  0.00    -0.220 A 
ATOM     23  C   LIG    1       -3.348   1.890  -1.942  0.00  0.00    +0.210 A 
ATOM     24  F   LIG    1       -3.286   3.211  -2.219  0.00  0.00    -0.100 F 
ATOM     25  C   LIG    1       -4.482   1.169  -2.255  0.00  0.00    -0.040 A 
BRANCH  19  27
ATOM     26  C   LIG    1       -5.660  -2.287  -1.961  0.00  0.00    +0.250 C 
ATOM     27  O   LIG    1       -5.662  -0.894  -2.281  0.00  0.00    -0.300 OA
ENDBRANCH  19  27
ENDBRANCH  15  22
ENDBRANCH   1  16
TORSDOF 4
