REMARK  Name = ZINCrD00000758Ma.0
REMARK                            x       y       z     vdW  Elec       q    Type
REMARK                         _______ _______ _______ _____ _____    ______ ____
ROOT
ATOM      1  C   LIG    1       -3.140   3.579  -2.681  0.00  0.00    +0.510 C 
ATOM      2  O   LIG    1       -4.203   4.165  -2.696  0.00  0.00    -0.480 OA
ENDROOT
BRANCH   1  11
ATOM      3  C   LIG    1       -4.403   6.471  -3.217  0.00  0.00    +0.210 C 
ATOM      4  C   LIG    1       -2.919   6.729  -3.181  0.00  0.00    +0.150 A 
ATOM      5  N   LIG    1       -2.333   7.876  -3.341  0.00  0.00    -0.270 NA
ATOM      6  O   LIG    1       -0.933   7.716  -3.241  0.00  0.00    -0.080 OA
ATOM      7  C   LIG    1       -0.646   6.419  -3.010  0.00  0.00    +0.300 A 
ATOM      8  N   LIG    1        0.490   5.760  -2.841  0.00  0.00    -0.450 NA
ATOM      9  C   LIG    1        0.519   4.462  -2.623  0.00  0.00    +0.230 A 
ATOM     10  C   LIG    1       -0.643   3.709  -2.560  0.00  0.00    +0.030 A 
ATOM     11  C   LIG    1       -1.874   4.342  -2.735  0.00  0.00    +0.010 A 
ATOM     12  C   LIG    1       -1.871   5.732  -2.960  0.00  0.00    -0.200 A 
BRANCH   9  13
ATOM     13  C   LIG    1        1.849   3.777  -2.439  0.00  0.00    +0.020 C 
ATOM     14  C   LIG    1        1.843   2.378  -1.821  0.00  0.00    +0.040 C 
ATOM     15  C   LIG    1        2.345   3.572  -1.007  0.00  0.00    +0.060 C 
ENDBRANCH   9  13
ENDBRANCH   1  11
BRANCH   1  16
ATOM     16  O   LIG    1       -3.113   2.234  -2.616  0.00  0.00    -0.320 OA
BRANCH  16  17
ATOM     17  C   LIG    1       -4.393   1.551  -2.566  0.00  0.00    +0.260 C 
BRANCH  17  18
ATOM     18  C   LIG    1       -4.166   0.062  -2.496  0.00  0.00    +0.520 C 
ATOM     19  N   LIG    1       -5.218  -0.778  -2.441  0.00  0.00    -0.600 N 
ATOM     20  C   LIG    1       -6.593  -0.262  -2.501  0.00  0.00    +0.220 C 
ATOM     21  C   LIG    1       -7.340  -0.991  -3.628  0.00  0.00    +0.020 C 
ATOM     22  C   LIG    1       -7.245  -2.502  -3.401  0.00  0.00    +0.020 C 
ATOM     23  C   LIG    1       -5.778  -2.934  -3.438  0.00  0.00    +0.020 C 
ATOM     24  C   LIG    1       -7.295  -0.517  -1.166  0.00  0.00    +0.030 C 
ATOM     25  C   LIG    1       -5.013  -2.227  -2.314  0.00  0.00    +0.230 C 
ATOM     26  C   LIG    1       -3.521  -2.546  -2.430  0.00  0.00    +0.060 C 
ATOM     27  O   LIG    1       -3.036  -0.379  -2.489  0.00  0.00    -0.510 OA
ENDBRANCH  17  18
ENDBRANCH  16  17
ENDBRANCH   1  16
TORSDOF 5
