REMARK  Name = ZINCb70000001NPM.0
REMARK                            x       y       z     vdW  Elec       q    Type
REMARK                         _______ _______ _______ _____ _____    ______ ____
ROOT
ATOM      1  C   LIG    1        2.293   1.139   0.668  0.00  0.00    +0.180 C 
ATOM      2  C   LIG    1        1.460   2.246   0.000  0.00  0.00    +0.090 C 
ATOM      3  C   LIG    1       -0.023   1.825   0.012  0.00  0.00    -0.280 C 
ATOM      4  S   LIG    1        0.002  -0.004   0.002  0.00  0.00    +2.410 S 
ATOM      5  O   LIG    1       -0.493  -0.475  -1.244  0.00  0.00    -0.900 OA
ATOM      6  O   LIG    1       -0.558  -0.489   1.215  0.00  0.00    -0.900 OA
ATOM      7  C   LIG    1        1.823  -0.204   0.051  0.00  0.00    -0.310 C 
ENDROOT
BRANCH   1   8
ATOM      8  N   LIG    1        3.721   1.347   0.392  0.00  0.00    -0.500 N 
ATOM      9  H   LIG    1        3.859   1.453  -0.602  0.00  0.00    +0.430 HD
ATOM     10  H   LIG    1        4.247   0.552   0.723  0.00  0.00    +0.430 HD
BRANCH   8  12
ATOM     11  C   LIG    1        4.088   2.352   2.595  0.00  0.00    +0.090 C 
ATOM     12  C   LIG    1        4.181   2.559   1.082  0.00  0.00    +0.160 C 
ATOM     13  C   LIG    1        5.634   2.846   0.696  0.00  0.00    +0.090 C 
ENDBRANCH   8  12
ENDBRANCH   1   8
TORSDOF 2
