REMARK  Name = ZINCnE000001PKqP.0
REMARK                            x       y       z     vdW  Elec       q    Type
REMARK                         _______ _______ _______ _____ _____    ______ ____
ROOT
ATOM      1  S   LIG    1       -2.505   1.551   0.477  0.00  0.00    +2.690 S 
ATOM      2  O   LIG    1       -1.589   0.836  -0.340  0.00  0.00    -0.950 OA
ATOM      3  O   LIG    1       -3.640   2.231  -0.040  0.00  0.00    -0.950 OA
ENDROOT
BRANCH   1   4
ATOM      4  C   LIG    1       -1.559   2.754   1.349  0.00  0.00    -0.690 A 
ATOM      5  C   LIG    1       -0.187   2.614   1.451  0.00  0.00    +0.130 A 
ATOM      6  C   LIG    1        0.556   3.561   2.131  0.00  0.00    -0.010 A 
ATOM      7  C   LIG    1       -0.073   4.645   2.714  0.00  0.00    -0.000 A 
ATOM      8  C   LIG    1       -1.445   4.782   2.617  0.00  0.00    -0.010 A 
ATOM      9  C   LIG    1       -2.188   3.836   1.936  0.00  0.00    +0.110 A 
BRANCH   7  10
ATOM     10  C   LIG    1        0.737   5.677   3.456  0.00  0.00    +0.090 C 
BRANCH  10  11
ATOM     11  C   LIG    1        1.173   6.777   2.486  0.00  0.00    -0.060 C 
BRANCH  11  12
ATOM     12  C   LIG    1        1.983   7.809   3.228  0.00  0.00    +0.490 C 
ATOM     13  O   LIG    1        2.429   8.775   2.634  0.00  0.00    -0.700 OA
ATOM     14  O   LIG    1        2.192   7.676   4.422  0.00  0.00    -0.700 OA
ENDBRANCH  11  12
ENDBRANCH  10  11
ENDBRANCH   7  10
ENDBRANCH   1   4
BRANCH   1  15
ATOM     15  N   LIG    1       -3.076   0.471   1.595  0.00  0.00    -1.060 N 
ATOM     16  H   LIG    1       -4.031   0.376   1.734  0.00  0.00    +0.430 HD
BRANCH  15  21
ATOM     17  C   LIG    1        0.553  -2.676   4.611  0.00  0.00    +0.110 C 
ATOM     18  C   LIG    1       -0.411  -1.839   3.810  0.00  0.00    -0.070 A 
ATOM     19  C   LIG    1       -0.655  -2.147   2.485  0.00  0.00    +0.040 A 
ATOM     20  C   LIG    1       -1.542  -1.386   1.749  0.00  0.00    +0.040 A 
ATOM     21  C   LIG    1       -2.182  -0.303   2.338  0.00  0.00    +0.130 A 
ATOM     22  C   LIG    1       -1.935   0.005   3.670  0.00  0.00    +0.040 A 
ATOM     23  C   LIG    1       -1.050  -0.763   4.402  0.00  0.00    -0.030 A 
ATOM     24 CL   LIG    1       -0.740  -0.380   6.067  0.00  0.00    -0.060 Cl
ENDBRANCH  15  21
ENDBRANCH   1  15
TORSDOF 6
