REMARK  Name = ZINCrD000000BxVH.0
REMARK                            x       y       z     vdW  Elec       q    Type
REMARK                         _______ _______ _______ _____ _____    ______ ____
ROOT
ATOM      1  C   LIG    1        2.243  -4.095  -3.083  0.00  0.00    -0.040 C 
ATOM      2  C   LIG    1        0.854  -3.981  -3.733  0.00  0.00    +0.040 C 
ATOM      3  C   LIG    1        0.420  -5.417  -4.099  0.00  0.00    +0.020 C 
ATOM      4  C   LIG    1        1.237  -6.317  -3.139  0.00  0.00    +0.010 C 
ATOM      5  C   LIG    1        2.606  -5.595  -3.076  0.00  0.00    +0.060 C 
ENDROOT
BRANCH   1   6
ATOM      6  C   LIG    1        3.256  -3.323  -3.888  0.00  0.00    -0.070 A 
ATOM      7  C   LIG    1        4.059  -2.383  -3.270  0.00  0.00    +0.040 A 
ATOM      8  C   LIG    1        4.990  -1.677  -4.009  0.00  0.00    +0.030 A 
ATOM      9  C   LIG    1        5.113  -1.905  -5.366  0.00  0.00    +0.070 A 
ATOM     10  C   LIG    1        4.306  -2.842  -5.985  0.00  0.00    -0.180 A 
ATOM     11  C   LIG    1        3.377  -3.550  -5.247  0.00  0.00    +0.080 A 
BRANCH  10  12
ATOM     12  C   LIG    1        4.439  -3.090  -7.466  0.00  0.00    +0.510 C 
ATOM     13  F   LIG    1        4.103  -4.419  -7.748  0.00  0.00    -0.170 F 
ATOM     14  F   LIG    1        5.759  -2.849  -7.862  0.00  0.00    -0.180 F 
ATOM     15  F   LIG    1        3.579  -2.234  -8.162  0.00  0.00    -0.170 F 
ENDBRANCH  10  12
ENDBRANCH   1   6
BRANCH   1  17
ATOM     16  O   LIG    1        2.563  -4.269  -0.751  0.00  0.00    -0.520 OA
ATOM     17  C   LIG    1        2.197  -3.569  -1.671  0.00  0.00    +0.540 C 
ATOM     18  N   LIG    1        1.749  -2.321  -1.432  0.00  0.00    -0.730 N 
ATOM     19  H   LIG    1        1.524  -1.736  -2.172  0.00  0.00    +0.410 HD
BRANCH  18  20
ATOM     20  C   LIG    1        1.601  -1.848  -0.053  0.00  0.00    +0.410 C 
BRANCH  20  21
ATOM     21  C   LIG    1        1.087  -0.431  -0.061  0.00  0.00    +0.170 A 
ATOM     22  N   LIG    1       -0.164  -0.061  -0.048  0.00  0.00    -0.260 NA
ATOM     23  N   LIG    1       -0.236   1.222  -0.059  0.00  0.00    -0.280 NA
ATOM     24  C   LIG    1        0.968   1.730  -0.078  0.00  0.00    +0.170 A 
ATOM     25  C   LIG    1        1.721   3.042  -0.094  0.00  0.00    +0.180 C 
ATOM     26  C   LIG    1        3.162   2.659   0.315  0.00  0.00    +0.070 C 
ATOM     27  C   LIG    1        3.228   1.176  -0.109  0.00  0.00    +0.300 C 
ATOM     28  N   LIG    1        1.840   0.697  -0.082  0.00  0.00    -0.490 N 
ENDBRANCH  20  21
ENDBRANCH  18  20
ENDBRANCH   1  17
TORSDOF 5
