REMARK  Name = ZINCpk00000xIjmS.0
REMARK                            x       y       z     vdW  Elec       q    Type
REMARK                         _______ _______ _______ _____ _____    ______ ____
ROOT
ATOM      1  C   LIG    1       -1.290   1.857  -3.539  0.00  0.00    -0.070 A 
ATOM      2  C   LIG    1       -2.444   2.581  -3.237  0.00  0.00    +0.020 A 
ATOM      3  C   LIG    1       -3.268   3.015  -4.255  0.00  0.00    +0.120 A 
ATOM      4  C   LIG    1       -2.958   2.725  -5.571  0.00  0.00    -0.660 A 
ATOM      5  C   LIG    1       -1.819   2.002  -5.877  0.00  0.00    +0.120 A 
ATOM      6  C   LIG    1       -0.983   1.567  -4.869  0.00  0.00    +0.070 A 
ENDROOT
BRANCH   1   8
ATOM      7  O   LIG    1        0.674   0.889  -2.721  0.00  0.00    -0.520 OA
ATOM      8  C   LIG    1       -0.400   1.393  -2.453  0.00  0.00    +0.570 C 
ATOM      9  N   LIG    1       -0.778   1.528  -1.167  0.00  0.00    -0.610 N 
ATOM     10  C   LIG    1       -0.040   1.020   0.005  0.00  0.00    +0.260 C 
ATOM     11  C   LIG    1       -1.110   0.864   1.117  0.00  0.00    +0.070 C 
ATOM     12  C   LIG    1       -2.030   2.065   0.827  0.00  0.00    -0.090 C 
ATOM     13  C   LIG    1       -3.410   2.017   1.474  0.00  0.00    +0.010 C 
ATOM     14  C   LIG    1       -2.795   2.822   2.634  0.00  0.00    +0.150 C 
ATOM     15  C   LIG    1       -1.743   3.329   1.630  0.00  0.00    +0.060 C 
ATOM     16  C   LIG    1       -1.998   2.207  -0.698  0.00  0.00    +0.270 C 
BRANCH  14  17
ATOM     17  O   LIG    1       -2.248   2.004   3.670  0.00  0.00    -0.550 OA
ATOM     18  H   LIG    1       -2.903   1.682   4.304  0.00  0.00    +0.380 HD
ENDBRANCH  14  17
ENDBRANCH   1   8
BRANCH   4  19
ATOM     19  S   LIG    1       -4.019   3.278  -6.865  0.00  0.00    +2.710 S 
ATOM     20  O   LIG    1       -3.222   3.340  -8.039  0.00  0.00    -0.950 OA
ATOM     21  O   LIG    1       -4.731   4.395  -6.350  0.00  0.00    -0.950 OA
BRANCH  19  22
ATOM     22  N   LIG    1       -5.140   2.087  -7.123  0.00  0.00    -1.010 NA
ATOM     23  C   LIG    1       -5.001   0.970  -8.068  0.00  0.00    +0.270 C 
ATOM     24  C   LIG    1       -6.295   0.134  -7.984  0.00  0.00    +0.030 C 
ATOM     25  C   LIG    1       -7.325   1.148  -7.418  0.00  0.00    +0.040 C 
ATOM     26  C   LIG    1       -6.445   1.974  -6.447  0.00  0.00    +0.270 C 
ENDBRANCH  19  22
ENDBRANCH   4  19
TORSDOF 4
