REMARK  Name = ZINCpe00000MgrTm.0
REMARK                            x       y       z     vdW  Elec       q    Type
REMARK                         _______ _______ _______ _____ _____    ______ ____
ROOT
ATOM      1  C   LIG    1        4.219   1.684  -4.598  0.00  0.00    -0.010 A 
ATOM      2  C   LIG    1        4.112   1.613  -3.251  0.00  0.00    +0.120 A 
ATOM      3  N   LIG    1        2.795   1.455  -2.985  0.00  0.00    -0.270 N 
ATOM      4  N   LIG    1        2.157   1.441  -4.103  0.00  0.00    -0.070 NA
ATOM      5  N   LIG    1        2.978   1.575  -5.084  0.00  0.00    -0.250 NA
ENDROOT
BRANCH   3   6
ATOM      6  C   LIG    1        2.197   1.328  -1.654  0.00  0.00    +0.270 C 
ATOM      7  C   LIG    1        2.931   2.277  -0.687  0.00  0.00    +0.030 C 
ATOM      8  C   LIG    1        2.690   1.925   0.793  0.00  0.00    +0.030 C 
ATOM      9  C   LIG    1        1.258   1.558   1.072  0.00  0.00    +0.010 C 
ATOM     10  C   LIG    1        1.118   0.025   0.982  0.00  0.00    +0.020 C 
ATOM     11  C   LIG    1        1.018  -0.443  -0.392  0.00  0.00    +0.000 C 
ATOM     12  C   LIG    1        2.276  -0.111  -1.220  0.00  0.00    +0.170 C 
BRANCH  12  13
ATOM     13  O   LIG    1        2.332  -0.957  -2.370  0.00  0.00    -0.550 OA
ATOM     14  H   LIG    1        2.449  -1.895  -2.163  0.00  0.00    +0.380 HD
ENDBRANCH  12  13
ENDBRANCH   3   6
BRANCH   1  15
ATOM     15  C   LIG    1        5.487   1.857  -5.394  0.00  0.00    +0.320 C 
BRANCH  15  24
ATOM     16  C   LIG    1        7.237   0.670  -6.581  0.00  0.00    +0.270 C 
ATOM     17  C   LIG    1        8.348   1.012  -5.619  0.00  0.00    +0.060 A 
ATOM     18  C   LIG    1        9.572   1.498  -5.892  0.00  0.00    -0.100 A 
ATOM     19  C   LIG    1       10.249   1.660  -4.675  0.00  0.00    +0.220 A 
ATOM     20  N   LIG    1        9.451   1.281  -3.707  0.00  0.00    -0.290 NA
ATOM     21  N   LIG    1        8.248   0.866  -4.276  0.00  0.00    -0.370 N 
ATOM     22  C   LIG    1        7.051   0.353  -3.602  0.00  0.00    +0.270 C 
ATOM     23  C   LIG    1        6.172  -0.343  -4.649  0.00  0.00    +0.240 C 
ATOM     24  N   LIG    1        5.989   0.541  -5.809  0.00  0.00    -0.520 NA
BRANCH  16  25
ATOM     25  C   LIG    1        7.091   1.785  -7.618  0.00  0.00    +0.210 C 
BRANCH  25  26
ATOM     26  O   LIG    1        6.983   3.045  -6.952  0.00  0.00    -0.560 OA
ATOM     27  H   LIG    1        6.887   3.799  -7.549  0.00  0.00    +0.380 HD
ENDBRANCH  25  26
ENDBRANCH  16  25
ENDBRANCH  15  24
ENDBRANCH   1  15
TORSDOF 6
