REMARK  Name = ZINCtV00000L6jJo.0
REMARK                            x       y       z     vdW  Elec       q    Type
REMARK                         _______ _______ _______ _____ _____    ______ ____
ROOT
ATOM      1  C   LIG    1        0.516   6.202  -4.217  0.00  0.00    +0.120 C 
ATOM      2  C   LIG    1       -0.899   6.176  -3.701  0.00  0.00    -0.070 A 
ATOM      3  C   LIG    1       -1.159   6.532  -2.380  0.00  0.00    +0.140 A 
ATOM      4  C   LIG    1       -2.454   6.506  -1.895  0.00  0.00    +0.050 A 
ATOM      5  C   LIG    1       -3.498   6.130  -2.740  0.00  0.00    -0.090 A 
ATOM      6  C   LIG    1       -3.232   5.771  -4.073  0.00  0.00    +0.050 A 
ATOM      7  O   LIG    1       -4.413   5.452  -4.647  0.00  0.00    -0.190 OA
ATOM      8  C   LIG    1       -5.423   5.581  -3.772  0.00  0.00    +0.040 A 
ATOM      9  C   LIG    1       -6.888   5.318  -4.036  0.00  0.00    +0.140 C 
ATOM     10  C   LIG    1       -7.711   5.984  -2.927  0.00  0.00    +0.040 C 
ATOM     11  C   LIG    1       -7.150   5.581  -1.560  0.00  0.00    +0.000 C 
ATOM     12  C   LIG    1       -5.781   6.244  -1.359  0.00  0.00    +0.110 C 
ATOM     13  C   LIG    1       -4.945   5.991  -2.585  0.00  0.00    -0.170 A 
ATOM     14  C   LIG    1       -1.925   5.799  -4.540  0.00  0.00    +0.060 A 
ENDROOT
BRANCH  11  15
ATOM     15  C   LIG    1       -8.108   6.041  -0.460  0.00  0.00    -0.060 C 
ATOM     16  C   LIG    1       -7.544   5.642   0.906  0.00  0.00    +0.020 C 
ATOM     17  C   LIG    1       -9.472   5.379  -0.661  0.00  0.00    +0.020 C 
ATOM     18  C   LIG    1       -8.264   7.562  -0.522  0.00  0.00    +0.020 C 
ENDBRANCH  11  15
BRANCH   3  19
ATOM     19  N   LIG    1       -0.107   6.913  -1.540  0.00  0.00    -1.050 N 
ATOM     20  H   LIG    1        0.640   7.419  -1.896  0.00  0.00    +0.430 HD
BRANCH  19  21
ATOM     21  S   LIG    1       -0.137   6.500   0.064  0.00  0.00    +2.690 S 
ATOM     22  O   LIG    1        1.116   6.898   0.604  0.00  0.00    -0.940 OA
ATOM     23  O   LIG    1       -1.383   6.955   0.573  0.00  0.00    -0.940 OA
BRANCH  21  24
ATOM     24  C   LIG    1       -0.178   4.740   0.148  0.00  0.00    -0.670 A 
ATOM     25  C   LIG    1        1.002   4.022   0.196  0.00  0.00    +0.140 A 
ATOM     26  C   LIG    1        0.970   2.642   0.264  0.00  0.00    +0.040 A 
ATOM     27  C   LIG    1       -0.244   1.979   0.282  0.00  0.00    -0.040 A 
ATOM     28  C   LIG    1       -1.425   2.697   0.227  0.00  0.00    +0.030 A 
ATOM     29 BR   LIG    1       -0.289   0.091   0.374  0.00  0.00    -0.030 Br
ATOM     30  C   LIG    1       -1.392   4.078   0.167  0.00  0.00    +0.140 A 
ENDBRANCH  21  24
ENDBRANCH  19  21
ENDBRANCH   3  19
TORSDOF 4
