REMARK  Name = ZINCkj00000y7D3o.0
REMARK                            x       y       z     vdW  Elec       q    Type
REMARK                         _______ _______ _______ _____ _____    ______ ____
ROOT
ATOM      1  C   LIG    1       -1.169   5.072   1.441  0.00  0.00    +0.150 C 
ATOM      2  C   LIG    1       -0.515   3.672   1.300  0.00  0.00    +0.100 C 
ATOM      3  C   LIG    1       -1.208   3.131   0.025  0.00  0.00    +0.150 C 
ATOM      4  N   LIG    1       -2.598   3.626   0.111  0.00  0.00    -0.480 NA
ATOM      5  C   LIG    1       -2.616   4.830   0.962  0.00  0.00    +0.220 C 
ENDROOT
BRANCH   4   6
ATOM      6  C   LIG    1       -3.107   3.901  -1.149  0.00  0.00    +0.280 C 
ATOM      7  C   LIG    1       -2.510   4.843  -1.971  0.00  0.00    -0.060 C 
ATOM      8  C   LIG    1       -3.038   5.091  -3.231  0.00  0.00    +0.430 C 
ATOM      9  N   LIG    1       -4.105   4.465  -3.670  0.00  0.00    -0.470 NA
ATOM     10  C   LIG    1       -4.736   3.547  -2.929  0.00  0.00    +0.140 C 
ATOM     11  C   LIG    1       -5.876   2.884  -3.414  0.00  0.00    +0.000 C 
ATOM     12  C   LIG    1       -6.499   1.955  -2.638  0.00  0.00    +0.140 C 
ATOM     13  C   LIG    1       -6.023   1.647  -1.366  0.00  0.00    +0.040 C 
ATOM     14  C   LIG    1       -4.920   2.269  -0.863  0.00  0.00    +0.150 C 
ATOM     15  H   LIG    1       -4.444   4.672  -4.555  0.00  0.00    +0.450 HD
ATOM     16  C   LIG    1       -4.255   3.231  -1.635  0.00  0.00    -0.070 C 
ENDBRANCH   4   6
BRANCH   3  17
ATOM     17  C   LIG    1       -1.187   1.624   0.017  0.00  0.00    +0.520 C 
ATOM     18  O   LIG    1       -2.229   1.003   0.018  0.00  0.00    -0.520 OA
ATOM     19  N   LIG    1       -0.011   0.966   0.007  0.00  0.00    -0.850 N 
ATOM     20  H   LIG    1        0.822   1.462   0.002  0.00  0.00    +0.400 HD
ATOM     21  H   LIG    1        0.002  -0.004   0.002  0.00  0.00    +0.410 HD
ENDBRANCH   3  17
BRANCH   1  23
ATOM     22  C   LIG    1       -1.076   6.922   2.963  0.00  0.00    +0.220 C 
ATOM     23  O   LIG    1       -1.150   5.504   2.803  0.00  0.00    -0.370 OA
ENDBRANCH   1  23
TORSDOF 3
