REMARK  Name = ZINCqH0000003a7u.2
REMARK                            x       y       z     vdW  Elec       q    Type
REMARK                         _______ _______ _______ _____ _____    ______ ____
ROOT
ATOM      1  N   LIG    1       -1.401   7.384   0.246  0.00  0.00    -0.720 N 
ATOM      2  H   LIG    1       -0.561   7.849   0.382  0.00  0.00    +0.400 HD
ATOM      3  C   LIG    1       -1.417   6.040   0.137  0.00  0.00    +0.570 C 
ATOM      4  O   LIG    1       -2.470   5.457  -0.034  0.00  0.00    -0.520 OA
ENDROOT
BRANCH   3   5
ATOM      5  C   LIG    1       -0.158   5.279   0.225  0.00  0.00    -0.120 A 
ATOM      6  C   LIG    1        1.063   5.935   0.307  0.00  0.00    +0.060 A 
ATOM      7  C   LIG    1        2.248   5.215   0.389  0.00  0.00    +0.010 A 
ATOM      8  C   LIG    1        2.262   3.854   0.392  0.00  0.00    +0.060 A 
ATOM      9  C   LIG    1        1.064   3.125   0.312  0.00  0.00    -0.040 A 
ATOM     10  C   LIG    1        1.063   1.719   0.314  0.00  0.00    -0.090 A 
ATOM     11  C   LIG    1       -0.120   1.046   0.234  0.00  0.00    +0.070 A 
ATOM     12  C   LIG    1       -1.329   1.731   0.145  0.00  0.00    +0.030 A 
ATOM     13  C   LIG    1       -1.364   3.094   0.147  0.00  0.00    +0.080 A 
ATOM     14 BR   LIG    1        2.692   0.766   0.425  0.00  0.00    -0.040 Br
ATOM     15  C   LIG    1       -0.168   3.817   0.227  0.00  0.00    -0.010 A 
ENDBRANCH   3   5
BRANCH   1  16
ATOM     16  C   LIG    1       -2.652   8.140   0.158  0.00  0.00    +0.180 C 
ATOM     17  C   LIG    1       -3.543   7.793   1.353  0.00  0.00    +0.040 C 
ATOM     18  C   LIG    1       -3.377   7.780  -1.140  0.00  0.00    +0.060 C 
BRANCH  16  19
ATOM     19  C   LIG    1       -2.344   9.639   0.170  0.00  0.00    +0.180 C 
BRANCH  19  23
ATOM     20  N   LIG    1        0.283  11.303  -2.689  0.00  0.00    -0.540 NA
ATOM     21  C   LIG    1       -1.094  11.814  -2.640  0.00  0.00    +0.180 C 
ATOM     22  C   LIG    1       -1.714  11.471  -1.283  0.00  0.00    +0.180 C 
ATOM     23  N   LIG    1       -1.688  10.014  -1.089  0.00  0.00    -0.530 NA
ATOM     24  C   LIG    1       -0.311   9.504  -1.139  0.00  0.00    +0.170 C 
ATOM     25  C   LIG    1        0.309   9.846  -2.496  0.00  0.00    +0.180 C 
BRANCH  20  27
ATOM     26  C   LIG    1        2.267  10.929  -4.076  0.00  0.00    +0.020 C 
ATOM     27  C   LIG    1        0.939  11.678  -3.949  0.00  0.00    +0.160 C 
ENDBRANCH  20  27
ENDBRANCH  19  23
ENDBRANCH  16  19
ENDBRANCH   1  16
TORSDOF 5
