REMARK  Name = ZINCtV000002CEpB.0
REMARK                            x       y       z     vdW  Elec       q    Type
REMARK                         _______ _______ _______ _____ _____    ______ ____
ROOT
ATOM      1  C   LIG    1       -0.804   4.187  -7.427  0.00  0.00    +0.040 C 
ATOM      2  C   LIG    1       -1.158   5.044  -6.210  0.00  0.00    +0.280 C 
ENDROOT
BRANCH   2   3
ATOM      3  C   LIG    1       -0.306   6.287  -6.206  0.00  0.00    -0.090 A 
ATOM      4  C   LIG    1        0.994   6.229  -5.738  0.00  0.00    +0.010 A 
ATOM      5  C   LIG    1        1.781   7.363  -5.736  0.00  0.00    +0.030 A 
ATOM      6  C   LIG    1        1.259   8.570  -6.197  0.00  0.00    -0.050 A 
ATOM      7  C   LIG    1       -0.053   8.624  -6.663  0.00  0.00    +0.030 A 
ATOM      8  C   LIG    1       -0.829   7.482  -6.665  0.00  0.00    +0.030 A 
BRANCH   6   9
ATOM      9  C   LIG    1        2.099   9.794  -6.193  0.00  0.00    -0.040 A 
ATOM     10  C   LIG    1        1.575  11.001  -6.655  0.00  0.00    +0.060 A 
ATOM     11  C   LIG    1        2.354  12.142  -6.652  0.00  0.00    +0.030 A 
ATOM     12  C   LIG    1        3.654  12.096  -6.191  0.00  0.00    +0.070 A 
ATOM     13  C   LIG    1        4.190  10.893  -5.725  0.00  0.00    -0.020 A 
ATOM     14  C   LIG    1        3.406   9.740  -5.722  0.00  0.00    +0.080 A 
BRANCH  13  15
ATOM     15  C   LIG    1        5.539  10.846  -5.247  0.00  0.00    +0.250 C 
ATOM     16  N   LIG    1        6.609  10.808  -4.867  0.00  0.00    -0.410 NA
ENDBRANCH  13  15
ENDBRANCH   6   9
ENDBRANCH   2   3
BRANCH   2  17
ATOM     17  N   LIG    1       -0.912   4.279  -4.986  0.00  0.00    -0.720 N 
ATOM     18  H   LIG    1       -0.069   4.373  -4.516  0.00  0.00    +0.400 HD
ATOM     19  C   LIG    1       -1.858   3.444  -4.511  0.00  0.00    +0.600 C 
ATOM     20  O   LIG    1       -2.916   3.326  -5.100  0.00  0.00    -0.530 OA
BRANCH  19  21
ATOM     21  C   LIG    1       -1.612   2.678  -3.286  0.00  0.00    -0.270 A 
ATOM     22  C   LIG    1       -2.486   1.806  -2.709  0.00  0.00    +0.110 A 
ATOM     23  C   LIG    1       -2.004   1.215  -1.553  0.00  0.00    -0.120 A 
ATOM     24  C   LIG    1       -0.768   1.600  -1.214  0.00  0.00    -0.180 A 
ATOM     25  C   LIG    1       -0.013   1.086   0.008  0.00  0.00    +0.120 C 
ATOM     26  C   LIG    1       -0.747   1.589   1.254  0.00  0.00    +0.020 C 
ATOM     27  C   LIG    1       -1.947   0.724   1.565  0.00  0.00    +0.000 C 
ATOM     28  C   LIG    1       -3.119   0.860   0.623  0.00  0.00    +0.010 C 
ATOM     29  C   LIG    1       -2.826   0.217  -0.733  0.00  0.00    +0.110 C 
ATOM     30  S   LIG    1       -0.143   2.738  -2.323  0.00  0.00    +0.180 S 
ENDBRANCH  19  21
ENDBRANCH   2  17
TORSDOF 5
