REMARK  Name = ZINCvU0000000CQH.0
REMARK                            x       y       z     vdW  Elec       q    Type
REMARK                         _______ _______ _______ _____ _____    ______ ____
ROOT
ATOM      1  N   LIG    1        3.176  -0.285  -1.244  0.00  0.00    -0.430 N 
ATOM      2  C   LIG    1        3.000   0.865  -0.319  0.00  0.00    +0.220 C 
ATOM      3  C   LIG    1        1.523   0.877   0.053  0.00  0.00    -0.030 C 
ATOM      4  C   LIG    1        1.161   1.314   1.457  0.00  0.00    +0.040 C 
ATOM      5  C   LIG    1       -0.368   1.209   1.583  0.00  0.00    +0.010 C 
ATOM      6  C   LIG    1       -0.861  -0.203   1.282  0.00  0.00    +0.010 C 
ATOM      7  C   LIG    1       -0.367  -0.698  -0.087  0.00  0.00    +0.260 C 
ATOM      8  C   LIG    1        1.147  -0.628  -0.065  0.00  0.00    -0.010 C 
ATOM      9  C   LIG    1        1.870  -0.993  -1.364  0.00  0.00    +0.230 C 
ENDROOT
BRANCH   1  13
ATOM     10  C   LIG    1        4.712   1.028  -4.520  0.00  0.00    +0.030 A 
ATOM     11  N   LIG    1        3.580   0.419  -4.660  0.00  0.00    -0.240 NA
ATOM     12  N   LIG    1        3.024  -0.041  -3.625  0.00  0.00    -0.300 NA
ATOM     13  C   LIG    1        3.627   0.140  -2.485  0.00  0.00    +0.210 A 
ATOM     14  S   LIG    1        5.125   1.016  -2.805  0.00  0.00    +0.070 S 
BRANCH  10  15
ATOM     15  C   LIG    1        5.533   1.639  -5.627  0.00  0.00    +0.150 C 
BRANCH  15  17
ATOM     16  C   LIG    1        5.948   3.718  -6.948  0.00  0.00    +0.030 C 
ATOM     17  C   LIG    1        5.115   3.098  -5.825  0.00  0.00    +0.020 C 
ENDBRANCH  15  17
ENDBRANCH  10  15
ENDBRANCH   1  13
BRANCH   7  18
ATOM     18  N   LIG    1       -0.801  -2.080  -0.305  0.00  0.00    -0.730 N 
ATOM     19  H   LIG    1       -0.220  -2.816  -0.056  0.00  0.00    +0.400 HD
ATOM     20  C   LIG    1       -2.007  -2.330  -0.853  0.00  0.00    +0.530 C 
ATOM     21  O   LIG    1       -2.772  -1.416  -1.076  0.00  0.00    -0.520 OA
BRANCH  20  22
ATOM     22  C   LIG    1       -2.405  -3.744  -1.186  0.00  0.00    +0.040 C 
BRANCH  22  23
ATOM     23  C   LIG    1       -3.410  -3.732  -2.309  0.00  0.00    -0.060 A 
ATOM     24  C   LIG    1       -4.691  -3.262  -2.085  0.00  0.00    +0.040 A 
ATOM     25  C   LIG    1       -5.611  -3.245  -3.116  0.00  0.00    +0.000 A 
ATOM     26  C   LIG    1       -5.255  -3.710  -4.368  0.00  0.00    +0.000 A 
ATOM     27  C   LIG    1       -3.976  -4.185  -4.591  0.00  0.00    +0.000 A 
ATOM     28  C   LIG    1       -3.054  -4.196  -3.561  0.00  0.00    +0.000 A 
ENDBRANCH  22  23
BRANCH  22  29
ATOM     29  C   LIG    1       -3.025  -4.404   0.047  0.00  0.00    +0.000 C 
ATOM     30  C   LIG    1       -2.067  -4.271   1.232  0.00  0.00    +0.020 C 
BRANCH  29  31
ATOM     31  C   LIG    1       -3.279  -5.885  -0.240  0.00  0.00    +0.020 C 
ATOM     32  C   LIG    1       -4.390  -6.020  -1.284  0.00  0.00    +0.010 C 
ENDBRANCH  29  31
ENDBRANCH  22  29
ENDBRANCH  20  22
ENDBRANCH   7  18
TORSDOF 8
