REMARK  Name = ZINCrg000000tWXG.0
REMARK                            x       y       z     vdW  Elec       q    Type
REMARK                         _______ _______ _______ _____ _____    ______ ____
ROOT
ATOM      1  C   LIG    1       -0.931   8.919   0.148  0.00  0.00    +0.250 C 
ENDROOT
BRANCH   1   2
ATOM      2  N   LIG    1       -0.567  10.296  -0.196  0.00  0.00    -1.090 NA
ATOM      3  H   LIG    1        0.337  10.611  -0.042  0.00  0.00    +0.440 HD
BRANCH   2   4
ATOM      4  S   LIG    1       -1.700  11.313  -0.846  0.00  0.00    +2.700 S 
ATOM      5  O   LIG    1       -2.299  10.610  -1.926  0.00  0.00    -0.950 OA
ATOM      6  O   LIG    1       -1.066  12.576  -0.998  0.00  0.00    -0.930 OA
BRANCH   4  12
ATOM      7  C   LIG    1       -2.660  12.126   1.577  0.00  0.00    +0.040 A 
ATOM      8  C   LIG    1       -3.649  12.298   2.527  0.00  0.00    +0.090 A 
ATOM      9  C   LIG    1       -4.940  11.877   2.265  0.00  0.00    +0.100 A 
ATOM     10  C   LIG    1       -5.241  11.285   1.054  0.00  0.00    +0.070 A 
ATOM     11  C   LIG    1       -4.253  11.117   0.102  0.00  0.00    +0.150 A 
ATOM     12  C   LIG    1       -2.961  11.533   0.365  0.00  0.00    -0.640 A 
BRANCH   7  14
ATOM     13  O   LIG    1       -1.038  13.215   2.867  0.00  0.00    -0.130 OA
ATOM     14  N   LIG    1       -1.278  12.577   1.857  0.00  0.00    +0.010 N 
ATOM     15  O   LIG    1       -0.381  12.309   1.078  0.00  0.00    -0.140 OA
ENDBRANCH   7  14
ENDBRANCH   4  12
ENDBRANCH   2   4
ENDBRANCH   1   2
BRANCH   1  16
ATOM     16  C   LIG    1        0.339   8.082   0.313  0.00  0.00    +0.240 C 
BRANCH  16  17
ATOM     17  O   LIG    1        1.087   8.566   1.431  0.00  0.00    -0.540 OA
ATOM     18  H   LIG    1        0.608   8.527   2.270  0.00  0.00    +0.380 HD
ENDBRANCH  16  17
BRANCH  16  19
ATOM     19  C   LIG    1       -0.041   6.619   0.548  0.00  0.00    +0.180 C 
BRANCH  19  20
ATOM     20  O   LIG    1        1.143   5.819   0.586  0.00  0.00    -0.290 OA
BRANCH  20  21
ATOM     21  C   LIG    1        0.980   4.484   0.788  0.00  0.00    +0.140 A 
ATOM     22  C   LIG    1       -0.292   3.958   0.948  0.00  0.00    -0.060 A 
ATOM     23  C   LIG    1       -0.460   2.600   1.149  0.00  0.00    +0.080 A 
ATOM     24  C   LIG    1        0.642   1.764   1.202  0.00  0.00    -0.010 A 
ATOM     25  O   LIG    1        0.747   0.415   1.389  0.00  0.00    -0.310 OA
ATOM     26  C   LIG    1        2.121   0.182   1.750  0.00  0.00    +0.430 C 
ATOM     27  O   LIG    1        2.827   1.273   1.129  0.00  0.00    -0.300 OA
ATOM     28  C   LIG    1        1.922   2.291   1.042  0.00  0.00    +0.080 A 
ATOM     29  C   LIG    1        2.088   3.651   0.836  0.00  0.00    +0.020 A 
ENDBRANCH  20  21
ENDBRANCH  19  20
ENDBRANCH  16  19
ENDBRANCH   1  16
TORSDOF 9
