REMARK  Name = ZINCqH0000008rYo.0
REMARK                            x       y       z     vdW  Elec       q    Type
REMARK                         _______ _______ _______ _____ _____    ______ ____
ROOT
ATOM      1  N   LIG    1        3.440   1.728   0.867  0.00  0.00    -1.100 NA
ATOM      2  H   LIG    1        3.424   2.695   0.944  0.00  0.00    +0.420 HD
ENDROOT
BRANCH   1   3
ATOM      3  S   LIG    1        4.543   0.847   1.732  0.00  0.00    +2.700 S 
ATOM      4  O   LIG    1        3.817  -0.201   2.359  0.00  0.00    -0.930 OA
ATOM      5  O   LIG    1        5.330   1.786   2.452  0.00  0.00    -0.920 OA
BRANCH   3   6
ATOM      6  C   LIG    1        5.623   0.079   0.572  0.00  0.00    -0.420 A 
ATOM      7  C   LIG    1        5.317  -1.177   0.081  0.00  0.00    +0.080 A 
ATOM      8  C   LIG    1        6.171  -1.770  -0.836  0.00  0.00    +0.130 A 
ATOM      9  C   LIG    1        7.311  -1.081  -1.218  0.00  0.00    -0.190 A 
ATOM     10  C   LIG    1        7.554   0.169  -0.681  0.00  0.00    +0.310 A 
ATOM     11  N   LIG    1        6.717   0.706   0.185  0.00  0.00    -0.380 NA
BRANCH   9  12
ATOM     12  C   LIG    1        8.273  -1.686  -2.208  0.00  0.00    +0.510 C 
ATOM     13  F   LIG    1        7.609  -1.928  -3.415  0.00  0.00    -0.170 F 
ATOM     14  F   LIG    1        8.769  -2.891  -1.699  0.00  0.00    -0.170 F 
ATOM     15  F   LIG    1        9.334  -0.801  -2.428  0.00  0.00    -0.170 F 
ENDBRANCH   9  12
ENDBRANCH   3   6
ENDBRANCH   1   3
BRANCH   1  17
ATOM     16  C   LIG    1        3.043   1.025  -1.442  0.00  0.00    +0.040 C 
ATOM     17  C   LIG    1        2.489   1.048  -0.016  0.00  0.00    +0.300 C 
BRANCH  17  18
ATOM     18  C   LIG    1        1.174   1.783   0.000  0.00  0.00    -0.060 A 
ATOM     19  C   LIG    1        1.156   3.166   0.007  0.00  0.00    +0.000 A 
ATOM     20  C   LIG    1       -0.049   3.844   0.022  0.00  0.00    +0.050 A 
ATOM     21  C   LIG    1       -1.238   3.141   0.029  0.00  0.00    -0.050 A 
ATOM     22  C   LIG    1       -1.223   1.754   0.017  0.00  0.00    +0.110 A 
ATOM     23  C   LIG    1       -0.013   1.076   0.008  0.00  0.00    +0.020 A 
BRANCH  22  24
ATOM     24  O   LIG    1       -2.391   1.060   0.019  0.00  0.00    -0.320 OA
BRANCH  24  25
ATOM     25  C   LIG    1       -3.599   1.823   0.029  0.00  0.00    +0.590 C 
ATOM     26  F   LIG    1       -3.646   2.636  -1.109  0.00  0.00    -0.200 F 
ATOM     27  F   LIG    1       -3.635   2.624   1.176  0.00  0.00    -0.200 F 
ENDBRANCH  24  25
ENDBRANCH  22  24
ENDBRANCH  17  18
ENDBRANCH   1  17
TORSDOF 7
