REMARK  Name = ZINCvU0000000J3s.0
REMARK                            x       y       z     vdW  Elec       q    Type
REMARK                         _______ _______ _______ _____ _____    ______ ____
ROOT
ATOM      1  C   LIG    1       -3.010   7.257  -8.125  0.00  0.00    +0.020 A 
ATOM      2  C   LIG    1       -2.727   8.602  -8.379  0.00  0.00    +0.060 A 
ATOM      3  C   LIG    1       -2.451   9.456  -7.332  0.00  0.00    -0.110 A 
ATOM      4  C   LIG    1       -2.452   8.987  -6.029  0.00  0.00    +0.060 A 
ATOM      5  C   LIG    1       -2.735   7.661  -5.761  0.00  0.00    +0.020 A 
ATOM      6  C   LIG    1       -2.147  10.905  -7.607  0.00  0.00    +0.100 C 
ATOM      7  C   LIG    1       -3.009   6.786  -6.801  0.00  0.00    +0.210 A 
ENDROOT
BRANCH   7   8
ATOM      8  N   LIG    1       -3.290   5.446  -6.534  0.00  0.00    -0.660 N 
ATOM      9  H   LIG    1       -3.000   4.757  -7.152  0.00  0.00    +0.420 HD
ATOM     10  C   LIG    1       -3.964   5.109  -5.417  0.00  0.00    +0.520 C 
ATOM     11  O   LIG    1       -4.256   5.960  -4.604  0.00  0.00    -0.510 OA
BRANCH  10  12
ATOM     12  C   LIG    1       -4.356   3.673  -5.178  0.00  0.00    +0.170 C 
BRANCH  12  13
ATOM     13  C   LIG    1       -5.094   3.565  -3.869  0.00  0.00    +0.110 A 
ATOM     14  C   LIG    1       -6.406   3.786  -3.760  0.00  0.00    -0.080 A 
ATOM     15  S   LIG    1       -6.862   3.549  -2.075  0.00  0.00    +0.140 S 
ATOM     16  C   LIG    1       -5.239   3.185  -1.676  0.00  0.00    +0.280 A 
ATOM     17  N   LIG    1       -4.496   3.245  -2.736  0.00  0.00    -0.480 NA
BRANCH  16  18
ATOM     18  N   LIG    1       -4.785   2.865  -0.402  0.00  0.00    -0.540 N 
ATOM     19  C   LIG    1       -5.639   2.800   0.789  0.00  0.00    +0.270 C 
ATOM     20  C   LIG    1       -4.669   2.849   1.996  0.00  0.00    +0.060 C 
ATOM     21  C   LIG    1       -3.371   2.285   1.375  0.00  0.00    +0.070 C 
ATOM     22  C   LIG    1       -3.507   2.575  -0.104  0.00  0.00    +0.520 C 
ATOM     23  O   LIG    1       -2.595   2.548  -0.903  0.00  0.00    -0.470 OA
ENDBRANCH  16  18
ENDBRANCH  12  13
ENDBRANCH  10  12
ENDBRANCH   7   8
BRANCH   1  25
ATOM     24  N   LIG    1       -3.282   6.843 -10.370  0.00  0.00    -0.210 NA
ATOM     25  N   LIG    1       -3.283   6.406  -9.156  0.00  0.00    -0.210 NA
BRANCH  24  30
ATOM     26  C   LIG    1       -4.412   3.325 -14.635  0.00  0.00    +0.100 C 
ATOM     27  C   LIG    1       -4.110   4.264 -13.496  0.00  0.00    -0.060 A 
ATOM     28  C   LIG    1       -3.833   5.595 -13.757  0.00  0.00    +0.000 A 
ATOM     29  C   LIG    1       -3.556   6.460 -12.719  0.00  0.00    +0.090 A 
ATOM     30  C   LIG    1       -3.556   5.991 -11.403  0.00  0.00    +0.040 A 
ATOM     31  C   LIG    1       -3.832   4.645 -11.149  0.00  0.00    +0.040 A 
ATOM     32  C   LIG    1       -4.112   3.792 -12.195  0.00  0.00    +0.000 A 
ENDBRANCH  24  30
ENDBRANCH   1  25
TORSDOF 6
