REMARK  Name = ZINCrg00001Jdv4y.0
REMARK                            x       y       z     vdW  Elec       q    Type
REMARK                         _______ _______ _______ _____ _____    ______ ____
ROOT
ATOM      1  N   LIG    1        0.654  -0.039  -6.489  0.00  0.00    -0.740 N 
ATOM      2  H   LIG    1        0.977  -0.848  -6.062  0.00  0.00    +0.400 HD
ATOM      3  C   LIG    1       -0.324   0.685  -5.908  0.00  0.00    +0.710 C 
ATOM      4  N   LIG    1       -0.853   0.284  -4.736  0.00  0.00    -0.750 N 
ATOM      5  H   LIG    1       -0.530  -0.526  -4.309  0.00  0.00    +0.400 HD
ATOM      6  O   LIG    1       -0.728   1.699  -6.443  0.00  0.00    -0.580 OA
ENDROOT
BRANCH   1   7
ATOM      7  C   LIG    1        1.230   0.397  -7.763  0.00  0.00    +0.360 C 
BRANCH   7  11
ATOM      8  C   LIG    1        4.275  -2.296  -8.928  0.00  0.00    +0.410 A 
ATOM      9  C   LIG    1        2.975  -2.543  -9.356  0.00  0.00    -0.110 A 
ATOM     10  C   LIG    1        1.967  -1.672  -8.983  0.00  0.00    +0.120 A 
ATOM     11  C   LIG    1        2.295  -0.579  -8.193  0.00  0.00    -0.230 A 
ATOM     12  C   LIG    1        3.608  -0.391  -7.810  0.00  0.00    +0.320 A 
ATOM     13  N   LIG    1        4.548  -1.242  -8.175  0.00  0.00    -0.540 NA
BRANCH   8  14
ATOM     14  N   LIG    1        5.298  -3.163  -9.296  0.00  0.00    -0.610 N 
BRANCH  14  16
ATOM     15  C   LIG    1        5.252  -3.800 -11.657  0.00  0.00    +0.020 C 
ATOM     16  C   LIG    1        5.025  -4.269 -10.218  0.00  0.00    +0.280 C 
ENDBRANCH  14  16
BRANCH  14  17
ATOM     17  C   LIG    1        6.648  -2.972  -8.761  0.00  0.00    +0.280 C 
ATOM     18  C   LIG    1        6.796  -3.759  -7.457  0.00  0.00    -0.000 C 
ENDBRANCH  14  17
ENDBRANCH   8  14
ENDBRANCH   7  11
ENDBRANCH   1   7
BRANCH   4  19
ATOM     19  C   LIG    1       -1.916   1.070  -4.105  0.00  0.00    +0.430 C 
BRANCH  19  20
ATOM     20  C   LIG    1       -2.330   0.412  -2.814  0.00  0.00    +0.160 A 
ATOM     21  N   LIG    1       -3.266  -0.489  -2.668  0.00  0.00    -0.270 NA
ATOM     22  N   LIG    1       -3.343  -0.839  -1.430  0.00  0.00    -0.280 NA
ATOM     23  C   LIG    1       -2.457  -0.186  -0.738  0.00  0.00    +0.180 A 
ATOM     24  C   LIG    1       -2.158  -0.310   0.733  0.00  0.00    +0.150 C 
ATOM     25  C   LIG    1       -2.023   1.095   1.329  0.00  0.00    +0.230 C 
ATOM     26  O   LIG    1       -0.679   1.546   1.185  0.00  0.00    -0.370 OA
ATOM     27  C   LIG    1       -0.013   1.086   0.008  0.00  0.00    +0.240 C 
ATOM     28  C   LIG    1       -0.751   1.592  -1.235  0.00  0.00    +0.270 C 
ATOM     29  N   LIG    1       -1.803   0.641  -1.592  0.00  0.00    -0.460 N 
ENDBRANCH  19  20
ENDBRANCH   4  19
TORSDOF 7
