REMARK  Name = ZINCqH0000001jDg.0
REMARK                            x       y       z     vdW  Elec       q    Type
REMARK                         _______ _______ _______ _____ _____    ______ ____
ROOT
ATOM      1  N   LIG    1       -0.769  -2.425  -1.496  0.00  0.00    -0.710 N 
ATOM      2  H   LIG    1       -1.122  -2.594  -2.384  0.00  0.00    +0.400 HD
ATOM      3  C   LIG    1       -1.565  -2.558  -0.417  0.00  0.00    +0.530 C 
ATOM      4  O   LIG    1       -1.124  -2.347   0.692  0.00  0.00    -0.510 OA
ENDROOT
BRANCH   1   5
ATOM      5  C   LIG    1        0.630  -2.023  -1.329  0.00  0.00    +0.290 C 
BRANCH   5   6
ATOM      6  C   LIG    1        1.439  -2.518  -2.500  0.00  0.00    -0.100 A 
ATOM      7  C   LIG    1        0.909  -2.468  -3.776  0.00  0.00    +0.000 A 
ATOM      8  C   LIG    1        1.652  -2.918  -4.851  0.00  0.00    +0.010 A 
ATOM      9  C   LIG    1        2.921  -3.427  -4.649  0.00  0.00    +0.000 A 
ATOM     10  C   LIG    1        3.449  -3.483  -3.373  0.00  0.00    +0.020 A 
ATOM     11  C   LIG    1        2.708  -3.029  -2.298  0.00  0.00    +0.010 A 
ENDBRANCH   5   6
BRANCH   5  12
ATOM     12  C   LIG    1        0.718  -0.497  -1.257  0.00  0.00    +0.030 C 
BRANCH  12  14
ATOM     13  C   LIG    1       -0.019   1.526   0.010  0.00  0.00    +0.000 C 
ATOM     14  C   LIG    1        0.002  -0.004   0.002  0.00  0.00    -0.020 C 
ATOM     15  C   LIG    1        0.742  -0.511   1.242  0.00  0.00    +0.020 C 
ENDBRANCH  12  14
ENDBRANCH   5  12
ENDBRANCH   1   5
BRANCH   3  16
ATOM     16  C   LIG    1       -3.004  -2.971  -0.590  0.00  0.00    +0.100 C 
BRANCH  16  17
ATOM     17  S   LIG    1       -3.804  -3.062   1.032  0.00  0.00    +0.120 S 
BRANCH  17  18
ATOM     18  C   LIG    1       -5.426  -3.551   0.546  0.00  0.00    +0.190 A 
ATOM     19  N   LIG    1       -5.843  -3.760  -0.684  0.00  0.00    -0.340 NA
ATOM     20  N   LIG    1       -7.080  -4.108  -0.686  0.00  0.00    -0.030 NA
ATOM     21  N   LIG    1       -7.538  -4.139   0.518  0.00  0.00    -0.070 NA
ATOM     22  N   LIG    1       -6.478  -3.777   1.367  0.00  0.00    -0.350 N 
BRANCH  22  23
ATOM     23  C   LIG    1       -6.505  -3.667   2.828  0.00  0.00    +0.260 C 
ATOM     24  C   LIG    1       -6.931  -5.013   3.450  0.00  0.00    +0.030 C 
ATOM     25  C   LIG    1       -7.808  -4.610   4.663  0.00  0.00    +0.040 C 
ATOM     26  C   LIG    1       -8.586  -3.382   4.129  0.00  0.00    +0.030 C 
ATOM     27  C   LIG    1       -7.557  -2.630   3.259  0.00  0.00    +0.040 C 
ENDBRANCH  22  23
ENDBRANCH  17  18
ENDBRANCH  16  17
ENDBRANCH   3  16
TORSDOF 8
