REMARK  Name = ZINCpk00000y6ySx.1
REMARK                            x       y       z     vdW  Elec       q    Type
REMARK                         _______ _______ _______ _____ _____    ______ ____
ROOT
ATOM      1  O   LIG    1        4.164   4.353  -7.122  0.00  0.00    -0.530 OA
ATOM      2  C   LIG    1        3.931   3.380  -6.436  0.00  0.00    +0.520 C 
ATOM      3  N   LIG    1        3.213   3.510  -5.303  0.00  0.00    -0.610 N 
ATOM      4  C   LIG    1        2.808   4.837  -4.821  0.00  0.00    +0.280 C 
ATOM      5  C   LIG    1        3.268   4.996  -3.369  0.00  0.00    +0.040 C 
ATOM      6  C   LIG    1        2.725   3.833  -2.536  0.00  0.00    +0.060 C 
ATOM      7  C   LIG    1        3.280   2.513  -3.077  0.00  0.00    +0.030 C 
ATOM      8  C   LIG    1        2.820   2.326  -4.526  0.00  0.00    +0.260 C 
ENDROOT
BRANCH   2   9
ATOM      9  C   LIG    1        4.445   2.025  -6.851  0.00  0.00    +0.070 C 
ATOM     10  C   LIG    1        3.457   1.375  -7.827  0.00  0.00    +0.030 C 
ATOM     11  C   LIG    1        4.094   0.126  -8.444  0.00  0.00    +0.040 C 
ATOM     12  C   LIG    1        5.216   0.544  -9.403  0.00  0.00    +0.110 C 
ATOM     13  C   LIG    1        6.115   1.519  -8.687  0.00  0.00    +0.100 A 
ATOM     14  N   LIG    1        7.360   1.898  -9.023  0.00  0.00    -0.470 N 
ATOM     15  H   LIG    1        7.863   1.589  -9.792  0.00  0.00    +0.440 HD
ATOM     16  N   LIG    1        7.803   2.819  -8.060  0.00  0.00    -0.290 NA
ATOM     17  C   LIG    1        6.847   2.984  -7.178  0.00  0.00    +0.260 A 
ATOM     18  C   LIG    1        5.773   2.178  -7.549  0.00  0.00    -0.230 A 
ENDBRANCH   2   9
BRANCH   6  19
ATOM     19  C   LIG    1        3.147   4.004  -1.099  0.00  0.00    +0.090 A 
ATOM     20  C   LIG    1        4.320   4.525  -0.669  0.00  0.00    -0.110 A 
ATOM     21  C   LIG    1        4.313   4.503   0.730  0.00  0.00    +0.230 A 
ATOM     22  N   LIG    1        3.175   3.992   1.125  0.00  0.00    -0.290 NA
ATOM     23  N   LIG    1        2.425   3.664  -0.012  0.00  0.00    -0.370 N 
BRANCH  23  24
ATOM     24  C   LIG    1        1.088   3.064  -0.018  0.00  0.00    +0.330 C 
BRANCH  24  25
ATOM     25  C   LIG    1        1.214   1.539  -0.038  0.00  0.00    +0.170 C 
BRANCH  25  26
ATOM     26  O   LIG    1       -0.089   0.953  -0.045  0.00  0.00    -0.570 OA
ATOM     27  H   LIG    1       -0.086  -0.013  -0.058  0.00  0.00    +0.390 HD
ENDBRANCH  25  26
ENDBRANCH  24  25
ENDBRANCH  23  24
ENDBRANCH   6  19
TORSDOF 5
