REMARK  Name = ZINCpk00000y6ySx.0
REMARK                            x       y       z     vdW  Elec       q    Type
REMARK                         _______ _______ _______ _____ _____    ______ ____
ROOT
ATOM      1  O   LIG    1       -1.324   5.611  -0.255  0.00  0.00    -0.530 OA
ATOM      2  C   LIG    1       -2.114   4.857   0.272  0.00  0.00    +0.520 C 
ATOM      3  N   LIG    1       -3.048   5.340   1.115  0.00  0.00    -0.610 N 
ATOM      4  C   LIG    1       -3.950   4.430   1.834  0.00  0.00    +0.260 C 
ATOM      5  C   LIG    1       -3.864   4.742   3.335  0.00  0.00    +0.030 C 
ATOM      6  C   LIG    1       -4.160   6.227   3.560  0.00  0.00    +0.060 C 
ATOM      7  C   LIG    1       -3.113   7.073   2.832  0.00  0.00    +0.040 C 
ATOM      8  C   LIG    1       -3.187   6.787   1.328  0.00  0.00    +0.280 C 
ENDROOT
BRANCH   2   9
ATOM      9  C   LIG    1       -2.053   3.379  -0.017  0.00  0.00    +0.080 C 
ATOM     10  C   LIG    1       -3.044   3.027  -1.133  0.00  0.00    +0.030 C 
ATOM     11  C   LIG    1       -2.813   1.587  -1.595  0.00  0.00    +0.040 C 
ATOM     12  C   LIG    1       -1.503   1.500  -2.386  0.00  0.00    +0.140 C 
ATOM     13  C   LIG    1       -0.413   2.152  -1.570  0.00  0.00    +0.090 A 
ATOM     14  N   LIG    1        0.875   2.044  -1.711  0.00  0.00    -0.290 NA
ATOM     15  N   LIG    1        1.490   2.826  -0.722  0.00  0.00    -0.480 N 
ATOM     16  H   LIG    1        2.445   2.932  -0.591  0.00  0.00    +0.440 HD
ATOM     17  C   LIG    1        0.517   3.407   0.016  0.00  0.00    +0.260 A 
ATOM     18  C   LIG    1       -0.666   3.009  -0.485  0.00  0.00    -0.230 A 
ENDBRANCH   2   9
BRANCH   6  19
ATOM     19  C   LIG    1       -4.113   6.531   5.035  0.00  0.00    +0.090 A 
ATOM     20  C   LIG    1       -3.005   6.825   5.754  0.00  0.00    -0.120 A 
ATOM     21  C   LIG    1       -3.397   7.040   7.080  0.00  0.00    +0.230 A 
ATOM     22  N   LIG    1       -4.694   6.880   7.154  0.00  0.00    -0.290 NA
ATOM     23  N   LIG    1       -5.169   6.563   5.875  0.00  0.00    -0.370 N 
BRANCH  23  24
ATOM     24  C   LIG    1       -6.566   6.308   5.513  0.00  0.00    +0.330 C 
BRANCH  24  25
ATOM     25  C   LIG    1       -6.870   4.817   5.671  0.00  0.00    +0.170 C 
BRANCH  25  26
ATOM     26  O   LIG    1       -8.232   4.569   5.318  0.00  0.00    -0.570 OA
ATOM     27  H   LIG    1       -8.495   3.642   5.394  0.00  0.00    +0.390 HD
ENDBRANCH  25  26
ENDBRANCH  24  25
ENDBRANCH  23  24
ENDBRANCH   6  19
TORSDOF 5
