REMARK  Name = ZINCkj000005lhbG.0
REMARK                            x       y       z     vdW  Elec       q    Type
REMARK                         _______ _______ _______ _____ _____    ______ ____
ROOT
ATOM      1  C   LIG    1       -2.170   1.064   1.264  0.00  0.00    -0.010 C 
ATOM      2  C   LIG    1       -0.729   1.579   1.267  0.00  0.00    +0.040 C 
ATOM      3  C   LIG    1       -0.013   1.086   0.008  0.00  0.00    +0.180 C 
ATOM      4  N   LIG    1       -0.723   1.572  -1.182  0.00  0.00    -0.540 NA
ATOM      5  C   LIG    1       -2.095   1.052  -1.231  0.00  0.00    +0.170 C 
ATOM      6  C   LIG    1       -2.873   1.544  -0.009  0.00  0.00    +0.060 C 
ENDROOT
BRANCH   1   7
ATOM      7  C   LIG    1       -2.909   1.604   2.491  0.00  0.00    +0.190 C 
ATOM      8  F   LIG    1       -3.007   2.997   2.400  0.00  0.00    -0.180 F 
BRANCH   7  12
ATOM      9  N   LIG    1       -4.773   0.536   3.716  0.00  0.00    -0.840 N 
ATOM     10  H   LIG    1       -5.663   0.150   3.753  0.00  0.00    +0.410 HD
ATOM     11  H   LIG    1       -4.231   0.583   4.519  0.00  0.00    +0.410 HD
ATOM     12  C   LIG    1       -4.291   1.006   2.549  0.00  0.00    +0.500 C 
ATOM     13  O   LIG    1       -4.969   0.947   1.545  0.00  0.00    -0.520 OA
ENDBRANCH   7  12
ENDBRANCH   1   7
BRANCH   4  14
ATOM     14  C   LIG    1        0.013   1.235  -2.408  0.00  0.00    +0.190 C 
BRANCH  14  15
ATOM     15  C   LIG    1       -0.616   1.964  -3.597  0.00  0.00    +0.040 C 
BRANCH  15  16
ATOM     16  C   LIG    1        0.149   1.612  -4.874  0.00  0.00    +0.250 C 
BRANCH  16  17
ATOM     17  N   LIG    1       -0.455   2.312  -6.016  0.00  0.00    -0.380 N 
ATOM     18  C   LIG    1       -1.821   1.818  -6.224  0.00  0.00    +0.250 C 
ATOM     19  C   LIG    1       -2.483   2.600  -7.360  0.00  0.00    +0.050 C 
ATOM     20  C   LIG    1       -1.669   2.412  -8.644  0.00  0.00    +0.030 C 
ATOM     21  C   LIG    1       -0.227   2.862  -8.393  0.00  0.00    +0.050 C 
ATOM     22  C   LIG    1        0.351   2.070  -7.218  0.00  0.00    +0.250 C 
ATOM     23  H   LIG    1       -0.483   3.303  -5.825  0.00  0.00    +0.420 HD
ENDBRANCH  16  17
ENDBRANCH  15  16
ENDBRANCH  14  15
ENDBRANCH   4  14
TORSDOF 6
