REMARK  Name = ZINCqH00000010xX.0
REMARK                            x       y       z     vdW  Elec       q    Type
REMARK                         _______ _______ _______ _____ _____    ______ ____
ROOT
ATOM      1  N   LIG    1       -0.688   1.641  -1.182  0.00  0.00    -1.110 NA
ATOM      2  H   LIG    1       -1.103   2.516  -1.138  0.00  0.00    +0.420 HD
ENDROOT
BRANCH   1   3
ATOM      3  S   LIG    1       -0.875   0.703  -2.534  0.00  0.00    +2.700 S 
ATOM      4  O   LIG    1        0.426   0.262  -2.899  0.00  0.00    -0.940 OA
ATOM      5  O   LIG    1       -1.725   1.428  -3.411  0.00  0.00    -0.950 OA
BRANCH   3   6
ATOM      6  C   LIG    1       -1.769  -0.737  -2.050  0.00  0.00    -0.690 A 
ATOM      7  C   LIG    1       -1.095  -1.866  -1.620  0.00  0.00    +0.160 A 
ATOM      8  C   LIG    1       -1.782  -2.993  -1.234  0.00  0.00    +0.010 A 
ATOM      9  C   LIG    1       -3.184  -3.030  -1.280  0.00  0.00    +0.190 A 
ATOM     10  N   LIG    1       -4.020  -4.076  -0.936  0.00  0.00    -0.650 N 
ATOM     11  H   LIG    1       -3.656  -4.917  -0.617  0.00  0.00    +0.420 HD
ATOM     12  C   LIG    1       -5.341  -3.906  -1.053  0.00  0.00    +0.520 A 
ATOM     13  S   LIG    1       -5.572  -2.258  -1.659  0.00  0.00    +0.020 S 
ATOM     14  O   LIG    1       -6.209  -4.720  -0.796  0.00  0.00    -0.450 OA
ATOM     15  C   LIG    1       -3.845  -1.883  -1.723  0.00  0.00    -0.170 A 
ATOM     16  C   LIG    1       -3.150  -0.749  -2.104  0.00  0.00    +0.230 A 
ENDBRANCH   3   6
ENDBRANCH   1   3
BRANCH   1  17
ATOM     17  C   LIG    1        0.104   1.148  -0.052  0.00  0.00    +0.300 C 
BRANCH  17  18
ATOM     18  C   LIG    1       -0.794   0.948   1.142  0.00  0.00    -0.110 A 
ATOM     19  C   LIG    1       -1.787   1.868   1.421  0.00  0.00    +0.060 A 
ATOM     20  C   LIG    1       -2.614   1.683   2.512  0.00  0.00    -0.010 A 
ATOM     21  C   LIG    1       -2.441   0.581   3.332  0.00  0.00    +0.100 A 
ATOM     22  C   LIG    1       -1.443  -0.337   3.055  0.00  0.00    -0.010 A 
ATOM     23  F   LIG    1       -3.246   0.401   4.402  0.00  0.00    -0.140 F 
ATOM     24  C   LIG    1       -0.620  -0.153   1.960  0.00  0.00    +0.050 A 
ENDBRANCH  17  18
BRANCH  17  26
ATOM     25  C   LIG    1        1.940   1.712   1.546  0.00  0.00    +0.030 C 
ATOM     26  C   LIG    1        1.191   2.168   0.292  0.00  0.00    -0.070 C 
ATOM     27  C   LIG    1        0.546   3.532   0.551  0.00  0.00    +0.030 C 
ATOM     28  C   LIG    1        2.173   2.282  -0.876  0.00  0.00    +0.040 C 
ENDBRANCH  17  26
ENDBRANCH   1  17
TORSDOF 5
