REMARK  Name = ZINCpk00000e9QuR.0
REMARK                            x       y       z     vdW  Elec       q    Type
REMARK                         _______ _______ _______ _____ _____    ______ ____
ROOT
ATOM      1  N   LIG    1       -3.087   5.431   1.166  0.00  0.00    -0.610 N 
ATOM      2  C   LIG    1       -2.159   5.046   0.268  0.00  0.00    +0.530 C 
ATOM      3  O   LIG    1       -1.403   5.865  -0.212  0.00  0.00    -0.510 OA
ENDROOT
BRANCH   2   4
ATOM      4  C   LIG    1       -2.059   3.599  -0.140  0.00  0.00    +0.070 C 
ATOM      5  C   LIG    1       -2.905   3.356  -1.397  0.00  0.00    +0.040 C 
ATOM      6  C   LIG    1       -2.617   1.959  -1.951  0.00  0.00    +0.040 C 
ATOM      7  C   LIG    1       -1.218   1.929  -2.579  0.00  0.00    +0.120 C 
ATOM      8  C   LIG    1       -0.239   2.497  -1.581  0.00  0.00    +0.090 A 
ATOM      9  N   LIG    1        1.058   2.389  -1.572  0.00  0.00    -0.290 NA
ATOM     10  N   LIG    1        1.545   3.076  -0.450  0.00  0.00    -0.380 N 
ATOM     11  C   LIG    1        0.487   3.599   0.212  0.00  0.00    +0.250 A 
ATOM     12  C   LIG    1        2.953   3.205  -0.063  0.00  0.00    +0.340 C 
ATOM     13  C   LIG    1       -0.625   3.258  -0.464  0.00  0.00    -0.220 A 
ENDBRANCH   2   4
BRANCH   1  14
ATOM     14  C   LIG    1       -3.254   6.851   1.484  0.00  0.00    +0.300 C 
BRANCH  14  20
ATOM     15  C   LIG    1       -5.628  10.974   0.224  0.00  0.00    +0.190 C 
ATOM     16  N   LIG    1       -5.390   9.559  -0.093  0.00  0.00    -0.540 NA
ATOM     17  C   LIG    1       -4.894   9.404  -1.468  0.00  0.00    +0.150 C 
ATOM     18  C   LIG    1       -4.716   7.915  -1.776  0.00  0.00    +0.220 C 
ATOM     19  O   LIG    1       -3.832   7.335  -0.813  0.00  0.00    -0.360 OA
ATOM     20  C   LIG    1       -4.284   7.469   0.537  0.00  0.00    +0.150 C 
ATOM     21  C   LIG    1       -4.457   8.954   0.868  0.00  0.00    +0.160 C 
ENDBRANCH  14  20
ENDBRANCH   1  14
BRANCH   1  22
ATOM     22  C   LIG    1       -3.930   4.429   1.823  0.00  0.00    +0.300 C 
BRANCH  22  23
ATOM     23  C   LIG    1       -3.241   3.942   3.100  0.00  0.00    -0.070 C 
ATOM     24  C   LIG    1       -2.828   2.470   3.162  0.00  0.00    +0.010 C 
ATOM     25  C   LIG    1       -4.014   2.968   3.991  0.00  0.00    +0.030 C 
ENDBRANCH  22  23
ENDBRANCH   1  22
TORSDOF 5
