REMARK  Name = ZINCpe00000gM28J.0
REMARK                            x       y       z     vdW  Elec       q    Type
REMARK                         _______ _______ _______ _____ _____    ______ ____
ROOT
ATOM      1  N   LIG    1        2.181  -2.120  -0.497  0.00  0.00    -0.710 N 
ATOM      2  H   LIG    1        2.792  -1.680   0.115  0.00  0.00    +0.410 HD
ATOM      3  C   LIG    1        2.579  -2.418  -1.750  0.00  0.00    +0.560 C 
ATOM      4  O   LIG    1        1.814  -2.969  -2.516  0.00  0.00    -0.530 OA
ENDROOT
BRANCH   3   5
ATOM      5  C   LIG    1        3.948  -2.074  -2.191  0.00  0.00    -0.110 A 
ATOM      6  C   LIG    1        4.829  -1.441  -1.313  0.00  0.00    +0.060 A 
ATOM      7  C   LIG    1        6.106  -1.122  -1.727  0.00  0.00    +0.050 A 
ATOM      8  C   LIG    1        6.517  -1.428  -3.011  0.00  0.00    +0.040 A 
ATOM      9  C   LIG    1        5.648  -2.058  -3.893  0.00  0.00    +0.130 A 
ATOM     10  C   LIG    1        4.365  -2.387  -3.485  0.00  0.00    +0.110 A 
BRANCH   9  11
ATOM     11  N   LIG    1        6.071  -2.367  -5.194  0.00  0.00    -0.330 N 
ATOM     12  C   LIG    1        7.307  -2.206  -5.715  0.00  0.00    +0.470 A 
ATOM     13  N   LIG    1        7.263  -2.619  -6.955  0.00  0.00    -0.330 NA
ATOM     14  N   LIG    1        6.083  -3.030  -7.253  0.00  0.00    -0.030 NA
ATOM     15  N   LIG    1        5.300  -2.915  -6.235  0.00  0.00    -0.070 NA
ENDBRANCH   9  11
ENDBRANCH   3   5
BRANCH   1  16
ATOM     16  C   LIG    1        0.825  -2.461  -0.060  0.00  0.00    +0.280 C 
BRANCH  16  17
ATOM     17  C   LIG    1        0.605  -1.950   1.365  0.00  0.00    +0.100 C 
ATOM     18  C   LIG    1       -0.848  -2.195   1.777  0.00  0.00    +0.020 C 
BRANCH  17  19
ATOM     19  N   LIG    1        0.893  -0.510   1.419  0.00  0.00    -0.530 NA
ATOM     20  C   LIG    1        0.750   0.005   2.789  0.00  0.00    +0.150 C 
ATOM     21  C   LIG    1        1.117   1.491   2.810  0.00  0.00    +0.220 C 
ATOM     22  O   LIG    1        0.290   2.194   1.878  0.00  0.00    -0.380 OA
ATOM     23  C   LIG    1        0.405   1.719   0.534  0.00  0.00    +0.230 C 
ATOM     24  C   LIG    1        0.032   0.235   0.490  0.00  0.00    +0.150 C 
ENDBRANCH  17  19
BRANCH  17  26
ATOM     25  C   LIG    1        1.331  -4.201   2.170  0.00  0.00    +0.020 C 
ATOM     26  C   LIG    1        1.538  -2.693   2.323  0.00  0.00    +0.030 C 
ENDBRANCH  17  26
ENDBRANCH  16  17
ENDBRANCH   1  16
TORSDOF 6
