REMARK  Name = ZINCrD0000075rCP.0
REMARK                            x       y       z     vdW  Elec       q    Type
REMARK                         _______ _______ _______ _____ _____    ______ ____
ROOT
ATOM      1  C   LIG    1       -6.276   6.040   0.283  0.00  0.00    +0.270 C 
ENDROOT
BRANCH   1   3
ATOM      2  O   LIG    1       -3.922   5.937   0.157  0.00  0.00    -0.480 OA
ATOM      3  C   LIG    1       -4.962   5.313   0.159  0.00  0.00    +0.520 C 
ATOM      4  N   LIG    1       -4.942   3.970   0.049  0.00  0.00    -0.670 N 
ATOM      5  H   LIG    1       -5.774   3.477  -0.027  0.00  0.00    +0.420 HD
BRANCH   4   6
ATOM      6  C   LIG    1       -3.721   3.287   0.044  0.00  0.00    +0.200 A 
ATOM      7  C   LIG    1       -2.653   3.765   0.791  0.00  0.00    +0.040 A 
ATOM      8  C   LIG    1       -1.449   3.089   0.784  0.00  0.00    +0.130 A 
ATOM      9  C   LIG    1       -1.307   1.935   0.034  0.00  0.00    -0.060 A 
ATOM     10  C   LIG    1       -2.367   1.459  -0.715  0.00  0.00    +0.130 A 
ATOM     11  C   LIG    1       -3.575   2.128  -0.708  0.00  0.00    +0.010 A 
BRANCH   9  12
ATOM     12  N   LIG    1       -0.015   1.213   0.029  0.00  0.00    +0.030 N 
ATOM     13  O   LIG    1        0.110   0.194  -0.627  0.00  0.00    -0.160 OA
ATOM     14  O   LIG    1        0.921   1.634   0.684  0.00  0.00    -0.160 OA
ENDBRANCH   9  12
ENDBRANCH   4   6
ENDBRANCH   1   3
BRANCH   1  15
ATOM     15  O   LIG    1       -6.033   7.467   0.386  0.00  0.00    -0.330 OA
BRANCH  15  16
ATOM     16  C   LIG    1       -7.108   8.262   0.505  0.00  0.00    +0.470 C 
ATOM     17  O   LIG    1       -8.216   7.781   0.521  0.00  0.00    -0.490 OA
BRANCH  16  18
ATOM     18  C   LIG    1       -6.933   9.755   0.617  0.00  0.00    +0.180 C 
BRANCH  18  19
ATOM     19  C   LIG    1       -8.284  10.412   0.737  0.00  0.00    -0.080 A 
ATOM     20  C   LIG    1       -8.960  10.814  -0.399  0.00  0.00    +0.060 A 
ATOM     21  C   LIG    1      -10.202  11.412  -0.288  0.00  0.00    +0.020 A 
ATOM     22  C   LIG    1      -10.762  11.617   0.959  0.00  0.00    +0.080 A 
ATOM     23  C   LIG    1      -10.083  11.219   2.096  0.00  0.00    -0.180 A 
ATOM     24  C   LIG    1       -8.844  10.616   1.985  0.00  0.00    +0.090 A 
BRANCH  23  25
ATOM     25  C   LIG    1      -10.693  11.441   3.455  0.00  0.00    +0.510 C 
ATOM     26  F   LIG    1      -10.257  10.442   4.332  0.00  0.00    -0.180 F 
ATOM     27  F   LIG    1      -12.088  11.396   3.353  0.00  0.00    -0.180 F 
ATOM     28  F   LIG    1      -10.301  12.693   3.943  0.00  0.00    -0.180 F 
ENDBRANCH  23  25
ENDBRANCH  18  19
ENDBRANCH  16  18
ENDBRANCH  15  16
ENDBRANCH   1  15
TORSDOF 8
