REMARK  Name = ZINCkj000005h7of.0
REMARK                            x       y       z     vdW  Elec       q    Type
REMARK                         _______ _______ _______ _____ _____    ______ ____
ROOT
ATOM      1  N   LIG    1       -2.084  -2.587   6.065  0.00  0.00    -0.750 N 
ATOM      2  H   LIG    1       -2.747  -2.779   5.384  0.00  0.00    +0.400 HD
ATOM      3  C   LIG    1       -1.309  -1.489   5.960  0.00  0.00    +0.710 C 
ATOM      4  N   LIG    1       -1.456  -0.659   4.909  0.00  0.00    -0.730 N 
ATOM      5  H   LIG    1       -2.119  -0.851   4.227  0.00  0.00    +0.400 HD
ATOM      6  O   LIG    1       -0.478  -1.247   6.814  0.00  0.00    -0.580 OA
ENDROOT
BRANCH   1   7
ATOM      7  C   LIG    1       -1.924  -3.489   7.208  0.00  0.00    +0.300 C 
BRANCH   7   8
ATOM      8  C   LIG    1       -2.917  -4.647   7.086  0.00  0.00    +0.260 C 
BRANCH   8  10
ATOM      9  C   LIG    1       -3.130  -4.849   9.467  0.00  0.00    +0.320 C 
ATOM     10  N   LIG    1       -2.757  -5.552   8.232  0.00  0.00    -0.380 N 
ATOM     11  C   LIG    1       -3.624  -6.724   8.055  0.00  0.00    +0.320 C 
ATOM     12  H   LIG    1       -1.795  -5.851   8.293  0.00  0.00    +0.430 HD
ENDBRANCH   8  10
ENDBRANCH   7   8
ENDBRANCH   1   7
BRANCH   4  13
ATOM     13  C   LIG    1       -0.614   0.535   4.794  0.00  0.00    +0.370 C 
BRANCH  13  14
ATOM     14  C   LIG    1       -0.975   1.286   3.539  0.00  0.00    +0.100 A 
ATOM     15  C   LIG    1       -1.878   2.330   3.602  0.00  0.00    -0.020 A 
ATOM     16  C   LIG    1       -2.199   3.008   2.438  0.00  0.00    +0.060 A 
ATOM     17  C   LIG    1       -1.601   2.614   1.245  0.00  0.00    -0.110 A 
ATOM     18  C   LIG    1       -1.967   3.360  -0.009  0.00  0.00    +0.080 C 
ATOM     19  C   LIG    1       -0.938   3.102  -1.108  0.00  0.00    +0.030 C 
ATOM     20  C   LIG    1       -0.741   1.587  -1.238  0.00  0.00    +0.030 C 
ATOM     21  C   LIG    1       -0.013   1.086   0.008  0.00  0.00    +0.100 C 
ATOM     22  C   LIG    1       -0.708   1.567   1.256  0.00  0.00    +0.140 A 
ATOM     23  N   LIG    1       -0.428   0.942   2.393  0.00  0.00    -0.470 NA
ENDBRANCH  13  14
ENDBRANCH   4  13
TORSDOF 5
