REMARK  Name = ZINCrg00001Jdv42.0
REMARK                            x       y       z     vdW  Elec       q    Type
REMARK                         _______ _______ _______ _____ _____    ______ ____
ROOT
ATOM      1  C   LIG    1       -0.726   1.539   1.156  0.00  0.00    +0.280 C 
ENDROOT
BRANCH   1   2
ATOM      2  C   LIG    1        0.078   1.441   2.427  0.00  0.00    +0.500 C 
ATOM      3  N   LIG    1        1.314   1.976   2.486  0.00  0.00    -0.670 N 
ATOM      4  H   LIG    1        1.713   2.362   1.691  0.00  0.00    +0.410 HD
ATOM      5  O   LIG    1       -0.387   0.880   3.397  0.00  0.00    -0.490 OA
BRANCH   3   6
ATOM      6  C   LIG    1        2.021   1.973   3.693  0.00  0.00    +0.140 A 
ATOM      7  C   LIG    1        2.853   3.037   4.015  0.00  0.00    -0.010 A 
ATOM      8  C   LIG    1        3.546   3.033   5.209  0.00  0.00    +0.030 A 
ATOM      9  C   LIG    1        3.420   1.966   6.080  0.00  0.00    -0.010 A 
ATOM     10  C   LIG    1        2.595   0.903   5.761  0.00  0.00    +0.030 A 
ATOM     11  C   LIG    1        1.895   0.903   4.570  0.00  0.00    +0.020 A 
ENDBRANCH   3   6
ENDBRANCH   1   2
BRANCH   1  12
ATOM     12  N   LIG    1       -2.023   0.886   1.348  0.00  0.00    -1.080 NA
ATOM     13  H   LIG    1       -2.114  -0.068   1.194  0.00  0.00    +0.420 HD
BRANCH  12  14
ATOM     14  S   LIG    1       -3.336   1.775   1.827  0.00  0.00    +2.700 S 
ATOM     15  O   LIG    1       -2.909   2.552   2.938  0.00  0.00    -0.940 OA
ATOM     16  O   LIG    1       -4.432   0.873   1.884  0.00  0.00    -0.950 OA
BRANCH  14  20
ATOM     17  C   LIG    1       -4.261   4.705  -1.504  0.00  0.00    -0.120 A 
ATOM     18  C   LIG    1       -4.925   3.476  -1.445  0.00  0.00    +0.060 A 
ATOM     19  C   LIG    1       -4.638   2.590  -0.428  0.00  0.00    +0.130 A 
ATOM     20  C   LIG    1       -3.695   2.914   0.531  0.00  0.00    -0.630 A 
ATOM     21  C   LIG    1       -3.037   4.130   0.482  0.00  0.00    +0.100 A 
ATOM     22  C   LIG    1       -3.309   5.025  -0.531  0.00  0.00    +0.050 A 
BRANCH  17  24
ATOM     23  C   LIG    1       -3.843   6.980  -2.647  0.00  0.00    +0.080 C 
ATOM     24  C   LIG    1       -4.561   5.657  -2.586  0.00  0.00    +0.390 C 
ATOM     25  O   LIG    1       -5.387   5.376  -3.429  0.00  0.00    -0.450 OA
ENDBRANCH  17  24
ENDBRANCH  14  20
ENDBRANCH  12  14
ENDBRANCH   1  12
BRANCH   1  26
ATOM     26  C   LIG    1        0.030   0.848   0.020  0.00  0.00    +0.080 C 
BRANCH  26  27
ATOM     27  C   LIG    1       -0.733   1.019  -1.268  0.00  0.00    +0.520 C 
ATOM     28  O   LIG    1       -1.821   1.555  -1.262  0.00  0.00    -0.520 OA
ATOM     29  N   LIG    1       -0.207   0.575  -2.427  0.00  0.00    -0.850 N 
ATOM     30  H   LIG    1       -0.699   0.685  -3.256  0.00  0.00    +0.410 HD
ATOM     31  H   LIG    1        0.662   0.146  -2.432  0.00  0.00    +0.400 HD
ENDBRANCH  26  27
ENDBRANCH   1  26
TORSDOF 8
