REMARK  Name = ZINCpe000000Uh9I.0
REMARK                            x       y       z     vdW  Elec       q    Type
REMARK                         _______ _______ _______ _____ _____    ______ ____
ROOT
ATOM      1  C   LIG    1        0.880  -1.584   4.633  0.00  0.00    +0.370 C 
ENDROOT
BRANCH   1   4
ATOM      2  N   LIG    1        0.711  -0.489   1.189  0.00  0.00    -0.540 N 
ATOM      3  C   LIG    1        0.151  -0.767   2.382  0.00  0.00    +0.690 A 
ATOM      4  N   LIG    1        1.099  -1.190   3.240  0.00  0.00    -0.530 N 
ATOM      5  C   LIG    1        2.324  -1.187   2.576  0.00  0.00    +0.100 A 
ATOM      6  C   LIG    1        3.614  -1.520   2.959  0.00  0.00    +0.030 A 
ATOM      7  C   LIG    1        4.650  -1.410   2.052  0.00  0.00    +0.020 A 
ATOM      8  C   LIG    1        4.406  -0.970   0.763  0.00  0.00    +0.020 A 
ATOM      9  C   LIG    1        3.124  -0.636   0.372  0.00  0.00    +0.030 A 
ATOM     10  O   LIG    1       -1.031  -0.652   2.645  0.00  0.00    -0.550 OA
ATOM     11  C   LIG    1        2.077  -0.748   1.274  0.00  0.00    +0.100 A 
BRANCH   2  13
ATOM     12  C   LIG    1       -0.019   1.526   0.010  0.00  0.00    +0.030 C 
ATOM     13  C   LIG    1        0.002  -0.004   0.002  0.00  0.00    +0.310 C 
ENDBRANCH   2  13
ENDBRANCH   1   4
BRANCH   1  14
ATOM     14  C   LIG    1        0.582  -3.060   4.696  0.00  0.00    +0.500 C 
ATOM     15  N   LIG    1        0.345  -3.650   5.885  0.00  0.00    -0.600 N 
ATOM     16  C   LIG    1        0.379  -2.868   7.128  0.00  0.00    +0.270 C 
ATOM     17  C   LIG    1        1.338  -3.538   8.111  0.00  0.00    +0.030 C 
ATOM     18  C   LIG    1        0.932  -5.001   8.299  0.00  0.00    +0.070 C 
ATOM     19  C   LIG    1        1.022  -5.734   6.959  0.00  0.00    -0.450 C 
ATOM     20  C   LIG    1        0.054  -5.088   5.962  0.00  0.00    +0.320 C 
ATOM     21  O   LIG    1        0.556  -3.718   3.677  0.00  0.00    -0.520 OA
BRANCH  19  22
ATOM     22  S   LIG    1        0.578  -7.478   7.190  0.00  0.00    +2.430 S 
ATOM     23  O   LIG    1       -0.789  -7.551   7.569  0.00  0.00    -0.930 OA
ATOM     24  O   LIG    1        1.560  -8.089   8.015  0.00  0.00    -0.930 OA
ATOM     25  C   LIG    1        0.747  -8.134   5.507  0.00  0.00    -0.270 C 
ENDBRANCH  19  22
ENDBRANCH   1  14
TORSDOF 4
