REMARK  Name = ZINCrH000004rwsa.0
REMARK                            x       y       z     vdW  Elec       q    Type
REMARK                         _______ _______ _______ _____ _____    ______ ____
ROOT
ATOM      1  C   LIG    1        8.502   3.080   0.008  0.00  0.00    +0.380 C 
ENDROOT
BRANCH   1   2
ATOM      2  N   LIG    1        9.941   2.810  -0.046  0.00  0.00    -0.480 N 
ATOM      3  C   LIG    1       10.647   2.511  -1.155  0.00  0.00    +0.480 A 
ATOM      4  N   LIG    1       11.932   2.334  -0.785  0.00  0.00    -0.470 N 
ATOM      5  H   LIG    1       12.671   2.109  -1.372  0.00  0.00    +0.470 HD
ATOM      6  N   LIG    1       12.004   2.535   0.600  0.00  0.00    -0.260 NA
ATOM      7  S   LIG    1       10.024   2.377  -2.744  0.00  0.00    -0.560 S 
ATOM      8  C   LIG    1       10.808   2.825   1.029  0.00  0.00    +0.330 A 
BRANCH   8   9
ATOM      9  C   LIG    1       10.440   3.117   2.432  0.00  0.00    -0.050 A 
ATOM     10  C   LIG    1       11.412   3.547   3.336  0.00  0.00    +0.080 A 
ATOM     11  C   LIG    1       11.062   3.823   4.641  0.00  0.00    +0.020 A 
ATOM     12  C   LIG    1        9.752   3.664   5.057  0.00  0.00    -0.050 A 
ATOM     13  C   LIG    1        8.784   3.233   4.167  0.00  0.00    +0.020 A 
ATOM     14  C   LIG    1        9.377   3.963   6.486  0.00  0.00    +0.100 C 
ATOM     15  C   LIG    1        9.121   2.959   2.858  0.00  0.00    +0.030 A 
ENDBRANCH   8   9
ENDBRANCH   1   2
BRANCH   1  18
ATOM     16  N   LIG    1        6.405   1.782   0.197  0.00  0.00    -0.720 N 
ATOM     17  H   LIG    1        5.920   2.621   0.167  0.00  0.00    +0.410 HD
ATOM     18  C   LIG    1        7.751   1.779   0.130  0.00  0.00    +0.500 C 
ATOM     19  O   LIG    1        8.358   0.730   0.168  0.00  0.00    -0.510 OA
BRANCH  16  20
ATOM     20  C   LIG    1        5.675   0.517   0.315  0.00  0.00    +0.310 C 
BRANCH  20  21
ATOM     21  C   LIG    1        4.173   0.799   0.372  0.00  0.00    +0.070 C 
BRANCH  21  22
ATOM     22  S   LIG    1        3.269  -0.767   0.518  0.00  0.00    -0.090 S 
BRANCH  22  27
ATOM     23  C   LIG    1       -2.499   1.004   0.691  0.00  0.00    +0.090 C 
ATOM     24  C   LIG    1       -1.059   0.562   0.648  0.00  0.00    -0.090 A 
ATOM     25  C   LIG    1       -0.749  -0.784   0.714  0.00  0.00    +0.030 A 
ATOM     26  C   LIG    1        0.570  -1.193   0.681  0.00  0.00    +0.040 A 
ATOM     27  C   LIG    1        1.585  -0.250   0.569  0.00  0.00    -0.090 A 
ATOM     28  C   LIG    1        1.269   1.101   0.497  0.00  0.00    -0.010 A 
ATOM     29  C   LIG    1       -0.051   1.503   0.536  0.00  0.00    +0.030 A 
ENDBRANCH  22  27
ENDBRANCH  21  22
ENDBRANCH  20  21
ENDBRANCH  16  20
ENDBRANCH   1  18
TORSDOF 7
