REMARK  Name = ZINCqH0000036SdZ.0
REMARK                            x       y       z     vdW  Elec       q    Type
REMARK                         _______ _______ _______ _____ _____    ______ ____
ROOT
ATOM      1  N   LIG    1       -1.910   0.195  -1.974  0.00  0.00    -0.740 N 
ATOM      2  H   LIG    1       -1.401  -0.409  -1.411  0.00  0.00    +0.390 HD
ENDROOT
BRANCH   1   7
ATOM      3  C   LIG    1       -3.689  -1.449   1.900  0.00  0.00    +0.030 C 
ATOM      4  C   LIG    1       -3.669  -0.196   1.023  0.00  0.00    -0.010 C 
ATOM      5  C   LIG    1       -4.207  -0.538  -0.368  0.00  0.00    +0.030 C 
ATOM      6  C   LIG    1       -4.186   0.716  -1.245  0.00  0.00    +0.030 C 
ATOM      7  C   LIG    1       -2.750   1.230  -1.366  0.00  0.00    +0.240 C 
ATOM      8  C   LIG    1       -2.212   1.572   0.025  0.00  0.00    +0.270 C 
ATOM      9  C   LIG    1       -2.233   0.318   0.902  0.00  0.00    +0.020 C 
BRANCH   8  10
ATOM     10  N   LIG    1       -0.837   2.064  -0.091  0.00  0.00    -0.370 N 
ATOM     11  C   LIG    1        0.283   1.322  -0.144  0.00  0.00    +0.470 A 
ATOM     12  N   LIG    1        1.303   2.134  -0.252  0.00  0.00    -0.540 NA
ATOM     13  C   LIG    1        0.877   3.396  -0.265  0.00  0.00    +0.420 A 
ATOM     14  N   LIG    1       -0.427   3.405  -0.166  0.00  0.00    -0.320 NA
ENDBRANCH   8  10
ENDBRANCH   1   7
BRANCH   1  15
ATOM     15  C   LIG    1       -1.843   0.077  -3.364  0.00  0.00    +0.230 A 
ATOM     16  C   LIG    1       -2.577   0.938  -4.171  0.00  0.00    -0.060 A 
ATOM     17  C   LIG    1       -2.506   0.824  -5.546  0.00  0.00    +0.070 A 
ATOM     18  C   LIG    1       -1.715  -0.151  -6.122  0.00  0.00    -0.040 A 
ATOM     19  C   LIG    1       -0.984  -1.017  -5.321  0.00  0.00    +0.140 A 
ATOM     20  C   LIG    1       -1.048  -0.903  -3.941  0.00  0.00    -0.070 A 
BRANCH  19  21
ATOM     21  O   LIG    1       -0.206  -1.976  -5.889  0.00  0.00    -0.230 OA
BRANCH  21  22
ATOM     22  C   LIG    1       -0.590  -3.268  -5.754  0.00  0.00    +0.500 A 
ATOM     23  N   LIG    1       -1.750  -3.541  -5.178  0.00  0.00    -0.550 NA
ATOM     24  C   LIG    1       -2.157  -4.791  -5.034  0.00  0.00    +0.350 A 
ATOM     25  C   LIG    1       -1.348  -5.821  -5.486  0.00  0.00    -0.110 A 
ATOM     26  C   LIG    1       -0.137  -5.500  -6.080  0.00  0.00    +0.370 A 
ATOM     27  N   LIG    1        0.206  -4.228  -6.196  0.00  0.00    -0.520 NA
ENDBRANCH  21  22
ENDBRANCH  19  21
ENDBRANCH   1  15
TORSDOF 5
