REMARK  Name = ZINCnE00000hdaln.0
REMARK                            x       y       z     vdW  Elec       q    Type
REMARK                         _______ _______ _______ _____ _____    ______ ____
ROOT
ATOM      1  C   LIG    1        5.025  -3.915  -1.317  0.00  0.00    +0.050 C 
ATOM      2  C   LIG    1        4.173  -4.060  -0.055  0.00  0.00    +0.220 C 
ATOM      3  C   LIG    1        3.444  -5.414  -0.053  0.00  0.00    +0.100 C 
ATOM      4  C   LIG    1        1.975  -5.055  -0.038  0.00  0.00    -0.140 A 
ATOM      5  C   LIG    1        0.848  -5.854  -0.030  0.00  0.00    +0.050 A 
ATOM      6  C   LIG    1       -0.410  -5.279  -0.014  0.00  0.00    -0.020 A 
ATOM      7  C   LIG    1       -0.537  -3.903  -0.007  0.00  0.00    +0.050 A 
ATOM      8  C   LIG    1        0.585  -3.102  -0.015  0.00  0.00    -0.020 A 
ATOM      9  C   LIG    1        1.858  -3.674  -0.025  0.00  0.00    +0.150 A 
ATOM     10  N   LIG    1        3.110  -3.051  -0.040  0.00  0.00    -0.550 N 
ATOM     11  C   LIG    1        3.310  -1.719  -0.036  0.00  0.00    +0.550 C 
ATOM     12  O   LIG    1        4.439  -1.275  -0.044  0.00  0.00    -0.490 OA
ENDROOT
BRANCH  11  13
ATOM     13  C   LIG    1        2.131  -0.780  -0.020  0.00  0.00    -0.020 C 
BRANCH  13  14
ATOM     14  S   LIG    1        2.723   0.931  -0.018  0.00  0.00    +0.110 S 
BRANCH  14  15
ATOM     15  C   LIG    1        1.182   1.787   0.000  0.00  0.00    -0.090 A 
ATOM     16  C   LIG    1       -0.013   1.076   0.008  0.00  0.00    -0.050 A 
ATOM     17  C   LIG    1       -1.216   1.748   0.017  0.00  0.00    +0.000 A 
ATOM     18  C   LIG    1       -1.248   3.135   0.030  0.00  0.00    -0.030 A 
ATOM     19  C   LIG    1       -0.076   3.858   0.023  0.00  0.00    +0.060 A 
ATOM     20  C   LIG    1        1.155   3.193   0.008  0.00  0.00    -0.120 A 
BRANCH  20  21
ATOM     21  C   LIG    1        2.409   3.958   0.000  0.00  0.00    +0.520 C 
ATOM     22  O   LIG    1        3.483   3.372  -0.012  0.00  0.00    -0.650 OA
ATOM     23  O   LIG    1        2.380   5.181   0.007  0.00  0.00    -0.680 OA
ENDBRANCH  20  21
ENDBRANCH  14  15
ENDBRANCH  13  14
ENDBRANCH  11  13
TORSDOF 4
