REMARK  Name = ZINCpe00000MJL3a.0
REMARK                            x       y       z     vdW  Elec       q    Type
REMARK                         _______ _______ _______ _____ _____    ______ ____
ROOT
ATOM      1  C   LIG    1       -0.193  -4.149  -2.618  0.00  0.00    +0.250 C 
ATOM      2  C   LIG    1       -1.607  -4.682  -2.369  0.00  0.00    -0.010 C 
ATOM      3  C   LIG    1       -1.591  -6.210  -2.457  0.00  0.00    +0.220 C 
ATOM      4  O   LIG    1       -1.098  -6.606  -3.738  0.00  0.00    -0.370 OA
ATOM      5  C   LIG    1        0.238  -6.177  -4.008  0.00  0.00    +0.220 C 
ATOM      6  C   LIG    1        0.295  -4.647  -3.982  0.00  0.00    +0.210 C 
ENDROOT
BRANCH   1   8
ATOM      7  C   LIG    1       -0.109  -2.015  -1.445  0.00  0.00    +0.520 C 
ATOM      8  N   LIG    1       -0.213  -2.684  -2.610  0.00  0.00    -0.730 N 
ATOM      9  H   LIG    1       -0.300  -2.195  -3.444  0.00  0.00    +0.400 HD
ATOM     10  O   LIG    1       -0.000  -2.626  -0.403  0.00  0.00    -0.530 OA
BRANCH   7  11
ATOM     11  C   LIG    1       -0.130  -0.508  -1.437  0.00  0.00    +0.040 C 
BRANCH  11  12
ATOM     12  C   LIG    1        0.002  -0.004   0.002  0.00  0.00    +0.130 C 
BRANCH  12  15
ATOM     13  C   LIG    1       -2.551   1.803   0.023  0.00  0.00    +0.140 C 
ATOM     14  C   LIG    1       -1.123   2.284   0.019  0.00  0.00    +0.090 A 
ATOM     15  C   LIG    1       -0.018   1.503   0.010  0.00  0.00    -0.240 A 
ATOM     16  C   LIG    1        1.101   2.341   0.004  0.00  0.00    +0.230 A 
ATOM     17  N   LIG    1        0.684   3.581   0.014  0.00  0.00    -0.300 NA
ATOM     18  N   LIG    1       -0.717   3.571   0.027  0.00  0.00    -0.370 N 
ATOM     19  C   LIG    1       -1.587   4.749   0.041  0.00  0.00    +0.350 C 
ENDBRANCH  12  15
ENDBRANCH  11  12
ENDBRANCH   7  11
ENDBRANCH   1   8
BRANCH   6  20
ATOM     20  N   LIG    1       -0.565  -4.107  -5.037  0.00  0.00    -0.700 N 
ATOM     21  H   LIG    1       -1.478  -3.849  -4.835  0.00  0.00    +0.410 HD
BRANCH  20  22
ATOM     22  C   LIG    1       -0.075  -3.964  -6.325  0.00  0.00    +0.440 A 
ATOM     23  C   LIG    1        1.239  -4.326  -6.629  0.00  0.00    -0.160 A 
ATOM     24  C   LIG    1        1.679  -4.168  -7.928  0.00  0.00    +0.350 A 
ATOM     25  N   LIG    1        0.850  -3.674  -8.836  0.00  0.00    -0.560 NA
ATOM     26  C   LIG    1       -0.384  -3.337  -8.517  0.00  0.00    +0.540 A 
ATOM     27  N   LIG    1       -0.847  -3.475  -7.292  0.00  0.00    -0.580 NA
ENDBRANCH  20  22
ENDBRANCH   6  20
TORSDOF 6
