REMARK  Name = ZINCkj00000y7JNL.0
REMARK                            x       y       z     vdW  Elec       q    Type
REMARK                         _______ _______ _______ _____ _____    ______ ____
ROOT
ATOM      1  N   LIG    1        4.324   1.282   2.345  0.00  0.00    -0.520 N 
ATOM      2  H   LIG    1        4.438   0.298   2.155  0.00  0.00    +0.430 HD
ATOM      3  H   LIG    1        3.796   1.401   3.197  0.00  0.00    +0.430 HD
ENDROOT
BRANCH   1   4
ATOM      4  C   LIG    1        5.644   1.909   2.495  0.00  0.00    +0.380 C 
BRANCH   4   8
ATOM      5  C   LIG    1        7.755  -0.213   4.777  0.00  0.00    -0.160 A 
ATOM      6  C   LIG    1        7.368   0.563   5.825  0.00  0.00    +0.000 A 
ATOM      7  S   LIG    1        6.308   1.794   5.308  0.00  0.00    +0.250 S 
ATOM      8  C   LIG    1        6.381   1.259   3.638  0.00  0.00    -0.320 A 
ATOM      9  C   LIG    1        7.172   0.199   3.522  0.00  0.00    +0.150 A 
BRANCH   5  13
ATOM     10  N   LIG    1        9.170  -1.685   6.119  0.00  0.00    -0.840 N 
ATOM     11  H   LIG    1        9.772  -2.439   6.206  0.00  0.00    +0.420 HD
ATOM     12  H   LIG    1        8.927  -1.165   6.900  0.00  0.00    +0.400 HD
ATOM     13  C   LIG    1        8.670  -1.358   4.910  0.00  0.00    +0.580 C 
ATOM     14  O   LIG    1        8.975  -2.010   3.930  0.00  0.00    -0.530 OA
ENDBRANCH   5  13
ENDBRANCH   4   8
ENDBRANCH   1   4
BRANCH   1  15
ATOM     15  C   LIG    1        3.605   1.916   1.232  0.00  0.00    +0.290 C 
BRANCH  15  16
ATOM     16  C   LIG    1        2.230   1.264   1.075  0.00  0.00    -0.020 C 
ATOM     17  C   LIG    1        1.432   2.005  -0.001  0.00  0.00    +0.070 C 
ATOM     18  C   LIG    1       -0.018   1.506   0.010  0.00  0.00    +0.170 C 
ATOM     19  C   LIG    1        0.002  -0.004   0.002  0.00  0.00    +0.200 A 
ATOM     20  N   LIG    1       -0.984  -0.806  -0.277  0.00  0.00    -0.480 NA
ATOM     21  C   LIG    1       -0.562  -2.077  -0.174  0.00  0.00    +0.160 A 
ATOM     22  C   LIG    1        0.738  -2.059   0.183  0.00  0.00    +0.130 A 
ATOM     23  N   LIG    1        1.095  -0.748   0.296  0.00  0.00    -0.470 N 
ATOM     24  C   LIG    1        2.404  -0.203   0.664  0.00  0.00    +0.290 C 
ENDBRANCH  15  16
ENDBRANCH   1  15
TORSDOF 5
