REMARK  Name = ZINCrH000004t5lo.0
REMARK                            x       y       z     vdW  Elec       q    Type
REMARK                         _______ _______ _______ _____ _____    ______ ____
ROOT
ATOM      1  N   LIG    1        1.789   2.872   3.469  0.00  0.00    -0.720 N 
ATOM      2  H   LIG    1        1.811   2.858   4.438  0.00  0.00    +0.400 HD
ATOM      3  C   LIG    1        2.172   3.978   2.801  0.00  0.00    +0.710 C 
ATOM      4  N   LIG    1        2.586   5.066   3.480  0.00  0.00    -0.740 N 
ATOM      5  H   LIG    1        2.609   5.052   4.450  0.00  0.00    +0.400 HD
ATOM      6  O   LIG    1        2.144   3.994   1.585  0.00  0.00    -0.580 OA
ENDROOT
BRANCH   1   7
ATOM      7  C   LIG    1        1.339   1.689   2.730  0.00  0.00    +0.410 C 
BRANCH   7   8
ATOM      8  C   LIG    1        1.554   0.459   3.573  0.00  0.00    -0.070 A 
ATOM      9  C   LIG    1        1.299   0.498   4.931  0.00  0.00    +0.030 A 
ATOM     10  C   LIG    1        1.492  -0.632   5.705  0.00  0.00    +0.050 A 
ATOM     11  C   LIG    1        1.949  -1.799   5.123  0.00  0.00    -0.010 A 
ATOM     12  C   LIG    1        2.210  -1.838   3.763  0.00  0.00    +0.100 A 
ATOM     13  F   LIG    1        2.657  -2.978   3.193  0.00  0.00    -0.140 F 
ATOM     14  C   LIG    1        2.012  -0.708   2.989  0.00  0.00    +0.000 A 
ENDBRANCH   7   8
BRANCH   7  20
ATOM     15  C   LIG    1       -0.013   1.086   0.008  0.00  0.00    +0.330 C 
ATOM     16  N   LIG    1       -0.698   1.558   1.213  0.00  0.00    -0.450 N 
ATOM     17  C   LIG    1       -2.037   1.816   1.338  0.00  0.00    +0.130 A 
ATOM     18  C   LIG    1       -2.239   2.224   2.606  0.00  0.00    +0.140 A 
ATOM     19  N   LIG    1       -1.054   2.224   3.235  0.00  0.00    -0.470 NA
ATOM     20  C   LIG    1       -0.127   1.827   2.407  0.00  0.00    +0.190 A 
ENDBRANCH   7  20
ENDBRANCH   1   7
BRANCH   4  21
ATOM     21  C   LIG    1        3.003   6.268   2.754  0.00  0.00    +0.320 C 
BRANCH  21  22
ATOM     22  C   LIG    1        3.423   7.347   3.753  0.00  0.00    +0.070 C 
BRANCH  22  23
ATOM     23  S   LIG    1        3.939   8.836   2.854  0.00  0.00    -0.090 S 
BRANCH  23  24
ATOM     24  C   LIG    1        4.379   9.948   4.149  0.00  0.00    -0.090 A 
ATOM     25  C   LIG    1        4.266   9.552   5.476  0.00  0.00    -0.010 A 
ATOM     26  C   LIG    1        4.617  10.424   6.487  0.00  0.00    +0.030 A 
ATOM     27  C   LIG    1        5.070  11.694   6.181  0.00  0.00    +0.010 A 
ATOM     28  C   LIG    1        5.179  12.094   4.861  0.00  0.00    +0.030 A 
ATOM     29  C   LIG    1        4.835  11.225   3.845  0.00  0.00    +0.030 A 
ENDBRANCH  23  24
ENDBRANCH  22  23
ENDBRANCH  21  22
ENDBRANCH   4  21
TORSDOF 7
