REMARK  Name = ZINCrH000004ofyi.0
REMARK                            x       y       z     vdW  Elec       q    Type
REMARK                         _______ _______ _______ _____ _____    ______ ____
ROOT
ATOM      1  N   LIG    1        2.764   5.845   0.895  0.00  0.00    -0.730 N 
ATOM      2  H   LIG    1        1.825   5.694   1.089  0.00  0.00    +0.410 HD
ATOM      3  C   LIG    1        3.408   6.888   1.455  0.00  0.00    +0.520 C 
ATOM      4  O   LIG    1        4.582   7.076   1.213  0.00  0.00    -0.530 OA
ENDROOT
BRANCH   1   6
ATOM      5  C   LIG    1        3.473   5.514  -1.422  0.00  0.00    +0.050 C 
ATOM      6  C   LIG    1        3.481   4.938  -0.004  0.00  0.00    +0.350 C 
BRANCH   6   7
ATOM      7  C   LIG    1        2.804   3.592  -0.005  0.00  0.00    +0.020 A 
ATOM      8  C   LIG    1        3.441   2.413  -0.018  0.00  0.00    -0.020 A 
ATOM      9  C   LIG    1        2.395   1.383  -0.013  0.00  0.00    -0.130 A 
ATOM     10  C   LIG    1        2.400  -0.011  -0.021  0.00  0.00    +0.060 A 
ATOM     11  C   LIG    1        1.204  -0.696  -0.014  0.00  0.00    +0.000 A 
ATOM     12  C   LIG    1        0.002  -0.004   0.002  0.00  0.00    +0.050 A 
ATOM     13  C   LIG    1       -0.017   1.374   0.010  0.00  0.00    +0.020 A 
ATOM     14  C   LIG    1        1.177   2.084   0.002  0.00  0.00    +0.060 A 
ATOM     15  O   LIG    1        1.473   3.400   0.007  0.00  0.00    -0.190 OA
ENDBRANCH   6   7
ENDBRANCH   1   6
BRANCH   3  16
ATOM     16  C   LIG    1        2.671   7.821   2.380  0.00  0.00    +0.070 C 
BRANCH  16  17
ATOM     17  C   LIG    1        3.625   8.910   2.873  0.00  0.00    +0.300 C 
BRANCH  17  18
ATOM     18  N   LIG    1        2.908   9.817   3.773  0.00  0.00    -1.120 NA
ATOM     19  H   LIG    1        1.938   9.807   3.801  0.00  0.00    +0.420 HD
BRANCH  18  20
ATOM     20  S   LIG    1        3.752  10.860   4.744  0.00  0.00    +2.700 S 
ATOM     21  O   LIG    1        4.761  10.088   5.380  0.00  0.00    -0.950 OA
ATOM     22  O   LIG    1        2.785  11.615   5.459  0.00  0.00    -0.950 OA
BRANCH  20  23
ATOM     23  C   LIG    1        4.588  11.995   3.687  0.00  0.00    -0.670 A 
ATOM     24  C   LIG    1        5.864  11.712   3.239  0.00  0.00    +0.140 A 
ATOM     25  C   LIG    1        6.518  12.600   2.405  0.00  0.00    +0.040 A 
ATOM     26  C   LIG    1        5.898  13.777   2.028  0.00  0.00    -0.040 A 
ATOM     27  C   LIG    1        4.623  14.064   2.481  0.00  0.00    +0.030 A 
ATOM     28 BR   LIG    1        6.795  14.997   0.894  0.00  0.00    -0.030 Br
ATOM     29  C   LIG    1        3.968  13.172   3.310  0.00  0.00    +0.140 A 
ENDBRANCH  20  23
ENDBRANCH  18  20
ENDBRANCH  17  18
ENDBRANCH  16  17
ENDBRANCH   3  16
TORSDOF 7
