REMARK  Name = ZINCrH00000No4Vp.0
REMARK                            x       y       z     vdW  Elec       q    Type
REMARK                         _______ _______ _______ _____ _____    ______ ____
ROOT
ATOM      1  N   LIG    1        1.270  -1.846   0.333  0.00  0.00    -0.580 N 
ENDROOT
BRANCH   1   2
ATOM      2  C   LIG    1        1.400  -0.471   0.441  0.00  0.00    +0.440 A 
ATOM      3  C   LIG    1        2.664   0.122   0.464  0.00  0.00    -0.120 A 
ATOM      4  C   LIG    1        2.741   1.497   0.574  0.00  0.00    +0.210 A 
ATOM      5  N   LIG    1        1.623   2.203   0.652  0.00  0.00    -0.540 NA
ATOM      6  C   LIG    1        0.444   1.613   0.627  0.00  0.00    +0.300 A 
ATOM      7  C   LIG    1        4.082   2.185   0.604  0.00  0.00    +0.150 C 
ATOM      8  N   LIG    1        0.324   0.306   0.524  0.00  0.00    -0.550 NA
BRANCH   6   9
ATOM      9  C   LIG    1       -0.800   2.459   0.713  0.00  0.00    +0.490 C 
ATOM     10  F   LIG    1       -1.541   2.087   1.840  0.00  0.00    -0.190 F 
ATOM     11  F   LIG    1       -1.573   2.269  -0.437  0.00  0.00    -0.190 F 
ENDBRANCH   6   9
ENDBRANCH   1   2
BRANCH   1  12
ATOM     12  C   LIG    1       -0.061  -2.458   0.346  0.00  0.00    +0.330 C 
BRANCH  12  13
ATOM     13  C   LIG    1       -0.594  -2.552  -1.085  0.00  0.00    +0.140 C 
ATOM     14  C   LIG    1       -2.032  -3.076  -1.060  0.00  0.00    +0.030 C 
BRANCH  13  16
ATOM     15  C   LIG    1        0.294  -3.134  -3.233  0.00  0.00    +0.200 C 
ATOM     16  O   LIG    1        0.225  -3.446  -1.841  0.00  0.00    -0.390 OA
ENDBRANCH  13  16
ENDBRANCH  12  13
ENDBRANCH   1  12
BRANCH   1  17
ATOM     17  C   LIG    1        2.462  -2.687   0.204  0.00  0.00    +0.400 C 
BRANCH  17  18
ATOM     18  C   LIG    1        2.890  -3.162   1.569  0.00  0.00    +0.060 A 
ATOM     19  C   LIG    1        2.619  -2.554   2.747  0.00  0.00    -0.110 A 
ATOM     20  C   LIG    1        3.194  -3.318   3.768  0.00  0.00    +0.230 A 
ATOM     21  N   LIG    1        3.796  -4.344   3.222  0.00  0.00    -0.290 NA
ATOM     22  N   LIG    1        3.618  -4.268   1.834  0.00  0.00    -0.360 N 
BRANCH  22  23
ATOM     23  C   LIG    1        4.131  -5.220   0.846  0.00  0.00    +0.330 C 
BRANCH  23  24
ATOM     24  C   LIG    1        5.575  -4.859   0.493  0.00  0.00    -0.030 C 
ATOM     25  C   LIG    1        5.694  -3.837  -0.650  0.00  0.00    +0.010 C 
ATOM     26  C   LIG    1        6.883  -4.666  -1.163  0.00  0.00    +0.010 C 
ATOM     27  C   LIG    1        6.250  -5.872  -0.448  0.00  0.00    +0.030 C 
ENDBRANCH  23  24
ENDBRANCH  22  23
ENDBRANCH  17  18
ENDBRANCH   1  17
TORSDOF 9
