REMARK  Name = ZINCpe00000LFvH8.0
REMARK                            x       y       z     vdW  Elec       q    Type
REMARK                         _______ _______ _______ _____ _____    ______ ____
ROOT
ATOM      1  N   LIG    1       -1.216   3.767   0.028  0.00  0.00    -0.410 N 
ATOM      2  C   LIG    1       -0.946   4.528  -1.038  0.00  0.00    +0.700 C 
ATOM      3  N   LIG    1       -1.034   5.842  -0.767  0.00  0.00    -0.700 N 
ATOM      4  H   LIG    1       -0.881   6.574  -1.386  0.00  0.00    +0.450 HD
ATOM      5  C   LIG    1       -1.408   5.955   0.653  0.00  0.00    +0.180 C 
ATOM      6  C   LIG    1       -0.323   6.694   1.439  0.00  0.00    +0.100 C 
ATOM      7  O   LIG    1       -0.653   4.081  -2.130  0.00  0.00    -0.510 OA
ATOM      8  C   LIG    1       -1.515   4.514   1.109  0.00  0.00    +0.530 C 
ATOM      9  O   LIG    1       -1.807   4.116   2.217  0.00  0.00    -0.430 OA
ENDROOT
BRANCH   5  10
ATOM     10  C   LIG    1       -2.735   6.656   0.797  0.00  0.00    -0.070 A 
ATOM     11  C   LIG    1       -3.579   6.328   1.842  0.00  0.00    -0.010 A 
ATOM     12  C   LIG    1       -4.795   6.972   1.980  0.00  0.00    +0.060 A 
ATOM     13  C   LIG    1       -5.173   7.938   1.068  0.00  0.00    -0.060 A 
ATOM     14  C   LIG    1       -4.330   8.265   0.016  0.00  0.00    +0.130 A 
ATOM     15  C   LIG    1       -3.109   7.621  -0.117  0.00  0.00    +0.000 A 
BRANCH  14  16
ATOM     16  O   LIG    1       -4.700   9.215  -0.883  0.00  0.00    -0.310 OA
ATOM     17  C   LIG    1       -5.971   9.837  -0.684  0.00  0.00    +0.250 C 
ENDBRANCH  14  16
ENDBRANCH   5  10
BRANCH   1  18
ATOM     18  N   LIG    1       -1.197   2.366   0.021  0.00  0.00    -0.460 N 
ATOM     19  H   LIG    1       -2.031   1.869   0.022  0.00  0.00    +0.450 HD
BRANCH  18  20
ATOM     20  C   LIG    1       -0.021   1.708   0.011  0.00  0.00    +0.570 C 
ATOM     21  S   LIG    1        0.002  -0.004   0.002  0.00  0.00    -0.570 S 
BRANCH  20  22
ATOM     22  N   LIG    1        1.137   2.397   0.004  0.00  0.00    -0.660 N 
ATOM     23  H   LIG    1        1.124   3.367   0.009  0.00  0.00    +0.400 HD
BRANCH  22  24
ATOM     24  C   LIG    1        2.415   1.682  -0.012  0.00  0.00    +0.270 C 
ATOM     25  C   LIG    1        2.785   1.331  -1.454  0.00  0.00    +0.060 C 
BRANCH  24  26
ATOM     26  C   LIG    1        3.504   2.571   0.592  0.00  0.00    +0.190 C 
BRANCH  26  28
ATOM     27  C   LIG    1        4.703   4.616   0.237  0.00  0.00    +0.210 C 
ATOM     28  O   LIG    1        3.701   3.716  -0.240  0.00  0.00    -0.390 OA
ENDBRANCH  26  28
ENDBRANCH  24  26
ENDBRANCH  22  24
ENDBRANCH  20  22
ENDBRANCH  18  20
ENDBRANCH   1  18
TORSDOF 8
