REMARK  Name = ZINCrH000004kPd6.0
REMARK                            x       y       z     vdW  Elec       q    Type
REMARK                         _______ _______ _______ _____ _____    ______ ____
ROOT
ATOM      1  N   LIG    1        0.064   1.025  -7.262  0.00  0.00    -0.750 N 
ATOM      2  H   LIG    1        0.861   0.477  -7.184  0.00  0.00    +0.400 HD
ATOM      3  C   LIG    1       -0.567   1.460  -6.153  0.00  0.00    +0.710 C 
ATOM      4  N   LIG    1       -0.091   1.134  -4.935  0.00  0.00    -0.750 N 
ATOM      5  H   LIG    1        0.706   0.586  -4.857  0.00  0.00    +0.400 HD
ATOM      6  O   LIG    1       -1.566   2.146  -6.251  0.00  0.00    -0.590 OA
ENDROOT
BRANCH   1   7
ATOM      7  C   LIG    1       -0.454   1.379  -8.586  0.00  0.00    +0.410 C 
BRANCH   7  11
ATOM      8  C   LIG    1        1.348  -0.594 -11.174  0.00  0.00    -0.240 A 
ATOM      9  C   LIG    1        2.065   0.566 -11.110  0.00  0.00    +0.110 A 
ATOM     10  O   LIG    1        1.496   1.364 -10.202  0.00  0.00    -0.160 OA
ATOM     11  C   LIG    1        0.426   0.773  -9.648  0.00  0.00    -0.040 A 
ATOM     12  C   LIG    1        3.287   0.893 -11.930  0.00  0.00    +0.210 C 
ATOM     13  C   LIG    1        0.261  -0.441 -10.195  0.00  0.00    +0.040 A 
BRANCH   8  14
ATOM     14  C   LIG    1        1.609  -1.755 -12.040  0.00  0.00    +0.540 C 
ATOM     15  O   LIG    1        2.552  -1.742 -12.807  0.00  0.00    -0.510 OA
BRANCH  14  17
ATOM     16  C   LIG    1        1.119  -3.941 -12.867  0.00  0.00    +0.270 C 
ATOM     17  O   LIG    1        0.802  -2.833 -11.984  0.00  0.00    -0.350 OA
ENDBRANCH  14  17
ENDBRANCH   8  14
ENDBRANCH   7  11
ENDBRANCH   1   7
BRANCH   4  18
ATOM     18  C   LIG    1       -0.777   1.606  -3.730  0.00  0.00    +0.270 C 
BRANCH  18  19
ATOM     19  C   LIG    1       -0.037   1.099  -2.490  0.00  0.00    +0.020 C 
BRANCH  19  20
ATOM     20  C   LIG    1       -0.753   1.593  -1.232  0.00  0.00    -0.050 C 
ATOM     21  C   LIG    1       -0.013   1.086   0.008  0.00  0.00    +0.020 C 
ATOM     22  C   LIG    1       -0.729   1.579   1.267  0.00  0.00    -0.020 C 
ATOM     23  C   LIG    1       -0.750   3.109   1.275  0.00  0.00    +0.010 C 
ATOM     24  C   LIG    1       -1.490   3.616   0.036  0.00  0.00    -0.020 C 
ATOM     25  C   LIG    1       -2.925   3.086   0.047  0.00  0.00    +0.010 C 
ATOM     26  C   LIG    1       -2.904   1.556   0.038  0.00  0.00    -0.020 C 
ATOM     27  C   LIG    1       -2.164   1.050   1.278  0.00  0.00    +0.010 C 
ATOM     28  C   LIG    1       -0.773   3.123  -1.223  0.00  0.00    +0.020 C 
ATOM     29  C   LIG    1       -2.188   1.063  -1.221  0.00  0.00    +0.020 C 
ENDBRANCH  19  20
ENDBRANCH  18  19
ENDBRANCH   4  18
TORSDOF 7
