REMARK  Name = ZINCnE000008J2pa.1
REMARK                            x       y       z     vdW  Elec       q    Type
REMARK                         _______ _______ _______ _____ _____    ______ ____
ROOT
ATOM      1  C   LIG    1       -0.427   1.765   2.583  0.00  0.00    +0.500 C 
ATOM      2  N   LIG    1       -1.119   2.219   3.647  0.00  0.00    -0.680 NA
ATOM      3  O   LIG    1        0.566   1.088   2.749  0.00  0.00    -0.560 OA
ENDROOT
BRANCH   1  14
ATOM      4  C   LIG    1        0.002  -0.004   0.002  0.00  0.00    +0.030 C 
ATOM      5  C   LIG    1       -0.019   1.526   0.010  0.00  0.00    -0.030 C 
ATOM      6  C   LIG    1       -0.908   2.110  -1.143  0.00  0.00    -0.130 C 
ATOM      7  C   LIG    1       -0.948   3.617  -0.743  0.00  0.00    +0.030 C 
ATOM      8  C   LIG    1       -0.928   3.610   0.805  0.00  0.00    +0.040 C 
ATOM      9  C   LIG    1       -0.445   1.811  -2.570  0.00  0.00    +0.070 C 
ATOM     10  C   LIG    1       -2.285   1.553  -0.755  0.00  0.00    +0.380 C 
ATOM     11  O   LIG    1       -3.171   1.205  -1.500  0.00  0.00    -0.450 OA
ATOM     12  C   LIG    1       -2.298   1.532   0.766  0.00  0.00    +0.040 C 
ATOM     13  C   LIG    1        1.395   2.112   0.000  0.00  0.00    +0.040 C 
ATOM     14  C   LIG    1       -0.887   2.098   1.187  0.00  0.00    -0.040 C 
ENDBRANCH   1  14
BRANCH   2  15
ATOM     15  C   LIG    1       -0.696   1.912   4.930  0.00  0.00    +0.400 A 
ATOM     16  N   LIG    1        0.338   1.198   5.213  0.00  0.00    -0.560 NA
ATOM     17  C   LIG    1        0.625   0.990   6.513  0.00  0.00    +0.150 A 
ATOM     18  C   LIG    1        1.691   0.257   7.075  0.00  0.00    +0.000 A 
ATOM     19  C   LIG    1        1.818   0.150   8.437  0.00  0.00    +0.020 A 
ATOM     20  C   LIG    1        0.902   0.759   9.282  0.00  0.00    -0.050 A 
ATOM     21  C   LIG    1       -0.147   1.480   8.755  0.00  0.00    +0.060 A 
ATOM     22  C   LIG    1       -0.291   1.600   7.376  0.00  0.00    -0.220 A 
ATOM     23  S   LIG    1       -1.499   2.436   6.403  0.00  0.00    -0.040 S 
ENDBRANCH   2  15
TORSDOF 2
