REMARK  Name = ZINCrH000004t39C.0
REMARK                            x       y       z     vdW  Elec       q    Type
REMARK                         _______ _______ _______ _____ _____    ______ ____
ROOT
ATOM      1  C   LIG    1        3.088   0.003  -1.219  0.00  0.00    +0.500 A 
ATOM      2  C   LIG    1        2.893  -0.719  -2.365  0.00  0.00    -0.150 A 
ATOM      3  C   LIG    1        2.504  -0.048  -3.535  0.00  0.00    +0.310 A 
ATOM      4  N   LIG    1        2.330   1.266  -3.524  0.00  0.00    -0.500 NA
ATOM      5  C   LIG    1        2.520   1.975  -2.408  0.00  0.00    +0.490 A 
ATOM      6  N   LIG    1        2.412   3.273  -2.142  0.00  0.00    -0.540 NA
ATOM      7  C   LIG    1        2.707   3.495  -0.867  0.00  0.00    +0.490 A 
ATOM      8  N   LIG    1        3.010   2.363  -0.281  0.00  0.00    -0.350 NA
ATOM      9  N   LIG    1        2.898   1.356  -1.249  0.00  0.00    -0.360 N 
ENDROOT
BRANCH   3  10
ATOM     10  C   LIG    1        2.288  -0.812  -4.787  0.00  0.00    -0.060 A 
ATOM     11  C   LIG    1        2.475  -2.193  -4.806  0.00  0.00    +0.050 A 
ATOM     12  C   LIG    1        2.266  -2.899  -5.973  0.00  0.00    +0.000 A 
ATOM     13  C   LIG    1        1.883  -2.238  -7.125  0.00  0.00    +0.030 A 
ATOM     14  C   LIG    1        1.701  -0.866  -7.115  0.00  0.00    +0.000 A 
ATOM     15  C   LIG    1        1.902  -0.150  -5.952  0.00  0.00    +0.080 A 
ENDBRANCH   3  10
BRANCH   1  16
ATOM     16  N   LIG    1        3.470  -0.624  -0.053  0.00  0.00    -0.700 N 
ATOM     17  H   LIG    1        3.680  -0.098   0.735  0.00  0.00    +0.420 HD
BRANCH  16  18
ATOM     18  C   LIG    1        3.559  -2.086  -0.003  0.00  0.00    +0.340 C 
BRANCH  18  22
ATOM     19  C   LIG    1        7.201  -4.643  -2.308  0.00  0.00    +0.360 C 
ATOM     20  N   LIG    1        6.495  -3.642  -1.505  0.00  0.00    -0.370 N 
ATOM     21  C   LIG    1        5.164  -3.597  -1.284  0.00  0.00    +0.250 A 
ATOM     22  C   LIG    1        4.913  -2.524  -0.498  0.00  0.00    -0.260 A 
ATOM     23  C   LIG    1        6.132  -1.897  -0.224  0.00  0.00    +0.250 A 
ATOM     24  N   LIG    1        7.081  -2.566  -0.826  0.00  0.00    -0.290 NA
ENDBRANCH  18  22
BRANCH  18  25
ATOM     25  C   LIG    1        3.366  -2.559   1.439  0.00  0.00    -0.070 C 
ATOM     26  C   LIG    1        4.468  -1.968   2.322  0.00  0.00    +0.030 C 
ATOM     27  C   LIG    1        3.437  -4.087   1.488  0.00  0.00    +0.040 C 
ATOM     28  C   LIG    1        2.000  -2.095   1.950  0.00  0.00    +0.030 C 
ENDBRANCH  18  25
ENDBRANCH  16  18
ENDBRANCH   1  16
TORSDOF 5
