REMARK  Name = ZINCqH0000050Lf8.0
REMARK                            x       y       z     vdW  Elec       q    Type
REMARK                         _______ _______ _______ _____ _____    ______ ____
ROOT
ATOM      1  C   LIG    1        0.923  10.281   7.277  0.00  0.00    +0.150 A 
ATOM      2  C   LIG    1        0.848  11.195   6.231  0.00  0.00    -0.010 A 
ATOM      3  C   LIG    1        0.710  10.752   4.935  0.00  0.00    +0.090 A 
ATOM      4  C   LIG    1        0.645   9.380   4.671  0.00  0.00    -0.120 A 
ATOM      5  C   LIG    1        0.715   8.464   5.727  0.00  0.00    +0.070 A 
ATOM      6  C   LIG    1        0.860   8.917   7.019  0.00  0.00    -0.080 A 
ENDROOT
BRANCH   4   7
ATOM      7  C   LIG    1        0.497   8.901   3.288  0.00  0.00    +0.140 C 
ATOM      8  C   LIG    1        0.434   7.577   3.036  0.00  0.00    -0.100 C 
BRANCH   8   9
ATOM      9  C   LIG    1        0.287   7.101   1.661  0.00  0.00    +0.550 C 
ATOM     10  N   LIG    1        0.225   5.778   1.408  0.00  0.00    -0.720 N 
ATOM     11  H   LIG    1        0.277   5.142   2.139  0.00  0.00    +0.400 HD
ATOM     12  O   LIG    1        0.221   7.899   0.744  0.00  0.00    -0.540 OA
BRANCH  10  13
ATOM     13  C   LIG    1        0.077   5.302   0.031  0.00  0.00    +0.350 C 
BRANCH  13  14
ATOM     14  C   LIG    1        0.033   3.795   0.023  0.00  0.00    +0.100 A 
ATOM     15  C   LIG    1       -1.188   3.148   0.031  0.00  0.00    -0.010 A 
ATOM     16  C   LIG    1       -1.217   1.761   0.017  0.00  0.00    +0.060 A 
ATOM     17  C   LIG    1       -0.013   1.076   0.008  0.00  0.00    -0.030 A 
ATOM     18  C   LIG    1        1.170   1.792   0.001  0.00  0.00    +0.260 A 
ATOM     19  N   LIG    1        1.160   3.110   0.008  0.00  0.00    -0.470 NA
ENDBRANCH  13  14
ENDBRANCH  10  13
ENDBRANCH   8   9
ENDBRANCH   4   7
BRANCH   1  20
ATOM     20  O   LIG    1        1.060  10.723   8.553  0.00  0.00    -0.310 OA
BRANCH  20  21
ATOM     21  C   LIG    1        1.131   9.731   9.579  0.00  0.00    +0.320 C 
BRANCH  21  25
ATOM     22  C   LIG    1        1.615   9.830  14.516  0.00  0.00    +0.180 C 
ATOM     23  C   LIG    1        1.497  10.417  13.133  0.00  0.00    +0.050 A 
ATOM     24  N   LIG    1        1.372   9.730  12.048  0.00  0.00    -0.470 NA
ATOM     25  C   LIG    1        1.281  10.403  10.919  0.00  0.00    +0.060 A 
ATOM     26  C   LIG    1        1.338  11.731  11.059  0.00  0.00    -0.050 A 
ATOM     27  S   LIG    1        1.511  12.089  12.775  0.00  0.00    +0.130 S 
ENDBRANCH  21  25
ENDBRANCH  20  21
ENDBRANCH   1  20
TORSDOF 7
