REMARK  Name = ZINCrD000000AM4U.0
REMARK                            x       y       z     vdW  Elec       q    Type
REMARK                         _______ _______ _______ _____ _____    ______ ____
ROOT
ATOM      1  C   LIG    1       -0.644   4.291   6.000  0.00  0.00    +0.250 C 
ATOM      2  C   LIG    1       -0.606   2.944   6.726  0.00  0.00    +0.010 C 
ATOM      3  C   LIG    1        0.199   3.089   8.022  0.00  0.00    +0.280 C 
ATOM      4  N   LIG    1       -0.374   4.186   8.814  0.00  0.00    -0.610 N 
ATOM      5  C   LIG    1       -0.539   5.502   8.182  0.00  0.00    +0.300 C 
ATOM      6  C   LIG    1       -0.740   3.988  10.096  0.00  0.00    +0.510 C 
ATOM      7  O   LIG    1       -1.212   4.902  10.739  0.00  0.00    -0.530 OA
ATOM      8  C   LIG    1       -1.336   5.330   6.885  0.00  0.00    +0.020 C 
ENDROOT
BRANCH   1  11
ATOM      9  O   LIG    1        0.430   3.440   3.678  0.00  0.00    -0.590 OA
ATOM     10  C   LIG    1       -0.754   3.713   3.636  0.00  0.00    +0.710 C 
ATOM     11  N   LIG    1       -1.385   4.148   4.745  0.00  0.00    -0.740 N 
ATOM     12  H   LIG    1       -2.329   4.366   4.711  0.00  0.00    +0.400 HD
ATOM     13  N   LIG    1       -1.435   3.582   2.481  0.00  0.00    -0.740 N 
ATOM     14  H   LIG    1       -2.380   3.800   2.447  0.00  0.00    +0.390 HD
BRANCH  13  15
ATOM     15  C   LIG    1       -0.750   3.109   1.275  0.00  0.00    +0.250 C 
ATOM     16  C   LIG    1       -0.729   1.579   1.267  0.00  0.00    +0.000 C 
ATOM     17  C   LIG    1       -0.013   1.086   0.008  0.00  0.00    +0.000 C 
ATOM     18  C   LIG    1       -0.753   1.593  -1.232  0.00  0.00    +0.000 C 
ATOM     19  C   LIG    1       -0.773   3.123  -1.223  0.00  0.00    +0.020 C 
ATOM     20  C   LIG    1       -1.490   3.616   0.036  0.00  0.00    +0.010 C 
ENDBRANCH  13  15
ENDBRANCH   1  11
BRANCH   6  21
ATOM     21  C   LIG    1       -0.564   2.632  10.729  0.00  0.00    +0.290 C 
BRANCH  21  22
ATOM     22  N   LIG    1       -1.034   2.677  12.116  0.00  0.00    -0.730 N 
ATOM     23  H   LIG    1       -1.389   3.502  12.482  0.00  0.00    +0.420 HD
BRANCH  22  24
ATOM     24  C   LIG    1       -0.970   1.530  12.912  0.00  0.00    +0.230 A 
ATOM     25  C   LIG    1       -0.463   0.348  12.391  0.00  0.00    -0.060 A 
ATOM     26  C   LIG    1       -0.401  -0.784  13.180  0.00  0.00    +0.070 A 
ATOM     27  C   LIG    1       -0.845  -0.742  14.489  0.00  0.00    -0.040 A 
ATOM     28  C   LIG    1       -1.351   0.434  15.013  0.00  0.00    +0.070 A 
ATOM     29  C   LIG    1       -1.410   1.571  14.231  0.00  0.00    -0.110 A 
ATOM     30 CL   LIG    1       -2.039   3.049  14.891  0.00  0.00    -0.070 Cl
ENDBRANCH  22  24
ENDBRANCH  21  22
ENDBRANCH   6  21
TORSDOF 5
