REMARK  Name = ZINCrD0000075pIK.0
REMARK                            x       y       z     vdW  Elec       q    Type
REMARK                         _______ _______ _______ _____ _____    ______ ____
ROOT
ATOM      1  O   LIG    1       -1.711   2.254   1.150  0.00  0.00    -0.510 OA
ATOM      2  C   LIG    1       -0.718   1.572   1.248  0.00  0.00    +0.470 C 
ENDROOT
BRANCH   2   3
ATOM      3  O   LIG    1       -0.243   1.247   2.461  0.00  0.00    -0.330 OA
BRANCH   3   4
ATOM      4  C   LIG    1       -0.974   1.750   3.611  0.00  0.00    +0.250 C 
BRANCH   4   5
ATOM      5  C   LIG    1       -0.298   1.288   4.876  0.00  0.00    +0.520 C 
ATOM      6  N   LIG    1       -0.804   1.637   6.076  0.00  0.00    -0.610 N 
ATOM      7  C   LIG    1       -0.164   1.191   7.323  0.00  0.00    +0.310 C 
ATOM      8  C   LIG    1        0.367   2.429   8.062  0.00  0.00    +0.110 C 
ATOM      9  C   LIG    1       -0.700   3.503   8.057  0.00  0.00    -0.170 A 
ATOM     10  C   LIG    1       -1.758   3.540   7.225  0.00  0.00    -0.130 A 
ATOM     11  C   LIG    1       -2.587   4.641   7.418  0.00  0.00    +0.020 A 
ATOM     12  C   LIG    1       -2.218   5.476   8.384  0.00  0.00    -0.040 A 
ATOM     13  S   LIG    1       -0.739   4.894   9.133  0.00  0.00    +0.110 S 
ATOM     14  C   LIG    1       -2.013   2.467   6.172  0.00  0.00    +0.360 C 
ATOM     15  O   LIG    1        0.700   0.602   4.815  0.00  0.00    -0.510 OA
ENDBRANCH   4   5
ENDBRANCH   3   4
ENDBRANCH   2   3
BRANCH   2  16
ATOM     16  C   LIG    1       -0.013   1.086   0.008  0.00  0.00    +0.130 C 
BRANCH  16  17
ATOM     17  C   LIG    1       -0.753   1.593  -1.232  0.00  0.00    +0.130 C 
BRANCH  17  18
ATOM     18  C   LIG    1       -0.047   1.107  -2.471  0.00  0.00    +0.160 A 
ATOM     19  N   LIG    1        1.227   1.373  -2.626  0.00  0.00    -0.470 NA
ATOM     20  C   LIG    1        1.897   0.959  -3.707  0.00  0.00    +0.130 A 
ATOM     21  C   LIG    1        3.264   1.243  -3.865  0.00  0.00    +0.050 A 
ATOM     22  C   LIG    1        3.919   0.813  -4.979  0.00  0.00    +0.030 A 
ATOM     23  C   LIG    1        3.255   0.092  -5.969  0.00  0.00    +0.010 A 
ATOM     24  C   LIG    1        1.931  -0.201  -5.851  0.00  0.00    +0.030 A 
ATOM     25  C   LIG    1        1.224   0.226  -4.716  0.00  0.00    -0.110 A 
ATOM     26  C   LIG    1       -0.146  -0.057  -4.555  0.00  0.00    +0.090 A 
ATOM     27  C   LIG    1       -0.768   0.391  -3.425  0.00  0.00    -0.030 A 
ENDBRANCH  17  18
ENDBRANCH  16  17
ENDBRANCH   2  16
TORSDOF 6
