REMARK  Name = ZINCnE000004qtxJ.1
REMARK                            x       y       z     vdW  Elec       q    Type
REMARK                         _______ _______ _______ _____ _____    ______ ____
ROOT
ATOM      1  C   LIG    1       -1.235   3.140   0.035  0.00  0.00    +0.180 A 
ATOM      2  C   LIG    1       -1.209   1.764  -0.152  0.00  0.00    -0.040 A 
ATOM      3  C   LIG    1       -0.002   1.092  -0.155  0.00  0.00    +0.140 A 
ATOM      4  C   LIG    1        1.180   1.789   0.016  0.00  0.00    -0.630 A 
ATOM      5  C   LIG    1        1.157   3.160   0.197  0.00  0.00    +0.140 A 
ATOM      6  C   LIG    1       -0.046   3.837   0.207  0.00  0.00    -0.010 A 
ENDROOT
BRANCH   1   8
ATOM      7  C   LIG    1       -2.529   5.078  -0.443  0.00  0.00    +0.540 C 
ATOM      8  N   LIG    1       -2.455   3.823   0.044  0.00  0.00    -0.670 N 
ATOM      9  H   LIG    1       -3.248   3.394   0.400  0.00  0.00    +0.410 HD
ATOM     10  O   LIG    1       -1.559   5.581  -0.977  0.00  0.00    -0.520 OA
BRANCH   7  12
ATOM     11  C   LIG    1       -3.855   7.077  -0.809  0.00  0.00    +0.150 C 
ATOM     12  C   LIG    1       -3.782   5.838  -0.328  0.00  0.00    -0.090 C 
ENDBRANCH   7  12
ENDBRANCH   1   8
BRANCH   4  13
ATOM     13  S   LIG    1        2.717   0.929   0.004  0.00  0.00    +2.610 S 
ATOM     14  O   LIG    1        2.427  -0.417   0.355  0.00  0.00    -1.030 OA
ATOM     15  O   LIG    1        3.636   1.739   0.723  0.00  0.00    -1.020 OA
BRANCH  13  16
ATOM     16  N   LIG    1        3.249   0.898  -1.565  0.00  0.00    -1.080 NA
BRANCH  16  17
ATOM     17  C   LIG    1        4.459   0.273  -1.880  0.00  0.00    +0.290 A 
ATOM     18  C   LIG    1        4.906   0.247  -3.195  0.00  0.00    -0.020 A 
ATOM     19  C   LIG    1        6.102  -0.371  -3.505  0.00  0.00    +0.030 A 
ATOM     20  C   LIG    1        6.856  -0.964  -2.507  0.00  0.00    -0.010 A 
ATOM     21  C   LIG    1        6.412  -0.939  -1.194  0.00  0.00    -0.000 A 
ATOM     22 CL   LIG    1        7.360  -1.683   0.056  0.00  0.00    -0.090 Cl
ATOM     23  F   LIG    1        8.025  -1.568  -2.813  0.00  0.00    -0.150 F 
ATOM     24  C   LIG    1        5.219  -0.317  -0.879  0.00  0.00    -0.120 A 
ENDBRANCH  16  17
ENDBRANCH  13  16
ENDBRANCH   4  13
TORSDOF 5
