REMARK  Name = ZINCpe000000YBCk.0
REMARK                            x       y       z     vdW  Elec       q    Type
REMARK                         _______ _______ _______ _____ _____    ______ ____
ROOT
ATOM      1  C   LIG    1        0.000   0.005   0.009  0.00  0.00    +0.010 C 
ATOM      2  C   LIG    1       -0.600  -0.583   1.307  0.00  0.00    +0.090 C 
ATOM      3  C   LIG    1        0.596  -0.789   2.209  0.00  0.00    +0.520 C 
ATOM      4  N   LIG    1        1.731  -0.744   1.490  0.00  0.00    -0.550 N 
ATOM      5  O   LIG    1        0.540  -0.968   3.407  0.00  0.00    -0.500 OA
ATOM      6  C   LIG    1        1.451  -0.521   0.065  0.00  0.00    +0.310 C 
ENDROOT
BRANCH   4   7
ATOM      7  C   LIG    1        3.014  -0.891   2.029  0.00  0.00    +0.170 A 
ATOM      8  C   LIG    1        4.118  -0.956   1.190  0.00  0.00    -0.020 A 
ATOM      9  C   LIG    1        5.382  -1.096   1.728  0.00  0.00    +0.050 A 
ATOM     10  C   LIG    1        5.552  -1.183   3.100  0.00  0.00    -0.120 A 
ATOM     11  C   LIG    1        6.814  -1.343   3.922  0.00  0.00    +0.070 C 
ATOM     12  C   LIG    1        6.333  -1.814   5.311  0.00  0.00    +0.030 C 
ATOM     13  C   LIG    1        4.902  -1.241   5.378  0.00  0.00    +0.080 C 
ATOM     14  C   LIG    1        4.453  -1.124   3.937  0.00  0.00    -0.070 A 
ATOM     15  C   LIG    1        3.186  -0.979   3.403  0.00  0.00    +0.010 A 
ENDBRANCH   4   7
BRANCH   1  20
ATOM     16  C   LIG    1       -2.897   3.905   0.114  0.00  0.00    -0.010 C 
ATOM     17  C   LIG    1       -3.482   2.583   0.677  0.00  0.00    +0.070 C 
ATOM     18  C   LIG    1       -2.539   1.531   0.038  0.00  0.00    +0.260 C 
ATOM     19  N   LIG    1       -1.208   2.163   0.051  0.00  0.00    -0.620 N 
ATOM     20  C   LIG    1       -0.028   1.512   0.036  0.00  0.00    +0.540 C 
ATOM     21  O   LIG    1        1.011   2.138   0.038  0.00  0.00    -0.520 OA
ATOM     22  C   LIG    1       -1.380   3.623   0.078  0.00  0.00    +0.290 C 
BRANCH  16  26
ATOM     23  N   LIG    1       -4.476   5.468   1.202  0.00  0.00    -0.850 N 
ATOM     24  H   LIG    1       -4.673   6.212   1.793  0.00  0.00    +0.410 HD
ATOM     25  H   LIG    1       -5.196   5.016   0.735  0.00  0.00    +0.400 HD
ATOM     26  C   LIG    1       -3.202   5.061   1.032  0.00  0.00    +0.530 C 
ATOM     27  O   LIG    1       -2.302   5.626   1.616  0.00  0.00    -0.530 OA
ENDBRANCH  16  26
ENDBRANCH   1  20
TORSDOF 3
