REMARK  Name = ZINCpk00000eazOX.0
REMARK                            x       y       z     vdW  Elec       q    Type
REMARK                         _______ _______ _______ _____ _____    ______ ____
ROOT
ATOM      1  N   LIG    1       -4.525   1.756   1.396  0.00  0.00    -0.740 N 
ATOM      2  H   LIG    1       -4.995   1.162   0.790  0.00  0.00    +0.410 HD
ATOM      3  C   LIG    1       -3.222   2.033   1.190  0.00  0.00    +0.510 C 
ATOM      4  O   LIG    1       -2.633   2.776   1.947  0.00  0.00    -0.500 OA
ENDROOT
BRANCH   1  10
ATOM      5  C   LIG    1       -6.727   2.418   2.227  0.00  0.00    -0.430 C 
ATOM      6  C   LIG    1       -7.464   3.040   3.415  0.00  0.00    +0.060 C 
ATOM      7  C   LIG    1       -7.236   2.183   4.662  0.00  0.00    +0.040 C 
ATOM      8  C   LIG    1       -5.738   2.117   4.968  0.00  0.00    +0.020 C 
ATOM      9  C   LIG    1       -5.002   1.495   3.780  0.00  0.00    +0.030 C 
ATOM     10  C   LIG    1       -5.230   2.352   2.533  0.00  0.00    +0.280 C 
BRANCH   5  12
ATOM     11  C   LIG    1       -8.809   3.501   0.666  0.00  0.00    -0.270 C 
ATOM     12  S   LIG    1       -6.998   3.434   0.749  0.00  0.00    +2.410 S 
ATOM     13  O   LIG    1       -6.519   2.722  -0.384  0.00  0.00    -0.940 OA
ATOM     14  O   LIG    1       -6.507   4.743   1.003  0.00  0.00    -0.920 OA
ENDBRANCH   5  12
ENDBRANCH   1  10
BRANCH   3  15
ATOM     15  C   LIG    1       -2.497   1.420   0.020  0.00  0.00    +0.380 C 
BRANCH  15  16
ATOM     16  N   LIG    1       -1.104   1.874   0.017  0.00  0.00    -0.280 N 
ATOM     17  C   LIG    1       -0.013   1.076   0.008  0.00  0.00    +0.150 A 
ATOM     18  C   LIG    1        1.067   1.912   0.002  0.00  0.00    +0.020 A 
ATOM     19  N   LIG    1        0.572   3.162   0.014  0.00  0.00    -0.250 NA
ATOM     20  N   LIG    1       -0.712   3.100   0.025  0.00  0.00    -0.050 NA
BRANCH  18  21
ATOM     21  C   LIG    1        2.498   1.519  -0.013  0.00  0.00    -0.010 A 
ATOM     22  C   LIG    1        2.853   0.172  -0.018  0.00  0.00    +0.010 A 
ATOM     23  C   LIG    1        4.186  -0.188  -0.038  0.00  0.00    +0.010 A 
ATOM     24  C   LIG    1        5.168   0.787  -0.042  0.00  0.00    +0.000 A 
ATOM     25  C   LIG    1        4.820   2.126  -0.032  0.00  0.00    +0.010 A 
ATOM     26  C   LIG    1        3.491   2.496  -0.018  0.00  0.00    +0.040 A 
ENDBRANCH  18  21
ENDBRANCH  15  16
ENDBRANCH   3  15
TORSDOF 5
