REMARK  Name = ZINCrH000004q4oa.0
REMARK                            x       y       z     vdW  Elec       q    Type
REMARK                         _______ _______ _______ _____ _____    ______ ____
ROOT
ATOM      1  C   LIG    1       -6.238   3.596   8.180  0.00  0.00    +0.070 C 
ATOM      2  C   LIG    1       -5.504   2.263   8.338  0.00  0.00    +0.020 C 
ATOM      3  C   LIG    1       -5.668   1.439   7.056  0.00  0.00    +0.270 C 
ATOM      4  N   LIG    1       -5.216   2.246   5.915  0.00  0.00    -0.610 N 
ATOM      5  C   LIG    1       -5.788   3.586   5.725  0.00  0.00    +0.260 C 
ATOM      6  C   LIG    1       -4.289   1.768   5.060  0.00  0.00    +0.520 C 
ATOM      7  O   LIG    1       -3.893   0.627   5.172  0.00  0.00    -0.520 OA
ATOM      8  C   LIG    1       -5.626   4.383   7.019  0.00  0.00    +0.020 C 
ENDROOT
BRANCH   1  11
ATOM      9  C   LIG    1       -8.576   4.760   9.857  0.00  0.00    +0.140 C 
ATOM     10  C   LIG    1       -7.112   4.902  10.183  0.00  0.00    +0.080 A 
ATOM     11  C   LIG    1       -6.107   4.395   9.451  0.00  0.00    -0.160 A 
ATOM     12  C   LIG    1       -4.859   4.759  10.127  0.00  0.00    -0.090 A 
ATOM     13  C   LIG    1       -3.509   4.524   9.863  0.00  0.00    +0.050 A 
ATOM     14  C   LIG    1       -2.557   5.014  10.713  0.00  0.00    -0.030 A 
ATOM     15  C   LIG    1       -2.921   5.743  11.836  0.00  0.00    +0.020 A 
ATOM     16  C   LIG    1       -4.248   5.993  12.111  0.00  0.00    -0.010 A 
ATOM     17  C   LIG    1       -5.234   5.501  11.262  0.00  0.00    +0.100 A 
ATOM     18  N   LIG    1       -6.609   5.566  11.269  0.00  0.00    -0.590 N 
ATOM     19  H   LIG    1       -7.143   6.016  11.942  0.00  0.00    +0.410 HD
ENDBRANCH   1  11
BRANCH   6  20
ATOM     20  C   LIG    1       -3.747   2.651   3.966  0.00  0.00    +0.150 C 
ATOM     21  C   LIG    1       -2.866   3.740   4.580  0.00  0.00    +0.040 C 
BRANCH  20  22
ATOM     22  O   LIG    1       -2.970   1.864   3.061  0.00  0.00    -0.350 OA
BRANCH  22  23
ATOM     23  C   LIG    1       -2.973   2.351   1.717  0.00  0.00    +0.190 C 
BRANCH  23  24
ATOM     24  C   LIG    1       -2.114   1.437   0.841  0.00  0.00    +0.160 C 
ATOM     25  C   LIG    1       -2.203   1.871  -0.638  0.00  0.00    +0.010 C 
ATOM     26  C   LIG    1       -0.776   1.642  -1.183  0.00  0.00    +0.000 C 
ATOM     27  C   LIG    1        0.007   1.097   0.032  0.00  0.00    +0.190 C 
ATOM     28  O   LIG    1       -0.716   1.578   1.185  0.00  0.00    -0.360 OA
ENDBRANCH  23  24
ENDBRANCH  22  23
ENDBRANCH  20  22
ENDBRANCH   6  20
TORSDOF 5
