REMARK  Name = ZINCpk00000Kb8Ne.0
REMARK                            x       y       z     vdW  Elec       q    Type
REMARK                         _______ _______ _______ _____ _____    ______ ____
ROOT
ATOM      1  C   LIG    1        5.271  -4.371  -0.196  0.00  0.00    +0.240 C 
ENDROOT
BRANCH   1   3
ATOM      2  O   LIG    1        4.119  -3.604  -2.108  0.00  0.00    -0.510 OA
ATOM      3  C   LIG    1        4.476  -3.355  -0.976  0.00  0.00    +0.550 C 
ATOM      4  N   LIG    1        4.162  -2.171  -0.415  0.00  0.00    -0.640 N 
ATOM      5  C   LIG    1        3.421  -0.977  -0.867  0.00  0.00    +0.290 C 
ATOM      6  C   LIG    1        3.163  -0.702   0.626  0.00  0.00    +0.260 C 
ATOM      7  C   LIG    1        4.420  -1.547   0.900  0.00  0.00    +0.300 C 
BRANCH   6   8
ATOM      8  N   LIG    1        3.307   0.708   0.999  0.00  0.00    -0.370 N 
ATOM      9  C   LIG    1        4.464   1.338   1.290  0.00  0.00    +0.220 A 
ATOM     10  C   LIG    1        4.170   2.626   1.583  0.00  0.00    -0.120 A 
ATOM     11  C   LIG    1        2.786   2.788   1.468  0.00  0.00    +0.240 A 
ATOM     12  N   LIG    1        2.267   1.639   1.118  0.00  0.00    -0.290 NA
ENDBRANCH   6   8
ENDBRANCH   1   3
BRANCH   1  13
ATOM     13  N   LIG    1        5.480  -5.568  -1.022  0.00  0.00    -0.510 NA
ATOM     14  C   LIG    1        4.211  -6.263  -1.271  0.00  0.00    +0.180 C 
ATOM     15  C   LIG    1        4.443  -7.417  -2.249  0.00  0.00    +0.000 C 
ATOM     16  C   LIG    1        5.470  -8.385  -1.654  0.00  0.00    +0.150 C 
ATOM     17  C   LIG    1        6.766  -7.625  -1.359  0.00  0.00    +0.050 C 
ATOM     18  C   LIG    1        6.466  -6.466  -0.407  0.00  0.00    +0.180 C 
BRANCH  16  19
ATOM     19  O   LIG    1        5.733  -9.435  -2.588  0.00  0.00    -0.570 OA
ATOM     20  H   LIG    1        4.955  -9.959  -2.821  0.00  0.00    +0.380 HD
ENDBRANCH  16  19
ENDBRANCH   1  13
BRANCH   1  21
ATOM     21  C   LIG    1        4.517  -4.748   1.053  0.00  0.00    -0.130 A 
ATOM     22  C   LIG    1        3.177  -5.081   0.978  0.00  0.00    +0.020 A 
ATOM     23  C   LIG    1        2.487  -5.431   2.123  0.00  0.00    +0.000 A 
ATOM     24  C   LIG    1        3.133  -5.438   3.345  0.00  0.00    +0.010 A 
ATOM     25  C   LIG    1        4.471  -5.099   3.421  0.00  0.00    +0.010 A 
ATOM     26  C   LIG    1        5.163  -4.754   2.275  0.00  0.00    +0.020 A 
ENDBRANCH   1  21
TORSDOF 5
