REMARK  Name = ZINCc70000001Ezk.0
REMARK                            x       y       z     vdW  Elec       q    Type
REMARK                         _______ _______ _______ _____ _____    ______ ____
ROOT
ATOM      1  C   LIG    1       -3.645   2.998   0.037  0.00  0.00    -0.740 A 
ATOM      2  C   LIG    1       -3.628   1.616   0.029  0.00  0.00    +0.170 A 
ATOM      3  C   LIG    1       -2.424   0.938   0.019  0.00  0.00    -0.090 A 
ATOM      4  C   LIG    1       -1.230   1.648   0.017  0.00  0.00    +0.270 A 
ATOM      5  C   LIG    1       -1.251   3.037   0.030  0.00  0.00    -0.090 A 
ATOM      6  C   LIG    1       -2.458   3.708   0.035  0.00  0.00    +0.170 A 
ENDROOT
BRANCH   1   7
ATOM      7  S   LIG    1       -5.183   3.859   0.050  0.00  0.00    +2.700 S 
ATOM      8  O   LIG    1       -6.146   2.967  -0.495  0.00  0.00    -0.960 OA
ATOM      9  O   LIG    1       -4.926   5.148  -0.489  0.00  0.00    -0.960 OA
BRANCH   7  11
ATOM     10  C   LIG    1       -4.778   4.943   2.494  0.00  0.00    +0.290 C 
ATOM     11  N   LIG    1       -5.602   4.089   1.635  0.00  0.00    -1.120 NA
ATOM     12  H   LIG    1       -6.393   3.658   1.995  0.00  0.00    +0.420 HD
ENDBRANCH   7  11
ENDBRANCH   1   7
BRANCH   4  13
ATOM     13  N   LIG    1       -0.011   0.966   0.007  0.00  0.00    -0.870 N 
ATOM     14  H   LIG    1        0.822   1.462   0.002  0.00  0.00    +0.400 HD
ATOM     15  H   LIG    1        0.002  -0.004   0.002  0.00  0.00    +0.400 HD
ENDBRANCH   4  13
TORSDOF 3
