REMARK  Name = ZINCnE00000rhnSY.1
REMARK                            x       y       z     vdW  Elec       q    Type
REMARK                         _______ _______ _______ _____ _____    ______ ____
ROOT
ATOM      1  C   LIG    1        3.542   5.917   0.000  0.00  0.00    +0.220 C 
ATOM      2  C   LIG    1        4.283   5.670  -1.315  0.00  0.00    +0.040 C 
ENDROOT
BRANCH   1   8
ATOM      3  C   LIG    1        5.562   8.166   0.951  0.00  0.00    +0.160 C 
ATOM      4  C   LIG    1        4.124   8.380   0.553  0.00  0.00    +0.080 A 
ATOM      5  N   LIG    1        3.494   9.526   0.541  0.00  0.00    -0.300 NA
ATOM      6  N   LIG    1        2.179   9.298   0.113  0.00  0.00    -0.370 N 
ATOM      7  C   LIG    1        2.046   7.978  -0.136  0.00  0.00    +0.250 A 
ATOM      8  C   LIG    1        3.233   7.386   0.134  0.00  0.00    -0.210 A 
BRANCH   6   9
ATOM      9  C   LIG    1        1.135  10.314  -0.043  0.00  0.00    +0.180 C 
ATOM     10  C   LIG    1        0.406  10.096  -1.370  0.00  0.00    +0.060 C 
ATOM     11  C   LIG    1        1.772  11.705  -0.034  0.00  0.00    +0.060 C 
ATOM     12  C   LIG    1        0.138  10.201   1.111  0.00  0.00    +0.040 C 
ENDBRANCH   6   9
ENDBRANCH   1   8
BRANCH   1  13
ATOM     13  N   LIG    1        2.292   5.153   0.007  0.00  0.00    -0.270 NA
ATOM     14  N   LIG    1        2.324   3.913   0.001  0.00  0.00    -0.130 NA
BRANCH  14  15
ATOM     15  C   LIG    1        1.155   3.199   0.008  0.00  0.00    +0.060 A 
ATOM     16  C   LIG    1       -0.071   3.860   0.022  0.00  0.00    +0.010 A 
ATOM     17  C   LIG    1       -1.247   3.134   0.030  0.00  0.00    -0.020 A 
ATOM     18  C   LIG    1       -1.218   1.750   0.017  0.00  0.00    +0.010 A 
ATOM     19  C   LIG    1       -0.013   1.076   0.008  0.00  0.00    +0.040 A 
ATOM     20  C   LIG    1        1.185   1.790   0.000  0.00  0.00    -0.070 A 
BRANCH  20  21
ATOM     21  C   LIG    1        2.475   1.075  -0.016  0.00  0.00    +0.520 C 
ATOM     22  O   LIG    1        3.523   1.705  -0.022  0.00  0.00    -0.650 OA
ATOM     23  O   LIG    1        2.497  -0.148  -0.022  0.00  0.00    -0.690 OA
ENDBRANCH  20  21
ENDBRANCH  14  15
ENDBRANCH   1  13
TORSDOF 5
