REMARK  Name = ZINCnE00000rhnSY.0
REMARK                            x       y       z     vdW  Elec       q    Type
REMARK                         _______ _______ _______ _____ _____    ______ ____
ROOT
ATOM      1  C   LIG    1       -4.584   5.610   0.158  0.00  0.00    +0.080 C 
ATOM      2  C   LIG    1       -3.213   6.227   0.262  0.00  0.00    +0.130 C 
ATOM      3  N   LIG    1       -2.158   5.473   0.227  0.00  0.00    -0.250 NA
ENDROOT
BRANCH   2   4
ATOM      4  C   LIG    1       -3.072   7.689   0.404  0.00  0.00    -0.170 A 
ATOM      5  C   LIG    1       -4.097   8.609   0.450  0.00  0.00    +0.240 A 
ATOM      6  N   LIG    1       -3.539   9.828   0.590  0.00  0.00    -0.360 N 
ATOM      7  N   LIG    1       -2.148   9.675   0.622  0.00  0.00    -0.300 NA
ATOM      8  C   LIG    1       -1.861   8.406   0.512  0.00  0.00    +0.110 A 
ATOM      9  C   LIG    1       -0.476   7.811   0.503  0.00  0.00    +0.150 C 
BRANCH   6  10
ATOM     10  C   LIG    1       -4.264  11.098   0.685  0.00  0.00    +0.180 C 
ATOM     11  C   LIG    1       -5.369  11.135  -0.373  0.00  0.00    +0.060 C 
ATOM     12  C   LIG    1       -3.295  12.258   0.452  0.00  0.00    +0.060 C 
ATOM     13  C   LIG    1       -4.887  11.225   2.077  0.00  0.00    +0.050 C 
ENDBRANCH   6  10
ENDBRANCH   2   4
BRANCH   3  14
ATOM     14  N   LIG    1       -2.292   4.085   0.092  0.00  0.00    -0.560 N 
ATOM     15  H   LIG    1       -3.175   3.688   0.025  0.00  0.00    +0.420 HD
BRANCH  14  16
ATOM     16  C   LIG    1       -1.165   3.281   0.054  0.00  0.00    +0.250 A 
ATOM     17  C   LIG    1        0.102   3.853   0.034  0.00  0.00    -0.070 A 
ATOM     18  C   LIG    1        1.222   3.049  -0.005  0.00  0.00    +0.020 A 
ATOM     19  C   LIG    1        1.097   1.668  -0.023  0.00  0.00    -0.080 A 
ATOM     20  C   LIG    1       -0.149   1.081  -0.004  0.00  0.00    +0.080 A 
ATOM     21  C   LIG    1       -1.296   1.880   0.030  0.00  0.00    -0.210 A 
BRANCH  21  22
ATOM     22  C   LIG    1       -2.630   1.261   0.045  0.00  0.00    +0.530 C 
ATOM     23  O   LIG    1       -3.630   1.961  -0.034  0.00  0.00    -0.690 OA
ATOM     24  O   LIG    1       -2.739   0.046   0.137  0.00  0.00    -0.680 OA
ENDBRANCH  21  22
ENDBRANCH  14  16
ENDBRANCH   3  14
TORSDOF 5
