REMARK  Name = ZINCpk00000xQxmG.0
REMARK                            x       y       z     vdW  Elec       q    Type
REMARK                         _______ _______ _______ _____ _____    ______ ____
ROOT
ATOM      1  C   LIG    1       -1.528   0.870   2.058  0.00  0.00    +0.520 C 
ATOM      2  N   LIG    1       -1.040   1.718   1.132  0.00  0.00    -0.600 N 
ATOM      3  C   LIG    1       -0.451   1.208  -0.114  0.00  0.00    +0.270 C 
ATOM      4  C   LIG    1       -1.140   1.886  -1.302  0.00  0.00    +0.010 C 
ATOM      5  C   LIG    1       -1.050   3.405  -1.141  0.00  0.00    +0.020 C 
ATOM      6  C   LIG    1       -1.771   3.827   0.141  0.00  0.00    +0.020 C 
ATOM      7  C   LIG    1       -1.089   3.171   1.346  0.00  0.00    +0.230 C 
ATOM      8  O   LIG    1       -2.095   1.304   3.039  0.00  0.00    -0.510 OA
ENDROOT
BRANCH   1   9
ATOM      9  C   LIG    1       -1.370  -0.618   1.876  0.00  0.00    +0.240 C 
BRANCH   9  10
ATOM     10  O   LIG    1       -1.965  -1.299   2.982  0.00  0.00    -0.280 OA
BRANCH  10  14
ATOM     11  C   LIG    1       -1.796  -5.423   2.954  0.00  0.00    -0.180 A 
ATOM     12  C   LIG    1       -2.415  -4.755   4.013  0.00  0.00    +0.130 A 
ATOM     13  C   LIG    1       -2.470  -3.379   4.019  0.00  0.00    -0.010 A 
ATOM     14  C   LIG    1       -1.909  -2.655   2.973  0.00  0.00    +0.160 A 
ATOM     15  C   LIG    1       -1.297  -3.316   1.915  0.00  0.00    -0.090 A 
ATOM     16  C   LIG    1       -1.234  -4.692   1.904  0.00  0.00    +0.090 A 
BRANCH  11  20
ATOM     17  N   LIG    1       -1.138  -7.541   1.921  0.00  0.00    -0.850 N 
ATOM     18  H   LIG    1       -1.098  -8.510   1.914  0.00  0.00    +0.410 HD
ATOM     19  H   LIG    1       -0.747  -7.034   1.192  0.00  0.00    +0.400 HD
ATOM     20  C   LIG    1       -1.736  -6.898   2.943  0.00  0.00    +0.570 C 
ATOM     21  O   LIG    1       -2.225  -7.533   3.857  0.00  0.00    -0.540 OA
ENDBRANCH  11  20
ENDBRANCH  10  14
ENDBRANCH   9  10
ENDBRANCH   1   9
BRANCH   7  22
ATOM     22  C   LIG    1       -1.887   3.476   2.616  0.00  0.00    +0.360 C 
BRANCH  22  23
ATOM     23  N   LIG    1       -1.926   4.924   2.831  0.00  0.00    -0.370 N 
ATOM     24  C   LIG    1       -3.038   5.672   2.997  0.00  0.00    +0.230 A 
ATOM     25  C   LIG    1       -2.648   6.956   3.171  0.00  0.00    -0.130 A 
ATOM     26  C   LIG    1       -1.252   6.996   3.100  0.00  0.00    +0.220 A 
ATOM     27  N   LIG    1       -0.818   5.779   2.896  0.00  0.00    -0.300 NA
ENDBRANCH  22  23
ENDBRANCH   7  22
TORSDOF 6
