REMARK  Name = ZINCrH000004nxR1.0
REMARK                            x       y       z     vdW  Elec       q    Type
REMARK                         _______ _______ _______ _____ _____    ______ ____
ROOT
ATOM      1  S   LIG    1       -2.608   0.885   0.740  0.00  0.00    +0.090 S 
ENDROOT
BRANCH   1   6
ATOM      2  N   LIG    1       -5.224   1.758   1.223  0.00  0.00    -0.410 N 
ATOM      3  C   LIG    1       -5.923   2.922   1.049  0.00  0.00    +0.390 A 
ATOM      4  N   LIG    1       -5.105   3.790   0.525  0.00  0.00    -0.280 NA
ATOM      5  N   LIG    1       -3.945   3.262   0.362  0.00  0.00    -0.290 NA
ATOM      6  C   LIG    1       -3.961   2.014   0.768  0.00  0.00    +0.160 A 
BRANCH   2  12
ATOM      7  C   LIG    1       -5.188   0.063   2.955  0.00  0.00    +0.150 A 
ATOM      8  C   LIG    1       -5.670  -1.125   3.480  0.00  0.00    -0.060 A 
ATOM      9  C   LIG    1       -6.654  -1.828   2.811  0.00  0.00    +0.080 A 
ATOM     10  C   LIG    1       -7.164  -1.346   1.619  0.00  0.00    +0.000 A 
ATOM     11  C   LIG    1       -6.692  -0.159   1.092  0.00  0.00    +0.080 A 
ATOM     12  C   LIG    1       -5.705   0.552   1.758  0.00  0.00    +0.060 A 
BRANCH   7  14
ATOM     13  C   LIG    1       -3.734   0.192   4.832  0.00  0.00    +0.250 C 
ATOM     14  O   LIG    1       -4.217   0.753   3.610  0.00  0.00    -0.300 OA
ENDBRANCH   7  14
ENDBRANCH   2  12
ENDBRANCH   1   6
BRANCH   1  15
ATOM     15  C   LIG    1       -1.330   1.944   0.019  0.00  0.00    +0.010 C 
ATOM     16  C   LIG    1       -1.720   2.311  -1.414  0.00  0.00    +0.090 C 
BRANCH  15  17
ATOM     17  C   LIG    1       -0.014   1.209   0.009  0.00  0.00    +0.540 C 
ATOM     18  N   LIG    1        1.143   1.898   0.001  0.00  0.00    -0.720 N 
ATOM     19  H   LIG    1        1.130   2.868   0.007  0.00  0.00    +0.400 HD
ATOM     20  O   LIG    1        0.002  -0.004   0.002  0.00  0.00    -0.520 OA
BRANCH  18  21
ATOM     21  C   LIG    1        2.422   1.183  -0.015  0.00  0.00    +0.270 C 
BRANCH  21  22
ATOM     22  C   LIG    1        3.571   2.193  -0.020  0.00  0.00    +0.060 C 
BRANCH  22  23
ATOM     23  C   LIG    1        4.886   1.458  -0.037  0.00  0.00    -0.120 C 
ATOM     24  C   LIG    1        5.451   1.250  -1.183  0.00  0.00    -0.050 C 
ATOM     25  C   LIG    1        6.756   0.529  -1.359  0.00  0.00    +0.050 C 
ATOM     26  C   LIG    1        7.502   0.453  -0.025  0.00  0.00    +0.010 C 
ATOM     27  C   LIG    1        6.530  -0.060   1.046  0.00  0.00    +0.010 C 
ATOM     28  C   LIG    1        5.457   1.006   1.276  0.00  0.00    +0.060 C 
ENDBRANCH  22  23
ENDBRANCH  21  22
ENDBRANCH  18  21
ENDBRANCH  15  17
ENDBRANCH   1  15
TORSDOF 8
