REMARK  Name = ZINCrD00000l0uFt.0
REMARK                            x       y       z     vdW  Elec       q    Type
REMARK                         _______ _______ _______ _____ _____    ______ ____
ROOT
ATOM      1  C   LIG    1       -4.097  -0.124   0.039  0.00  0.00    +0.540 C 
ATOM      2  N   LIG    1       -5.157   0.708   0.053  0.00  0.00    -0.610 N 
ATOM      3  C   LIG    1       -4.984   2.165   0.059  0.00  0.00    +0.340 C 
ATOM      4  C   LIG    1       -5.942   2.795  -0.920  0.00  0.00    -0.100 A 
ATOM      5  C   LIG    1       -5.768   4.138  -1.224  0.00  0.00    +0.020 A 
ATOM      6  C   LIG    1       -6.619   4.772  -2.106  0.00  0.00    +0.010 A 
ATOM      7  C   LIG    1       -7.652   4.064  -2.691  0.00  0.00    +0.000 A 
ATOM      8  C   LIG    1       -7.824   2.729  -2.392  0.00  0.00    +0.010 A 
ATOM      9  C   LIG    1       -6.967   2.086  -1.507  0.00  0.00    -0.060 A 
ATOM     10  C   LIG    1       -7.208   0.624  -1.239  0.00  0.00    +0.070 C 
ATOM     11  C   LIG    1       -6.536   0.192   0.057  0.00  0.00    +0.300 C 
ATOM     12  O   LIG    1       -4.268  -1.324   0.034  0.00  0.00    -0.520 OA
ENDROOT
BRANCH  10  13
ATOM     13  C   LIG    1       -8.691   0.377  -1.136  0.00  0.00    -0.080 A 
ATOM     14  C   LIG    1       -9.433   1.020  -0.164  0.00  0.00    +0.010 A 
ATOM     15  C   LIG    1      -10.794   0.796  -0.072  0.00  0.00    +0.000 A 
ATOM     16  C   LIG    1      -11.412  -0.078  -0.947  0.00  0.00    +0.000 A 
ATOM     17  C   LIG    1      -10.668  -0.725  -1.916  0.00  0.00    +0.000 A 
ATOM     18  C   LIG    1       -9.308  -0.498  -2.011  0.00  0.00    +0.010 A 
ENDBRANCH  10  13
BRANCH   1  19
ATOM     19  C   LIG    1       -2.698   0.438   0.029  0.00  0.00    +0.120 C 
BRANCH  19  20
ATOM     20  S   LIG    1       -1.503  -0.921   0.011  0.00  0.00    +0.020 S 
BRANCH  20  26
ATOM     21  C   LIG    1        1.240  -0.664  -0.013  0.00  0.00    +0.140 A 
ATOM     22  C   LIG    1        2.393   0.105  -0.020  0.00  0.00    +0.250 A 
ATOM     23  N   LIG    1        2.287   1.427  -0.012  0.00  0.00    -0.480 NA
ATOM     24  C   LIG    1        1.108   2.014   0.002  0.00  0.00    +0.450 A 
ATOM     25  N   LIG    1       -0.016   1.325   0.009  0.00  0.00    -0.490 NA
ATOM     26  C   LIG    1        0.002  -0.004   0.002  0.00  0.00    +0.070 A 
BRANCH  21  27
ATOM     27  N   LIG    1        1.309  -2.063  -0.021  0.00  0.00    -0.850 N 
ATOM     28  H   LIG    1        2.171  -2.506  -0.032  0.00  0.00    +0.410 HD
ATOM     29  H   LIG    1        0.493  -2.589  -0.016  0.00  0.00    +0.410 HD
ENDBRANCH  21  27
ENDBRANCH  20  26
ENDBRANCH  19  20
ENDBRANCH   1  19
TORSDOF 5
