REMARK  Name = ZINCrD000000DbWa.0
REMARK                            x       y       z     vdW  Elec       q    Type
REMARK                         _______ _______ _______ _____ _____    ______ ____
ROOT
ATOM      1  N   LIG    1        2.338   1.199  -0.014  0.00  0.00    -0.910 N 
ATOM      2  C   LIG    1        1.216   2.043   0.001  0.00  0.00    +0.140 A 
ATOM      3  C   LIG    1        1.191   3.436   0.010  0.00  0.00    +0.020 A 
ATOM      4  C   LIG    1       -0.015   4.126   0.026  0.00  0.00    +0.040 A 
ATOM      5  C   LIG    1       -1.221   3.490   0.034  0.00  0.00    +0.030 A 
ATOM      6  C   LIG    1       -1.247   2.084   0.019  0.00  0.00    -0.030 A 
ATOM      7  C   LIG    1       -2.435   1.336   0.021  0.00  0.00    +0.090 A 
ATOM      8  C   LIG    1       -2.376  -0.027   0.013  0.00  0.00    +0.000 A 
ATOM      9  C   LIG    1       -1.149  -0.703   0.009  0.00  0.00    +0.190 A 
ATOM     10  C   LIG    1        0.002  -0.004   0.002  0.00  0.00    -0.650 A 
ATOM     11  C   LIG    1       -0.017   1.394   0.010  0.00  0.00    -0.080 A 
ATOM     12  S   LIG    1        1.734  -0.364  -0.016  0.00  0.00    +2.670 S 
ATOM     13  O   LIG    1        2.041  -0.941  -1.278  0.00  0.00    -0.910 OA
ATOM     14  O   LIG    1        2.064  -0.954   1.234  0.00  0.00    -0.930 OA
ENDROOT
BRANCH   1  15
ATOM     15  C   LIG    1        3.747   1.602  -0.025  0.00  0.00    +0.440 C 
BRANCH  15  19
ATOM     16  O   LIG    1        5.280   4.480  -3.518  0.00  0.00    -0.520 OA
ATOM     17  C   LIG    1        4.949   3.365  -3.149  0.00  0.00    +0.510 A 
ATOM     18  C   LIG    1        4.543   3.144  -1.827  0.00  0.00    -0.150 A 
ATOM     19  C   LIG    1        4.182   1.867  -1.444  0.00  0.00    +0.180 A 
ATOM     20  N   LIG    1        4.212   0.878  -2.322  0.00  0.00    -0.510 NA
ATOM     21  C   LIG    1        4.592   1.081  -3.582  0.00  0.00    +0.400 A 
ATOM     22  C   LIG    1        4.609   0.001  -4.484  0.00  0.00    +0.070 A 
ATOM     23  C   LIG    1        4.998   0.210  -5.773  0.00  0.00    +0.140 A 
ATOM     24  C   LIG    1        5.375   1.498  -6.182  0.00  0.00    -0.140 A 
ATOM     25  C   LIG    1        5.351   2.525  -5.301  0.00  0.00    +0.330 A 
ATOM     26 BR   LIG    1        5.916   1.801  -7.968  0.00  0.00    +0.000 Br
ATOM     27  N   LIG    1        4.964   2.325  -4.010  0.00  0.00    -0.430 N 
ENDBRANCH  15  19
ENDBRANCH   1  15
TORSDOF 2
