REMARK  Name = ZINCqH00000357OT.0
REMARK                            x       y       z     vdW  Elec       q    Type
REMARK                         _______ _______ _______ _____ _____    ______ ____
ROOT
ATOM      1  N   LIG    1       -1.491   1.699   0.044  0.00  0.00    -0.660 N 
ATOM      2  H   LIG    1       -1.511   2.667   0.102  0.00  0.00    +0.410 HD
ATOM      3  C   LIG    1       -0.311   1.048   0.053  0.00  0.00    +0.560 C 
ATOM      4  O   LIG    1       -0.288  -0.168   0.055  0.00  0.00    -0.510 OA
ENDROOT
BRANCH   1   9
ATOM      5  C   LIG    1       -3.938  -1.047   0.292  0.00  0.00    -0.100 A 
ATOM      6  C   LIG    1       -5.071  -0.435  -0.249  0.00  0.00    +0.080 A 
ATOM      7  C   LIG    1       -5.006   0.873  -0.684  0.00  0.00    +0.050 A 
ATOM      8  C   LIG    1       -3.821   1.581  -0.588  0.00  0.00    -0.040 A 
ATOM      9  C   LIG    1       -2.687   0.979  -0.051  0.00  0.00    +0.150 A 
ATOM     10 CL   LIG    1       -3.749   3.226  -1.139  0.00  0.00    -0.050 Cl
ATOM     11  C   LIG    1       -2.741  -0.335   0.385  0.00  0.00    +0.120 A 
BRANCH   5  12
ATOM     12  C   LIG    1       -4.005  -2.447   0.759  0.00  0.00    +0.510 C 
ATOM     13  O   LIG    1       -3.019  -2.978   1.230  0.00  0.00    -0.490 OA
BRANCH  12  15
ATOM     14  C   LIG    1       -5.152  -4.505   1.143  0.00  0.00    +0.290 C 
ATOM     15  O   LIG    1       -5.160  -3.134   0.664  0.00  0.00    -0.350 OA
ENDBRANCH  12  15
ENDBRANCH   5  12
ENDBRANCH   1   9
BRANCH   3  16
ATOM     16  C   LIG    1        0.952   1.810   0.056  0.00  0.00    -0.160 A 
ATOM     17  C   LIG    1        0.928   3.207   0.049  0.00  0.00    +0.070 A 
ATOM     18  C   LIG    1        2.108   3.915   0.057  0.00  0.00    -0.010 A 
ATOM     19  C   LIG    1        3.325   3.240   0.061  0.00  0.00    +0.180 A 
ATOM     20  C   LIG    1        3.354   1.849   0.064  0.00  0.00    +0.010 A 
ATOM     21  C   LIG    1        2.177   1.135   0.061  0.00  0.00    +0.110 A 
BRANCH  19  22
ATOM     22  N   LIG    1        4.520   3.961   0.063  0.00  0.00    -0.670 N 
ATOM     23  H   LIG    1        4.577   4.803   0.541  0.00  0.00    +0.420 HD
ATOM     24  C   LIG    1        5.593   3.486  -0.599  0.00  0.00    +0.540 C 
ATOM     25  O   LIG    1        5.494   2.486  -1.277  0.00  0.00    -0.510 OA
BRANCH  24  26
ATOM     26  C   LIG    1        6.917   4.200  -0.497  0.00  0.00    -0.070 C 
ATOM     27  C   LIG    1        7.437   4.906  -1.751  0.00  0.00    +0.060 C 
ATOM     28  C   LIG    1        8.098   3.612  -1.273  0.00  0.00    +0.080 C 
ENDBRANCH  24  26
ENDBRANCH  19  22
ENDBRANCH   3  16
TORSDOF 6
