REMARK  Name = ZINCvU0000000Gm5.0
REMARK                            x       y       z     vdW  Elec       q    Type
REMARK                         _______ _______ _______ _____ _____    ______ ____
ROOT
ATOM      1  N   LIG    1       -1.259   8.548  -0.253  0.00  0.00    -0.730 N 
ATOM      2  H   LIG    1       -2.054   8.107  -0.590  0.00  0.00    +0.410 HD
ENDROOT
BRANCH   1   3
ATOM      3  C   LIG    1       -1.321   9.882   0.156  0.00  0.00    +0.220 A 
ATOM      4  C   LIG    1       -0.185  10.515   0.644  0.00  0.00    -0.080 A 
ATOM      5  C   LIG    1       -0.249  11.835   1.043  0.00  0.00    +0.070 A 
ATOM      6  C   LIG    1       -1.446  12.525   0.966  0.00  0.00    -0.150 A 
ATOM      7  C   LIG    1       -2.580  11.897   0.485  0.00  0.00    +0.060 A 
ATOM      8  C   LIG    1       -2.521  10.578   0.080  0.00  0.00    -0.070 A 
BRANCH   6   9
ATOM      9  C   LIG    1       -1.513  13.965   1.407  0.00  0.00    +0.200 C 
BRANCH   9  10
ATOM     10  C   LIG    1       -1.863  14.026   2.871  0.00  0.00    +0.110 A 
ATOM     11  N   LIG    1       -1.002  14.022   3.817  0.00  0.00    -0.470 NA
ATOM     12  C   LIG    1       -1.458  14.085   5.083  0.00  0.00    +0.080 A 
ATOM     13  C   LIG    1       -0.743  14.101   6.298  0.00  0.00    +0.060 A 
ATOM     14  C   LIG    1       -1.404  14.163   7.487  0.00  0.00    +0.030 A 
ATOM     15  C   LIG    1       -2.790  14.211   7.526  0.00  0.00    +0.040 A 
ATOM     16  C   LIG    1       -3.515  14.198   6.355  0.00  0.00    +0.060 A 
ATOM     17  C   LIG    1       -2.855  14.135   5.130  0.00  0.00    -0.180 A 
ATOM     18  S   LIG    1       -3.457  14.101   3.475  0.00  0.00    +0.100 S 
ENDBRANCH   9  10
ENDBRANCH   6   9
ENDBRANCH   1   3
BRANCH   1  20
ATOM     19  C   LIG    1        0.835   8.087  -1.430  0.00  0.00    +0.050 C 
ATOM     20  C   LIG    1        0.008   7.816  -0.172  0.00  0.00    +0.250 C 
BRANCH  20  21
ATOM     21  C   LIG    1       -0.272   6.339  -0.063  0.00  0.00    +0.510 C 
ATOM     22  N   LIG    1        0.750   5.465   0.024  0.00  0.00    -0.660 N 
ATOM     23  H   LIG    1        1.662   5.789   0.085  0.00  0.00    +0.420 HD
ATOM     24  O   LIG    1       -1.417   5.938  -0.054  0.00  0.00    -0.510 OA
BRANCH  22  25
ATOM     25  C   LIG    1        0.494   4.087   0.027  0.00  0.00    +0.150 A 
ATOM     26  C   LIG    1        1.382   3.215  -0.588  0.00  0.00    +0.010 A 
ATOM     27  C   LIG    1        1.134   1.855  -0.581  0.00  0.00    +0.060 A 
ATOM     28  C   LIG    1       -0.006   1.360   0.031  0.00  0.00    +0.020 A 
ATOM     29  O   LIG    1       -0.475   0.085   0.172  0.00  0.00    -0.310 OA
ATOM     30  C   LIG    1       -1.865   0.223   0.523  0.00  0.00    +0.430 C 
ATOM     31  O   LIG    1       -1.927   1.505   1.176  0.00  0.00    -0.310 OA
ATOM     32  C   LIG    1       -0.899   2.233   0.649  0.00  0.00    +0.050 A 
ATOM     33  C   LIG    1       -0.647   3.594   0.646  0.00  0.00    +0.050 A 
ENDBRANCH  22  25
ENDBRANCH  20  21
ENDBRANCH   1  20
TORSDOF 6
