REMARK  Name = ZINCqH0000034mMr.0
REMARK                            x       y       z     vdW  Elec       q    Type
REMARK                         _______ _______ _______ _____ _____    ______ ____
ROOT
ATOM      1  N   LIG    1        3.713   5.316  -1.383  0.00  0.00    -0.730 N 
ATOM      2  H   LIG    1        3.408   4.766  -2.121  0.00  0.00    +0.400 HD
ATOM      3  C   LIG    1        4.338   6.485  -1.627  0.00  0.00    +0.520 C 
ATOM      4  O   LIG    1        4.719   7.174  -0.705  0.00  0.00    -0.530 OA
ENDROOT
BRANCH   1   5
ATOM      5  C   LIG    1        3.494   4.878  -0.002  0.00  0.00    +0.400 C 
BRANCH   5  14
ATOM      6  N   LIG    1        3.395   2.336  -0.017  0.00  0.00    -0.480 N 
ATOM      7  C   LIG    1        2.404   1.375  -0.013  0.00  0.00    +0.050 A 
ATOM      8  C   LIG    1        2.403  -0.013  -0.021  0.00  0.00    +0.010 A 
ATOM      9  C   LIG    1        1.205  -0.695  -0.014  0.00  0.00    +0.030 A 
ATOM     10  C   LIG    1        0.002  -0.004   0.002  0.00  0.00    +0.000 A 
ATOM     11  C   LIG    1       -0.017   1.362   0.009  0.00  0.00    +0.070 A 
ATOM     12  C   LIG    1        1.185   2.075   0.002  0.00  0.00    +0.040 A 
ATOM     13  N   LIG    1        1.489   3.398   0.007  0.00  0.00    -0.470 NA
ATOM     14  C   LIG    1        2.781   3.550  -0.004  0.00  0.00    +0.260 A 
BRANCH   6  16
ATOM     15  C   LIG    1        5.329   2.018  -1.480  0.00  0.00    +0.030 C 
ATOM     16  C   LIG    1        4.840   2.093  -0.033  0.00  0.00    +0.290 C 
ENDBRANCH   6  16
ENDBRANCH   5  14
ENDBRANCH   1   5
BRANCH   3  17
ATOM     17  C   LIG    1        4.563   6.937  -3.047  0.00  0.00    +0.060 C 
BRANCH  17  18
ATOM     18  C   LIG    1        5.287   8.285  -3.046  0.00  0.00    +0.130 C 
BRANCH  18  19
ATOM     19  C   LIG    1        5.512   8.736  -4.466  0.00  0.00    -0.170 A 
ATOM     20  C   LIG    1        6.622   8.550  -5.196  0.00  0.00    +0.230 A 
ATOM     21  N   LIG    1        6.458   9.093  -6.441  0.00  0.00    -0.600 N 
ATOM     22  H   LIG    1        7.124   9.081  -7.147  0.00  0.00    +0.420 HD
ATOM     23  C   LIG    1        5.210   9.666  -6.542  0.00  0.00    +0.090 A 
ATOM     24  C   LIG    1        4.545  10.342  -7.559  0.00  0.00    -0.010 A 
ATOM     25  C   LIG    1        3.266  10.809  -7.349  0.00  0.00    +0.030 A 
ATOM     26  C   LIG    1        2.632  10.611  -6.130  0.00  0.00    -0.030 A 
ATOM     27  C   LIG    1        3.266   9.948  -5.117  0.00  0.00    +0.050 A 
ATOM     28  C   LIG    1        4.562   9.467  -5.308  0.00  0.00    -0.100 A 
ENDBRANCH  18  19
ENDBRANCH  17  18
ENDBRANCH   3  17
TORSDOF 6
