REMARK  Name = ZINCrH000004sz4V.0
REMARK                            x       y       z     vdW  Elec       q    Type
REMARK                         _______ _______ _______ _____ _____    ______ ____
ROOT
ATOM      1  C   LIG    1       -3.879  -0.441   1.664  0.00  0.00    +0.570 C 
ATOM      2  N   LIG    1       -2.648   0.045   1.407  0.00  0.00    -0.720 N 
ATOM      3  H   LIG    1       -2.098   0.381   2.132  0.00  0.00    +0.400 HD
ATOM      4  O   LIG    1       -4.568  -0.862   0.756  0.00  0.00    -0.520 OA
ENDROOT
BRANCH   1  16
ATOM      5  C   LIG    1       -6.609  -1.237   2.160  0.00  0.00    +0.160 C 
ATOM      6  C   LIG    1       -5.718  -0.846   3.311  0.00  0.00    +0.220 A 
ATOM      7  N   LIG    1       -6.196  -0.873   4.527  0.00  0.00    -0.480 NA
ATOM      8  C   LIG    1       -5.449  -0.536   5.585  0.00  0.00    +0.160 A 
ATOM      9  C   LIG    1       -5.983  -0.571   6.884  0.00  0.00    +0.070 A 
ATOM     10  C   LIG    1       -5.205  -0.223   7.946  0.00  0.00    +0.070 A 
ATOM     11  C   LIG    1       -3.879   0.171   7.768  0.00  0.00    -0.040 A 
ATOM     12  C   LIG    1       -3.326   0.217   6.524  0.00  0.00    +0.060 A 
ATOM     13 CL   LIG    1       -2.922   0.606   9.149  0.00  0.00    -0.060 Cl
ATOM     14  C   LIG    1       -4.100  -0.136   5.406  0.00  0.00    -0.110 A 
ATOM     15  C   LIG    1       -3.562  -0.105   4.108  0.00  0.00    +0.140 A 
ATOM     16  C   LIG    1       -4.391  -0.461   3.050  0.00  0.00    -0.190 A 
ENDBRANCH   1  16
BRANCH   2  17
ATOM     17  C   LIG    1       -2.141   0.065   0.033  0.00  0.00    +0.350 C 
BRANCH  17  18
ATOM     18  C   LIG    1       -0.753   0.651   0.018  0.00  0.00    -0.180 A 
ATOM     19  C   LIG    1       -0.571   2.018  -0.140  0.00  0.00    +0.120 A 
ATOM     20  C   LIG    1        0.721   2.514  -0.153  0.00  0.00    -0.020 A 
ATOM     21  C   LIG    1        1.785   1.634  -0.004  0.00  0.00    +0.380 A 
ATOM     22  N   LIG    1        1.571   0.337   0.149  0.00  0.00    -0.510 NA
ATOM     23  C   LIG    1        0.351  -0.165   0.166  0.00  0.00    +0.330 A 
BRANCH  21  24
ATOM     24  N   LIG    1        3.095   2.122  -0.016  0.00  0.00    -0.330 N 
ATOM     25  C   LIG    1        4.227   1.383   0.118  0.00  0.00    +0.260 A 
ATOM     26  C   LIG    1        5.280   2.229   0.052  0.00  0.00    -0.100 A 
ATOM     27  C   LIG    1        4.781   3.525  -0.128  0.00  0.00    +0.270 A 
ATOM     28  N   LIG    1        3.476   3.461  -0.174  0.00  0.00    -0.290 NA
ENDBRANCH  21  24
ENDBRANCH  17  18
ENDBRANCH   2  17
TORSDOF 4
