REMARK  Name = ZINCpk00000y6tRk.0
REMARK                            x       y       z     vdW  Elec       q    Type
REMARK                         _______ _______ _______ _____ _____    ______ ____
ROOT
ATOM      1  C   LIG    1        0.392  -4.929  -1.597  0.00  0.00    +0.590 C 
ATOM      2  N   LIG    1        1.121  -4.043  -0.891  0.00  0.00    -0.600 N 
ATOM      3  C   LIG    1        1.661  -4.260   0.464  0.00  0.00    +0.290 C 
ATOM      4  C   LIG    1        1.843  -2.838   1.051  0.00  0.00    -0.010 C 
ATOM      5  C   LIG    1        2.309  -2.043  -0.198  0.00  0.00    +0.080 C 
ATOM      6  C   LIG    1        1.509  -2.699  -1.343  0.00  0.00    +0.260 C 
ATOM      7  O   LIG    1       -0.003  -4.641  -2.710  0.00  0.00    -0.540 OA
ENDROOT
BRANCH   1  11
ATOM      8  C   LIG    1       -0.500  -8.683   0.074  0.00  0.00    +0.110 A 
ATOM      9  C   LIG    1       -0.974  -8.398  -1.203  0.00  0.00    -0.030 A 
ATOM     10  C   LIG    1       -0.682  -7.164  -1.755  0.00  0.00    +0.090 A 
ATOM     11  C   LIG    1        0.073  -6.252  -1.018  0.00  0.00    +0.030 A 
ATOM     12  N   LIG    1        0.513  -6.562   0.196  0.00  0.00    -0.410 NA
ATOM     13  C   LIG    1        0.248  -7.723   0.751  0.00  0.00    +0.240 A 
BRANCH   8  14
ATOM     14  O   LIG    1       -0.763  -9.882   0.653  0.00  0.00    -0.300 OA
BRANCH  14  16
ATOM     15  C   LIG    1       -1.106 -12.258   0.373  0.00  0.00    +0.070 C 
ATOM     16  C   LIG    1       -1.431 -10.857  -0.150  0.00  0.00    +0.150 C 
ATOM     17  C   LIG    1       -2.942 -10.626  -0.081  0.00  0.00    +0.030 C 
ENDBRANCH  14  16
ENDBRANCH   8  14
ENDBRANCH   1  11
BRANCH   5  18
ATOM     18  C   LIG    1        1.952  -0.585  -0.065  0.00  0.00    -0.230 A 
ATOM     19  C   LIG    1        2.810   0.457  -0.161  0.00  0.00    +0.230 A 
ATOM     20  N   LIG    1        2.101   1.592   0.017  0.00  0.00    -0.380 N 
ATOM     21  N   LIG    1        0.763   1.235   0.229  0.00  0.00    -0.290 NA
ATOM     22  C   LIG    1        2.636   2.955  -0.009  0.00  0.00    +0.360 C 
ATOM     23  C   LIG    1        0.675  -0.069   0.180  0.00  0.00    +0.240 A 
ENDBRANCH   5  18
BRANCH   4  24
ATOM     24  C   LIG    1        2.918  -2.827   2.140  0.00  0.00    +0.190 C 
BRANCH  24  25
ATOM     25  O   LIG    1        2.412  -3.466   3.314  0.00  0.00    -0.570 OA
ATOM     26  H   LIG    1        3.042  -3.496   4.047  0.00  0.00    +0.380 HD
ENDBRANCH  24  25
ENDBRANCH   4  24
TORSDOF 6
