REMARK  Name = ZINCqH0000034ibC.1
REMARK                            x       y       z     vdW  Elec       q    Type
REMARK                         _______ _______ _______ _____ _____    ______ ____
ROOT
ATOM      1  C   LIG    1       -1.933   0.450  -1.452  0.00  0.00    +0.170 A 
ATOM      2  C   LIG    1       -0.732  -0.228  -1.655  0.00  0.00    +0.000 A 
ATOM      3  C   LIG    1        0.226   0.287  -2.480  0.00  0.00    +0.110 A 
ATOM      4  C   LIG    1        0.007   1.504  -3.130  0.00  0.00    +0.040 A 
ATOM      5  N   LIG    1        0.748   2.253  -3.989  0.00  0.00    -0.460 NA
ATOM      6  C   LIG    1        0.088   3.324  -4.317  0.00  0.00    +0.280 A 
ATOM      7  N   LIG    1       -1.122   3.338  -3.693  0.00  0.00    -0.590 N 
ATOM      8  H   LIG    1       -1.801   4.026  -3.771  0.00  0.00    +0.420 HD
ATOM      9  C   LIG    1       -1.203   2.191  -2.929  0.00  0.00    +0.070 A 
ATOM     10  C   LIG    1       -2.172   1.655  -2.093  0.00  0.00    +0.010 A 
ENDROOT
BRANCH   6  11
ATOM     11  C   LIG    1        0.589   4.394  -5.253  0.00  0.00    +0.250 C 
ATOM     12  C   LIG    1        1.992   4.882  -4.810  0.00  0.00    +0.050 C 
ATOM     13  C   LIG    1        2.556   5.417  -6.154  0.00  0.00    +0.010 C 
ATOM     14  C   LIG    1        1.931   4.448  -7.181  0.00  0.00    +0.200 C 
ATOM     15  O   LIG    1        0.778   3.855  -6.571  0.00  0.00    -0.370 OA
ENDBRANCH   6  11
BRANCH   1  16
ATOM     16  N   LIG    1       -2.904  -0.092  -0.604  0.00  0.00    -1.060 N 
ATOM     17  H   LIG    1       -3.831  -0.124  -0.887  0.00  0.00    +0.430 HD
BRANCH  16  18
ATOM     18  S   LIG    1       -2.470  -0.678   0.882  0.00  0.00    +2.690 S 
ATOM     19  O   LIG    1       -3.678  -1.036   1.541  0.00  0.00    -0.940 OA
ATOM     20  O   LIG    1       -1.407  -1.594   0.658  0.00  0.00    -0.950 OA
BRANCH  18  26
ATOM     21  C   LIG    1       -2.574   1.754   2.118  0.00  0.00    +0.020 A 
ATOM     22  C   LIG    1       -2.039   2.805   2.837  0.00  0.00    -0.010 A 
ATOM     23  C   LIG    1       -0.713   2.772   3.228  0.00  0.00    +0.070 A 
ATOM     24  C   LIG    1        0.077   1.686   2.900  0.00  0.00    -0.010 A 
ATOM     25  C   LIG    1       -0.459   0.634   2.181  0.00  0.00    +0.140 A 
ATOM     26  C   LIG    1       -1.786   0.666   1.794  0.00  0.00    -0.670 A 
BRANCH  21  28
ATOM     27  C   LIG    1       -4.890   1.169   2.786  0.00  0.00    +0.040 C 
ATOM     28  C   LIG    1       -4.019   1.791   1.692  0.00  0.00    +0.050 C 
ENDBRANCH  21  28
ENDBRANCH  18  26
ENDBRANCH  16  18
ENDBRANCH   1  16
TORSDOF 5
