REMARK  Name = ZINCqH0000034ibC.0
REMARK                            x       y       z     vdW  Elec       q    Type
REMARK                         _______ _______ _______ _____ _____    ______ ____
ROOT
ATOM      1  C   LIG    1       -0.686  -0.233  -1.029  0.00  0.00    +0.140 A 
ATOM      2  C   LIG    1        0.054  -1.273  -0.471  0.00  0.00    +0.040 A 
ATOM      3  C   LIG    1       -0.097  -2.562  -0.935  0.00  0.00    +0.040 A 
ATOM      4  C   LIG    1       -0.991  -2.828  -1.963  0.00  0.00    +0.050 A 
ATOM      5  N   LIG    1       -1.366  -3.976  -2.636  0.00  0.00    -0.590 N 
ATOM      6  H   LIG    1       -1.027  -4.872  -2.479  0.00  0.00    +0.420 HD
ATOM      7  C   LIG    1       -2.298  -3.618  -3.559  0.00  0.00    +0.290 A 
ATOM      8  N   LIG    1       -2.518  -2.336  -3.499  0.00  0.00    -0.470 NA
ATOM      9  C   LIG    1       -1.741  -1.785  -2.531  0.00  0.00    +0.060 A 
ATOM     10  C   LIG    1       -1.585  -0.482  -2.050  0.00  0.00    +0.070 A 
ENDROOT
BRANCH   7  11
ATOM     11  C   LIG    1       -2.977  -4.566  -4.513  0.00  0.00    +0.250 C 
ATOM     12  C   LIG    1       -4.516  -4.404  -4.428  0.00  0.00    +0.050 C 
ATOM     13  C   LIG    1       -4.944  -4.913  -5.831  0.00  0.00    +0.010 C 
ATOM     14  C   LIG    1       -3.773  -4.446  -6.721  0.00  0.00    +0.200 C 
ATOM     15  O   LIG    1       -2.640  -4.234  -5.870  0.00  0.00    -0.370 OA
ENDBRANCH   7  11
BRANCH   1  16
ATOM     16  N   LIG    1       -0.524   1.072  -0.549  0.00  0.00    -1.050 N 
ATOM     17  H   LIG    1       -1.302   1.622  -0.368  0.00  0.00    +0.430 HD
BRANCH  16  18
ATOM     18  S   LIG    1        0.996   1.677  -0.296  0.00  0.00    +2.690 S 
ATOM     19  O   LIG    1        1.679   0.725   0.507  0.00  0.00    -0.950 OA
ATOM     20  O   LIG    1        0.829   3.037   0.084  0.00  0.00    -0.940 OA
BRANCH  18  26
ATOM     21  C   LIG    1        1.346   2.499  -2.876  0.00  0.00    +0.020 A 
ATOM     22  C   LIG    1        1.993   2.515  -4.097  0.00  0.00    -0.010 A 
ATOM     23  C   LIG    1        3.105   1.719  -4.301  0.00  0.00    +0.070 A 
ATOM     24  C   LIG    1        3.572   0.910  -3.283  0.00  0.00    -0.020 A 
ATOM     25  C   LIG    1        2.928   0.898  -2.059  0.00  0.00    +0.130 A 
ATOM     26  C   LIG    1        1.817   1.694  -1.855  0.00  0.00    -0.680 A 
BRANCH  21  28
ATOM     27  C   LIG    1        0.572   4.761  -2.219  0.00  0.00    +0.060 C 
ATOM     28  C   LIG    1        0.131   3.362  -2.655  0.00  0.00    +0.050 C 
ENDBRANCH  21  28
ENDBRANCH  18  26
ENDBRANCH  16  18
ENDBRANCH   1  16
TORSDOF 5
