REMARK  Name = ZINCrD00000762sa.0
REMARK                            x       y       z     vdW  Elec       q    Type
REMARK                         _______ _______ _______ _____ _____    ______ ____
ROOT
ATOM      1  C   LIG    1        2.157  -3.834  -0.040  0.00  0.00    +0.190 A 
ATOM      2  N   LIG    1        3.322  -3.257  -0.048  0.00  0.00    -0.370 NA
ATOM      3  O   LIG    1        3.199  -2.050  -0.046  0.00  0.00    +0.090 OA
ATOM      4  C   LIG    1        1.896  -1.728  -0.026  0.00  0.00    +0.270 A 
ATOM      5  N   LIG    1        1.225  -2.868  -0.025  0.00  0.00    -0.460 NA
ENDROOT
BRANCH   4   6
ATOM      6  C   LIG    1        1.324  -0.368  -0.013  0.00  0.00    -0.150 A 
ATOM      7  C   LIG    1        0.002  -0.004   0.002  0.00  0.00    +0.270 A 
ATOM      8  O   LIG    1       -0.016   1.333   0.009  0.00  0.00    +0.120 OA
ATOM      9  N   LIG    1        1.098   1.801   0.001  0.00  0.00    -0.320 NA
ATOM     10  C   LIG    1        2.014   0.880  -0.012  0.00  0.00    +0.060 A 
BRANCH  10  11
ATOM     11  C   LIG    1        3.507   1.088  -0.026  0.00  0.00    +0.250 C 
ATOM     12  C   LIG    1        4.002   1.526   1.370  0.00  0.00    +0.030 C 
ATOM     13  C   LIG    1        5.118   2.550   1.068  0.00  0.00    +0.010 C 
ATOM     14  C   LIG    1        5.165   2.611  -0.475  0.00  0.00    +0.210 C 
ATOM     15  O   LIG    1        3.853   2.184  -0.901  0.00  0.00    -0.360 OA
ENDBRANCH  10  11
ENDBRANCH   4   6
BRANCH   1  16
ATOM     16  C   LIG    1        1.900  -5.319  -0.045  0.00  0.00    +0.230 C 
BRANCH  16  20
ATOM     17  C   LIG    1        1.615  -6.702  -4.079  0.00  0.00    +0.140 A 
ATOM     18  C   LIG    1        2.845  -6.682  -3.436  0.00  0.00    +0.010 A 
ATOM     19  C   LIG    1        2.934  -6.234  -2.132  0.00  0.00    +0.060 A 
ATOM     20  C   LIG    1        1.799  -5.806  -1.467  0.00  0.00    -0.100 A 
ATOM     21  C   LIG    1        0.572  -5.830  -2.103  0.00  0.00    +0.070 A 
ATOM     22  C   LIG    1        0.477  -6.272  -3.409  0.00  0.00    +0.000 A 
BRANCH  17  25
ATOM     23  C   LIG    1        0.742  -7.718  -7.362  0.00  0.00    +0.160 A 
ATOM     24  C   LIG    1        0.380  -7.236  -6.157  0.00  0.00    +0.130 A 
ATOM     25  N   LIG    1        1.521  -7.155  -5.402  0.00  0.00    -0.410 N 
ATOM     26  C   LIG    1        2.544  -7.603  -6.176  0.00  0.00    +0.400 A 
ATOM     27  N   LIG    1        2.066  -7.936  -7.344  0.00  0.00    -0.480 NA
ENDBRANCH  17  25
ENDBRANCH  16  20
ENDBRANCH   1  16
TORSDOF 5
