REMARK  Name = ZINCrH000004mcGu.0
REMARK                            x       y       z     vdW  Elec       q    Type
REMARK                         _______ _______ _______ _____ _____    ______ ____
ROOT
ATOM      1  C   LIG    1       -3.594   1.920  -0.168  0.00  0.00    +0.130 A 
ATOM      2  C   LIG    1       -4.811   1.264  -0.247  0.00  0.00    -0.080 A 
ATOM      3  C   LIG    1       -4.850  -0.124  -0.252  0.00  0.00    +0.190 A 
ATOM      4  C   LIG    1       -3.671  -0.853  -0.178  0.00  0.00    +0.020 A 
ATOM      5  C   LIG    1       -2.456  -0.200  -0.104  0.00  0.00    +0.090 A 
ATOM      6  C   LIG    1       -2.412   1.186  -0.094  0.00  0.00    +0.110 A 
ENDROOT
BRANCH   3   7
ATOM      7  N   LIG    1       -6.081  -0.789  -0.333  0.00  0.00    -0.690 N 
ATOM      8  H   LIG    1       -6.801  -0.414  -0.863  0.00  0.00    +0.410 HD
ATOM      9  C   LIG    1       -6.263  -1.951   0.327  0.00  0.00    +0.700 C 
ATOM     10  N   LIG    1       -7.474  -2.543   0.325  0.00  0.00    -0.740 N 
ATOM     11  H   LIG    1       -8.213  -2.135  -0.152  0.00  0.00    +0.400 HD
ATOM     12  O   LIG    1       -5.337  -2.463   0.924  0.00  0.00    -0.570 OA
BRANCH  10  13
ATOM     13  C   LIG    1       -7.673  -3.806   1.041  0.00  0.00    +0.290 C 
BRANCH  13  14
ATOM     14  C   LIG    1       -9.125  -4.260   0.880  0.00  0.00    +0.010 C 
BRANCH  14  15
ATOM     15  C   LIG    1       -9.332  -5.579   1.629  0.00  0.00    +0.170 C 
ATOM     16  C   LIG    1      -10.762  -6.104   1.378  0.00  0.00    +0.010 C 
ATOM     17  C   LIG    1      -11.156  -6.666   2.771  0.00  0.00    +0.000 C 
ATOM     18  C   LIG    1      -10.425  -5.671   3.707  0.00  0.00    +0.200 C 
ATOM     19  O   LIG    1       -9.191  -5.365   3.038  0.00  0.00    -0.380 OA
ENDBRANCH  14  15
ENDBRANCH  13  14
ENDBRANCH  10  13
ENDBRANCH   3   7
BRANCH   6  20
ATOM     20  N   LIG    1       -1.178   1.849  -0.013  0.00  0.00    -0.640 N 
ATOM     21  H   LIG    1       -1.107   2.684   0.475  0.00  0.00    +0.420 HD
ATOM     22  C   LIG    1       -0.091   1.326  -0.615  0.00  0.00    +0.650 C 
ATOM     23  O   LIG    1       -0.161   0.240  -1.156  0.00  0.00    -0.550 OA
BRANCH  22  24
ATOM     24  O   LIG    1        1.069   2.009  -0.621  0.00  0.00    -0.360 OA
BRANCH  24  25
ATOM     25  C   LIG    1        2.196   1.387  -1.293  0.00  0.00    +0.140 C 
ATOM     26  C   LIG    1        2.511   0.046  -0.626  0.00  0.00    +0.040 C 
ATOM     27  C   LIG    1        3.417   2.304  -1.196  0.00  0.00    +0.080 C 
ATOM     28  C   LIG    1        1.848   1.155  -2.765  0.00  0.00    +0.040 C 
ENDBRANCH  24  25
ENDBRANCH  22  24
ENDBRANCH   6  20
BRANCH   1  30
ATOM     29  C   LIG    1       -4.803   3.966  -0.243  0.00  0.00    +0.250 C 
ATOM     30  O   LIG    1       -3.553   3.279  -0.164  0.00  0.00    -0.310 OA
ENDBRANCH   1  30
TORSDOF 8
