REMARK  Name = ZINCpk000000nPLY.0
REMARK                            x       y       z     vdW  Elec       q    Type
REMARK                         _______ _______ _______ _____ _____    ______ ____
ROOT
ATOM      1  N   LIG    1        2.402   1.106  -0.015  0.00  0.00    -0.550 N 
ATOM      2  C   LIG    1        3.712   1.758  -0.135  0.00  0.00    +0.310 C 
ATOM      3  C   LIG    1        4.740   0.701   0.331  0.00  0.00    +0.010 C 
ATOM      4  C   LIG    1        3.989  -0.618   0.036  0.00  0.00    +0.090 C 
ATOM      5  C   LIG    1        2.528  -0.229   0.074  0.00  0.00    +0.510 C 
ATOM      6  O   LIG    1        1.604  -1.009   0.170  0.00  0.00    -0.500 OA
ENDROOT
BRANCH   1  11
ATOM      7  C   LIG    1       -1.218   1.751   0.002  0.00  0.00    -0.050 A 
ATOM      8  C   LIG    1       -1.237   3.133   0.031  0.00  0.00    -0.020 A 
ATOM      9  C   LIG    1       -0.051   3.845   0.039  0.00  0.00    +0.040 A 
ATOM     10  C   LIG    1        1.157   3.176   0.024  0.00  0.00    -0.040 A 
ATOM     11  C   LIG    1        1.180   1.787   0.000  0.00  0.00    +0.170 A 
ATOM     12  C   LIG    1       -0.013   1.076  -0.007  0.00  0.00    +0.000 A 
BRANCH   7  14
ATOM     13  C   LIG    1       -3.322   1.318   1.240  0.00  0.00    +0.040 C 
ATOM     14  C   LIG    1       -2.513   0.980  -0.013  0.00  0.00    +0.020 C 
ATOM     15  C   LIG    1       -3.318   1.360  -1.258  0.00  0.00    +0.040 C 
ENDBRANCH   7  14
ENDBRANCH   1  11
BRANCH   3  16
ATOM     16  C   LIG    1        5.034   0.838   1.803  0.00  0.00    +0.520 C 
ATOM     17  N   LIG    1        5.812  -0.072   2.422  0.00  0.00    -0.720 N 
ATOM     18  H   LIG    1        6.184  -0.814   1.920  0.00  0.00    +0.410 HD
ATOM     19  O   LIG    1        4.569   1.766   2.430  0.00  0.00    -0.520 OA
BRANCH  17  20
ATOM     20  C   LIG    1        6.097   0.061   3.853  0.00  0.00    +0.270 C 
ATOM     21  C   LIG    1        4.968  -0.595   4.668  0.00  0.00    +0.060 C 
ATOM     22  C   LIG    1        5.485  -0.715   6.125  0.00  0.00    -0.300 C 
ATOM     23  S   LIG    1        7.213  -1.279   5.889  0.00  0.00    +2.400 S 
ATOM     24  O   LIG    1        8.070  -0.560   6.766  0.00  0.00    -0.930 OA
ATOM     25  O   LIG    1        7.247  -2.700   5.875  0.00  0.00    -0.930 OA
ATOM     26  C   LIG    1        7.424  -0.650   4.185  0.00  0.00    -0.310 C 
ENDBRANCH  17  20
ENDBRANCH   3  16
TORSDOF 4
