REMARK  Name = ZINCvU00000007Bz.0
REMARK                            x       y       z     vdW  Elec       q    Type
REMARK                         _______ _______ _______ _____ _____    ______ ____
ROOT
ATOM      1  C   LIG    1        0.383  -3.961   5.610  0.00  0.00    +0.040 C 
ENDROOT
BRANCH   1   2
ATOM      2  C   LIG    1       -0.248  -3.393   4.337  0.00  0.00    +0.010 C 
BRANCH   2   3
ATOM      3  C   LIG    1       -0.883  -2.035   4.645  0.00  0.00    +0.260 C 
BRANCH   3   5
ATOM      4  C   LIG    1       -2.108  -0.296   3.457  0.00  0.00    +0.600 C 
ATOM      5  N   LIG    1       -1.487  -1.491   3.426  0.00  0.00    -0.720 N 
ATOM      6  H   LIG    1       -1.439  -1.991   2.596  0.00  0.00    +0.400 HD
ATOM      7  O   LIG    1       -2.168   0.331   4.497  0.00  0.00    -0.520 OA
BRANCH   4  13
ATOM      8  C   LIG    1       -5.194  -0.731   2.359  0.00  0.00    +0.170 C 
ATOM      9  C   LIG    1       -4.085   0.070   1.726  0.00  0.00    +0.060 A 
ATOM     10  N   LIG    1       -4.136   0.747   0.617  0.00  0.00    -0.350 NA
ATOM     11  O   LIG    1       -3.089   1.292   0.365  0.00  0.00    +0.100 OA
ATOM     12  C   LIG    1       -2.143   1.058   1.278  0.00  0.00    +0.030 A 
ATOM     13  C   LIG    1       -2.716   0.252   2.231  0.00  0.00    -0.260 A 
BRANCH  12  14
ATOM     14  C   LIG    1       -0.729   1.579   1.267  0.00  0.00    +0.080 C 
ATOM     15  C   LIG    1       -0.750   3.109   1.275  0.00  0.00    +0.050 C 
ATOM     16  C   LIG    1       -0.013   1.086   0.008  0.00  0.00    +0.050 C 
ENDBRANCH  12  14
ENDBRANCH   4  13
ENDBRANCH   3   5
ENDBRANCH   2   3
ENDBRANCH   1   2
BRANCH   1  17
ATOM     17  C   LIG    1        1.018  -5.319   5.302  0.00  0.00    +0.180 C 
BRANCH  17  18
ATOM     18  O   LIG    1        1.607  -5.849   6.491  0.00  0.00    -0.310 OA
BRANCH  18  19
ATOM     19  C   LIG    1        2.218  -7.060   6.390  0.00  0.00    +0.090 A 
ATOM     20  C   LIG    1        2.244  -7.724   5.173  0.00  0.00    -0.040 A 
ATOM     21  C   LIG    1        2.870  -8.951   5.069  0.00  0.00    -0.040 A 
ATOM     22  C   LIG    1        3.462  -9.524   6.184  0.00  0.00    +0.090 A 
ATOM     23  C   LIG    1        3.431  -8.863   7.403  0.00  0.00    +0.030 A 
ATOM     24  C   LIG    1        2.810  -7.633   7.506  0.00  0.00    +0.030 A 
BRANCH  22  25
ATOM     25  O   LIG    1        4.074 -10.734   6.083  0.00  0.00    -0.310 OA
BRANCH  25  26
ATOM     26  C   LIG    1        4.068 -11.358   4.798  0.00  0.00    +0.240 C 
BRANCH  26  27
ATOM     27  C   LIG    1        4.786 -12.681   4.879  0.00  0.00    -0.100 A 
ATOM     28  C   LIG    1        6.146 -12.745   4.642  0.00  0.00    +0.020 A 
ATOM     29  C   LIG    1        6.806 -13.957   4.720  0.00  0.00    +0.010 A 
ATOM     30  C   LIG    1        6.103 -15.108   5.026  0.00  0.00    +0.020 A 
ATOM     31  C   LIG    1        4.742 -15.045   5.258  0.00  0.00    +0.010 A 
ATOM     32  C   LIG    1        4.083 -13.832   5.184  0.00  0.00    +0.020 A 
ENDBRANCH  26  27
ENDBRANCH  25  26
ENDBRANCH  22  25
ENDBRANCH  18  19
ENDBRANCH  17  18
ENDBRANCH   1  17
TORSDOF 11
