REMARK  Name = ZINCrg000000oh3Y.0
REMARK                            x       y       z     vdW  Elec       q    Type
REMARK                         _______ _______ _______ _____ _____    ______ ____
ROOT
ATOM      1  N   LIG    1        2.849   3.805  -0.005  0.00  0.00    -0.720 N 
ATOM      2  H   LIG    1        3.595   3.184  -0.015  0.00  0.00    +0.400 HD
ATOM      3  C   LIG    1        1.584   3.338   0.005  0.00  0.00    +0.710 C 
ATOM      4  N   LIG    1        1.356   2.010  -0.000  0.00  0.00    -0.740 N 
ATOM      5  H   LIG    1        2.102   1.390  -0.011  0.00  0.00    +0.400 HD
ATOM      6  O   LIG    1        0.650   4.116   0.018  0.00  0.00    -0.590 OA
ENDROOT
BRANCH   1   9
ATOM      7  C   LIG    1        4.981   5.499  -0.935  0.00  0.00    +0.140 C 
ATOM      8  C   LIG    1        3.536   5.803  -1.365  0.00  0.00    +0.010 C 
ATOM      9  C   LIG    1        3.097   5.248   0.001  0.00  0.00    +0.270 C 
ATOM     10  C   LIG    1        4.494   5.631   0.517  0.00  0.00    +0.170 C 
BRANCH  10  11
ATOM     11  O   LIG    1        5.062   4.664   1.402  0.00  0.00    -0.370 OA
ATOM     12  C   LIG    1        5.946   5.218   2.379  0.00  0.00    +0.220 C 
ENDBRANCH  10  11
BRANCH   7  13
ATOM     13  O   LIG    1        5.917   6.509  -1.319  0.00  0.00    -0.370 OA
BRANCH  13  15
ATOM     14  C   LIG    1        7.764   7.259  -2.685  0.00  0.00    +0.040 C 
ATOM     15  C   LIG    1        6.813   6.106  -2.357  0.00  0.00    +0.160 C 
ENDBRANCH  13  15
ENDBRANCH   7  13
ENDBRANCH   1   9
BRANCH   4  16
ATOM     16  C   LIG    1       -0.018   1.503   0.010  0.00  0.00    +0.350 C 
BRANCH  16  17
ATOM     17  C   LIG    1        0.002  -0.004   0.002  0.00  0.00    -0.160 A 
ATOM     18  C   LIG    1       -0.006  -0.694  -1.193  0.00  0.00    +0.310 A 
ATOM     19  N   LIG    1        0.017  -2.014  -1.213  0.00  0.00    -0.490 NA
ATOM     20  C   LIG    1        0.037  -2.726  -0.098  0.00  0.00    +0.300 A 
ATOM     21  C   LIG    1        0.041  -2.095   1.145  0.00  0.00    +0.030 A 
ATOM     22  F   LIG    1        0.062  -2.823   2.283  0.00  0.00    -0.120 F 
ATOM     23  C   LIG    1        0.023  -0.712   1.197  0.00  0.00    +0.090 A 
BRANCH  20  24
ATOM     24  N   LIG    1        0.055  -4.115  -0.166  0.00  0.00    -0.470 N 
ATOM     25  C   LIG    1        1.212  -4.664   0.556  0.00  0.00    +0.180 C 
ATOM     26  C   LIG    1        1.160  -6.193   0.506  0.00  0.00    +0.250 C 
ATOM     27  O   LIG    1        1.122  -6.619  -0.858  0.00  0.00    -0.380 OA
ATOM     28  C   LIG    1        0.007  -6.104  -1.591  0.00  0.00    +0.230 C 
ATOM     29  C   LIG    1        0.048  -4.574  -1.563  0.00  0.00    +0.190 C 
ENDBRANCH  20  24
ENDBRANCH  16  17
ENDBRANCH   4  16
TORSDOF 7
