REMARK  Name = ZINCrD0000074GYV.0
REMARK                            x       y       z     vdW  Elec       q    Type
REMARK                         _______ _______ _______ _____ _____    ______ ____
ROOT
ATOM      1  N   LIG    1        5.914  -4.985  -0.078  0.00  0.00    -0.660 N 
ATOM      2  H   LIG    1        6.803  -4.604  -0.154  0.00  0.00    +0.430 HD
ATOM      3  C   LIG    1        4.835  -4.178  -0.068  0.00  0.00    +0.520 C 
ATOM      4  O   LIG    1        3.720  -4.656  -0.074  0.00  0.00    -0.490 OA
ENDROOT
BRANCH   1   9
ATOM      5  C   LIG    1        5.258 -10.606   0.321  0.00  0.00    +0.110 C 
ATOM      6  C   LIG    1        5.433  -9.113   0.215  0.00  0.00    -0.100 A 
ATOM      7  C   LIG    1        4.467  -8.267   0.730  0.00  0.00    +0.110 A 
ATOM      8  C   LIG    1        4.624  -6.898   0.634  0.00  0.00    +0.040 A 
ATOM      9  C   LIG    1        5.753  -6.371   0.020  0.00  0.00    +0.220 A 
ATOM     10  C   LIG    1        6.718  -7.223  -0.501  0.00  0.00    -0.080 A 
ATOM     11  C   LIG    1        6.558  -8.591  -0.397  0.00  0.00    +0.120 A 
BRANCH  10  12
ATOM     12  N   LIG    1        7.919  -6.666  -1.162  0.00  0.00    +0.040 N 
ATOM     13  O   LIG    1        8.107  -5.462  -1.170  0.00  0.00    -0.190 OA
ATOM     14  O   LIG    1        8.720  -7.410  -1.698  0.00  0.00    -0.140 OA
ENDBRANCH  10  12
ENDBRANCH   1   9
BRANCH   3  15
ATOM     15  C   LIG    1        5.013  -2.682  -0.048  0.00  0.00    +0.270 C 
BRANCH  15  16
ATOM     16  O   LIG    1        3.710  -2.039  -0.039  0.00  0.00    -0.330 OA
BRANCH  16  17
ATOM     17  C   LIG    1        3.693  -0.692  -0.021  0.00  0.00    +0.510 C 
ATOM     18  O   LIG    1        4.737  -0.071  -0.013  0.00  0.00    -0.480 OA
BRANCH  17  19
ATOM     19  C   LIG    1        2.406   0.028  -0.011  0.00  0.00    -0.150 A 
ATOM     20  C   LIG    1        1.203  -0.682  -0.021  0.00  0.00    +0.120 A 
ATOM     21  C   LIG    1        0.004  -0.003  -0.013  0.00  0.00    -0.020 A 
ATOM     22  C   LIG    1       -0.014   1.382   0.006  0.00  0.00    +0.100 A 
ATOM     23  C   LIG    1        1.167   2.097   0.016  0.00  0.00    -0.070 A 
ATOM     24  C   LIG    1        2.383   1.430   0.007  0.00  0.00    +0.170 A 
BRANCH  24  25
ATOM     25  O   LIG    1        3.545   2.131   0.017  0.00  0.00    -0.290 OA
BRANCH  25  26
ATOM     26  C   LIG    1        3.442   3.556   0.035  0.00  0.00    +0.600 C 
ATOM     27  F   LIG    1        2.750   3.959   1.183  0.00  0.00    -0.200 F 
ATOM     28  F   LIG    1        2.752   3.989  -1.102  0.00  0.00    -0.200 F 
ENDBRANCH  25  26
ENDBRANCH  24  25
ENDBRANCH  17  19
ENDBRANCH  16  17
ENDBRANCH  15  16
ENDBRANCH   3  15
TORSDOF 8
