REMARK  Name = ZINCrD0000074o2Z.0
REMARK                            x       y       z     vdW  Elec       q    Type
REMARK                         _______ _______ _______ _____ _____    ______ ____
ROOT
ATOM      1  C   LIG    1        0.060  -4.249  -0.022  0.00  0.00    +0.520 C 
ATOM      2  O   LIG    1       -0.984  -4.871  -0.016  0.00  0.00    -0.500 OA
ENDROOT
BRANCH   1   3
ATOM      3  C   LIG    1        0.040  -2.775  -0.013  0.00  0.00    -0.170 A 
ATOM      4  C   LIG    1       -1.179  -2.090   0.002  0.00  0.00    +0.140 A 
ATOM      5  C   LIG    1       -1.193  -0.714   0.010  0.00  0.00    -0.020 A 
ATOM      6  C   LIG    1        0.002  -0.004   0.002  0.00  0.00    +0.170 A 
ATOM      7  C   LIG    1        1.216  -0.681  -0.019  0.00  0.00    -0.090 A 
ATOM      8  C   LIG    1        1.240  -2.057  -0.021  0.00  0.00    +0.130 A 
BRANCH   6   9
ATOM      9  O   LIG    1       -0.016   1.353   0.009  0.00  0.00    -0.300 OA
BRANCH   9  10
ATOM     10  C   LIG    1        1.248   2.019   0.001  0.00  0.00    +0.260 C 
BRANCH  10  11
ATOM     11  C   LIG    1        1.030   3.510   0.011  0.00  0.00    -0.100 A 
ATOM     12  C   LIG    1        0.925   4.201  -1.181  0.00  0.00    +0.030 A 
ATOM     13  C   LIG    1        0.720   5.568  -1.172  0.00  0.00    +0.010 A 
ATOM     14  C   LIG    1        0.631   6.246   0.030  0.00  0.00    +0.020 A 
ATOM     15  C   LIG    1        0.743   5.555   1.222  0.00  0.00    +0.010 A 
ATOM     16  C   LIG    1        0.942   4.187   1.213  0.00  0.00    +0.030 A 
ENDBRANCH  10  11
ENDBRANCH   9  10
ENDBRANCH   6   9
ENDBRANCH   1   3
BRANCH   1  17
ATOM     17  O   LIG    1        1.236  -4.907  -0.037  0.00  0.00    -0.330 OA
BRANCH  17  18
ATOM     18  C   LIG    1        1.179  -6.358  -0.044  0.00  0.00    +0.280 C 
BRANCH  18  21
ATOM     19  N   LIG    1        2.774  -8.248  -0.070  0.00  0.00    -0.630 N 
ATOM     20  H   LIG    1        2.013  -8.850  -0.066  0.00  0.00    +0.420 HD
ATOM     21  C   LIG    1        2.579  -6.915  -0.061  0.00  0.00    +0.530 C 
ATOM     22  O   LIG    1        3.531  -6.163  -0.065  0.00  0.00    -0.490 OA
BRANCH  19  26
ATOM     23  C   LIG    1        7.734  -8.746  -0.119  0.00  0.00    +0.190 C 
ATOM     24  C   LIG    1        6.245  -8.974  -0.106  0.00  0.00    -0.020 A 
ATOM     25  C   LIG    1        5.282  -8.024  -0.092  0.00  0.00    -0.040 A 
ATOM     26  C   LIG    1        4.070  -8.764  -0.085  0.00  0.00    +0.250 A 
ATOM     27  N   LIG    1        4.413 -10.025  -0.090  0.00  0.00    -0.390 NA
ATOM     28  O   LIG    1        5.615 -10.158  -0.107  0.00  0.00    +0.100 OA
ENDBRANCH  19  26
ENDBRANCH  18  21
ENDBRANCH  17  18
ENDBRANCH   1  17
TORSDOF 8
