REMARK  Name = ZINCkj000005kuqX.0
REMARK                            x       y       z     vdW  Elec       q    Type
REMARK                         _______ _______ _______ _____ _____    ______ ____
ROOT
ATOM      1  C   LIG    1       -1.901   5.049  -2.136  0.00  0.00    +0.230 C 
ENDROOT
BRANCH   1   8
ATOM      2  C   LIG    1       -0.825   5.840  -4.698  0.00  0.00    +0.100 C 
ATOM      3  C   LIG    1       -2.316   5.749  -4.503  0.00  0.00    -0.050 A 
ATOM      4  C   LIG    1       -3.169   6.044  -5.549  0.00  0.00    +0.040 A 
ATOM      5  C   LIG    1       -4.538   5.961  -5.370  0.00  0.00    +0.050 A 
ATOM      6  C   LIG    1       -5.053   5.582  -4.145  0.00  0.00    +0.030 A 
ATOM      7  C   LIG    1       -4.199   5.282  -3.099  0.00  0.00    -0.010 A 
ATOM      8  C   LIG    1       -2.831   5.371  -3.277  0.00  0.00    -0.140 A 
ENDBRANCH   1   8
BRANCH   1   9
ATOM      9  N   LIG    1       -2.632   5.147  -0.865  0.00  0.00    -0.500 N 
ATOM     10  H   LIG    1       -2.041   4.832  -0.111  0.00  0.00    +0.440 HD
ATOM     11  H   LIG    1       -3.459   4.570  -0.907  0.00  0.00    +0.430 HD
BRANCH   9  12
ATOM     12  C   LIG    1       -3.022   6.544  -0.631  0.00  0.00    +0.230 C 
BRANCH  12  13
ATOM     13  C   LIG    1       -3.783   6.646   0.692  0.00  0.00    +0.200 C 
ATOM     14  C   LIG    1       -4.189   8.101   0.936  0.00  0.00    +0.050 C 
BRANCH  13  15
ATOM     15  O   LIG    1       -4.954   5.829   0.632  0.00  0.00    -0.560 OA
ATOM     16  H   LIG    1       -5.570   6.075  -0.071  0.00  0.00    +0.390 HD
ENDBRANCH  13  15
ENDBRANCH  12  13
ENDBRANCH   9  12
ENDBRANCH   1   9
BRANCH   1  17
ATOM     17  C   LIG    1       -1.360   3.627  -2.304  0.00  0.00    +0.230 C 
BRANCH  17  18
ATOM     18  N   LIG    1       -0.507   3.289  -1.157  0.00  0.00    -0.550 NA
ATOM     19  C   LIG    1        0.701   4.126  -1.133  0.00  0.00    +0.140 C 
ATOM     20  C   LIG    1        1.529   3.782   0.107  0.00  0.00    +0.230 C 
ATOM     21  O   LIG    1        1.838   2.386   0.098  0.00  0.00    -0.380 OA
ATOM     22  C   LIG    1        0.684   1.541   0.074  0.00  0.00    +0.230 C 
ATOM     23  C   LIG    1       -0.153   1.862  -1.167  0.00  0.00    +0.180 C 
ENDBRANCH  17  18
ENDBRANCH   1  17
TORSDOF 7
