REMARK  Name = ZINCrg000000rtv1.0
REMARK                            x       y       z     vdW  Elec       q    Type
REMARK                         _______ _______ _______ _____ _____    ______ ____
ROOT
ATOM      1  C   LIG    1       -0.285   1.773   0.265  0.00  0.00    +0.050 C 
ATOM      2  C   LIG    1       -0.790   1.747   1.708  0.00  0.00    +0.280 C 
ATOM      3  N   LIG    1        0.069   0.871   2.520  0.00  0.00    -0.740 N 
ATOM      4  H   LIG    1        0.740   1.242   3.114  0.00  0.00    +0.420 HD
ATOM      5  C   LIG    1       -0.109  -0.512   2.411  0.00  0.00    +0.330 C 
ATOM      6  N   LIG    1       -1.292  -0.985   2.127  0.00  0.00    -0.270 NA
ATOM      7  N   LIG    1       -2.381  -0.128   1.942  0.00  0.00    -0.390 N 
ATOM      8  C   LIG    1       -2.195   1.193   1.747  0.00  0.00    +0.490 C 
ATOM      9  O   LIG    1       -3.148   1.930   1.603  0.00  0.00    -0.500 OA
ENDROOT
BRANCH   7  10
ATOM     10  C   LIG    1       -3.680  -0.648   1.958  0.00  0.00    +0.150 A 
ATOM     11  C   LIG    1       -4.075  -1.503   2.980  0.00  0.00    +0.020 A 
ATOM     12  C   LIG    1       -5.359  -2.009   2.996  0.00  0.00    +0.020 A 
ATOM     13  C   LIG    1       -6.249  -1.676   1.991  0.00  0.00    +0.010 A 
ATOM     14  C   LIG    1       -5.857  -0.830   0.970  0.00  0.00    +0.030 A 
ATOM     15  C   LIG    1       -4.576  -0.315   0.950  0.00  0.00    +0.030 A 
ENDBRANCH   7  10
BRANCH   5  16
ATOM     16  C   LIG    1        1.029  -1.427   2.614  0.00  0.00    +0.590 C 
ATOM     17  N   LIG    1        0.850  -2.758   2.507  0.00  0.00    -0.690 N 
ATOM     18  H   LIG    1       -0.027  -3.115   2.297  0.00  0.00    +0.410 HD
ATOM     19  O   LIG    1        2.128  -0.980   2.877  0.00  0.00    -0.510 OA
BRANCH  17  20
ATOM     20  C   LIG    1        1.981  -3.667   2.709  0.00  0.00    +0.310 C 
ATOM     21  C   LIG    1        2.742  -3.855   1.414  0.00  0.00    -0.110 A 
ATOM     22  C   LIG    1        3.136  -2.929   0.463  0.00  0.00    +0.040 A 
ATOM     23  C   LIG    1        3.833  -3.337  -0.658  0.00  0.00    +0.010 A 
ATOM     24  C   LIG    1        4.138  -4.674  -0.831  0.00  0.00    +0.020 A 
ATOM     25  C   LIG    1        3.746  -5.599   0.116  0.00  0.00    +0.010 A 
ATOM     26  C   LIG    1        3.047  -5.192   1.240  0.00  0.00    -0.090 A 
ATOM     27  C   LIG    1        2.513  -5.994   2.407  0.00  0.00    +0.080 C 
ATOM     28  C   LIG    1        1.475  -5.076   3.087  0.00  0.00    +0.180 C 
BRANCH  28  29
ATOM     29  O   LIG    1        1.489  -5.256   4.505  0.00  0.00    -0.550 OA
ATOM     30  H   LIG    1        1.180  -6.126   4.794  0.00  0.00    +0.390 HD
ENDBRANCH  28  29
ENDBRANCH  17  20
ENDBRANCH   5  16
TORSDOF 4
