REMARK  Name = ZINCrD00000l459M.0
REMARK                            x       y       z     vdW  Elec       q    Type
REMARK                         _______ _______ _______ _____ _____    ______ ____
ROOT
ATOM      1  C   LIG    1       -0.029   1.086  -0.001  0.00  0.00    +0.040 C 
ATOM      2  C   LIG    1       -0.729   1.579   1.267  0.00  0.00    +0.290 C 
ENDROOT
BRANCH   2   3
ATOM      3  C   LIG    1       -0.749   3.086   1.275  0.00  0.00    -0.120 A 
ATOM      4  C   LIG    1       -1.690   3.767   0.525  0.00  0.00    +0.040 A 
ATOM      5  C   LIG    1       -1.715   5.148   0.534  0.00  0.00    +0.010 A 
ATOM      6  C   LIG    1       -0.786   5.853   1.290  0.00  0.00    +0.190 A 
ATOM      7  C   LIG    1        0.161   5.165   2.038  0.00  0.00    -0.020 A 
ATOM      8  C   LIG    1        0.177   3.784   2.028  0.00  0.00    +0.050 A 
BRANCH   6   9
ATOM      9  N   LIG    1       -0.806   7.252   1.298  0.00  0.00    -0.570 N 
ATOM     10  C   LIG    1        0.037   8.111   2.143  0.00  0.00    +0.260 C 
ATOM     11  C   LIG    1       -0.386   9.541   1.754  0.00  0.00    +0.270 C 
ATOM     12  N   LIG    1       -1.423   9.336   0.732  0.00  0.00    -0.740 N 
ATOM     13  H   LIG    1       -1.905  10.040   0.272  0.00  0.00    +0.440 HD
ATOM     14  C   LIG    1       -1.591   8.022   0.533  0.00  0.00    +0.700 C 
ATOM     15  O   LIG    1       -2.388   7.569  -0.266  0.00  0.00    -0.570 OA
ENDBRANCH   6   9
ENDBRANCH   2   3
BRANCH   2  16
ATOM     16  N   LIG    1       -2.103   1.072   1.296  0.00  0.00    -0.730 N 
ATOM     17  H   LIG    1       -2.829   1.620   0.960  0.00  0.00    +0.400 HD
ATOM     18  C   LIG    1       -2.358  -0.156   1.788  0.00  0.00    +0.590 C 
ATOM     19  O   LIG    1       -1.447  -0.844   2.209  0.00  0.00    -0.540 OA
BRANCH  18  20
ATOM     20  C   LIG    1       -3.736  -0.665   1.817  0.00  0.00    -0.220 A 
ATOM     21  C   LIG    1       -4.854  -0.017   1.384  0.00  0.00    +0.290 A 
ATOM     22  N   LIG    1       -5.942  -0.803   1.572  0.00  0.00    -0.570 N 
ATOM     23  H   LIG    1       -6.851  -0.555   1.340  0.00  0.00    +0.420 HD
ATOM     24  C   LIG    1       -5.574  -2.005   2.140  0.00  0.00    +0.110 A 
ATOM     25  C   LIG    1       -6.290  -3.133   2.526  0.00  0.00    -0.030 A 
ATOM     26  C   LIG    1       -5.628  -4.217   3.066  0.00  0.00    +0.120 A 
ATOM     27  C   LIG    1       -4.250  -4.188   3.241  0.00  0.00    -0.030 A 
ATOM     28  C   LIG    1       -3.526  -3.077   2.868  0.00  0.00    +0.120 A 
ATOM     29  F   LIG    1       -6.327  -5.312   3.436  0.00  0.00    -0.140 F 
ATOM     30  C   LIG    1       -4.181  -1.980   2.314  0.00  0.00    -0.070 A 
ENDBRANCH  18  20
ENDBRANCH   2  16
TORSDOF 4
