REMARK  Name = ZINCrH000004uQ2R.0
REMARK                            x       y       z     vdW  Elec       q    Type
REMARK                         _______ _______ _______ _____ _____    ______ ____
ROOT
ATOM      1  O   LIG    1        2.577   5.654  -0.610  0.00  0.00    -0.510 OA
ATOM      2  C   LIG    1        2.344   5.769   0.578  0.00  0.00    +0.560 C 
ATOM      3  N   LIG    1        1.082   5.641   1.034  0.00  0.00    -0.720 N 
ATOM      4  H   LIG    1        0.896   5.734   1.981  0.00  0.00    +0.400 HD
ENDROOT
BRANCH   3   5
ATOM      5  C   LIG    1       -0.009   5.363   0.097  0.00  0.00    +0.290 C 
ATOM      6  C   LIG    1       -1.319   5.890   0.679  0.00  0.00    +0.020 C 
ATOM      7  C   LIG    1       -2.473   5.401  -0.205  0.00  0.00    +0.030 C 
ATOM      8  C   LIG    1       -2.621   3.893  -0.014  0.00  0.00    +0.080 C 
ATOM      9  C   LIG    1       -1.294   3.204  -0.197  0.00  0.00    -0.070 A 
ATOM     10  C   LIG    1       -1.303   1.835  -0.433  0.00  0.00    -0.010 A 
ATOM     11  C   LIG    1       -0.120   1.143  -0.594  0.00  0.00    +0.010 A 
ATOM     12  C   LIG    1        1.084   1.819  -0.533  0.00  0.00    -0.010 A 
ATOM     13  C   LIG    1        1.095   3.180  -0.308  0.00  0.00    +0.030 A 
ATOM     14  C   LIG    1       -0.094   3.877  -0.139  0.00  0.00    -0.100 A 
ENDBRANCH   3   5
BRANCH   2  15
ATOM     15  C   LIG    1        3.442   6.050   1.521  0.00  0.00    -0.130 A 
ATOM     16  C   LIG    1        3.179   6.189   2.886  0.00  0.00    +0.070 A 
ATOM     17  C   LIG    1        4.211   6.446   3.762  0.00  0.00    +0.000 A 
ATOM     18  C   LIG    1        5.510   6.579   3.296  0.00  0.00    +0.060 A 
ATOM     19  C   LIG    1        5.786   6.449   1.950  0.00  0.00    -0.020 A 
ATOM     20  C   LIG    1        4.760   6.184   1.051  0.00  0.00    -0.050 A 
BRANCH  20  21
ATOM     21  S   LIG    1        5.109   6.019  -0.668  0.00  0.00    +0.050 S 
BRANCH  21  22
ATOM     22  C   LIG    1        6.867   6.450  -0.771  0.00  0.00    -0.040 C 
ATOM     23  C   LIG    1        7.053   7.962  -0.555  0.00  0.00    +0.090 C 
ATOM     24  C   LIG    1        8.483   8.351  -0.980  0.00  0.00    -0.310 C 
ATOM     25  S   LIG    1        8.949   7.127  -2.257  0.00  0.00    +2.390 S 
ATOM     26  O   LIG    1        9.037   7.773  -3.519  0.00  0.00    -0.930 OA
ATOM     27  O   LIG    1       10.036   6.343  -1.783  0.00  0.00    -0.930 OA
ATOM     28  C   LIG    1        7.410   6.134  -2.188  0.00  0.00    -0.270 C 
ENDBRANCH  21  22
ENDBRANCH  20  21
ENDBRANCH   2  15
TORSDOF 4
