REMARK  Name = ZINCvU0000000AdG.0
REMARK                            x       y       z     vdW  Elec       q    Type
REMARK                         _______ _______ _______ _____ _____    ______ ____
ROOT
ATOM      1  C   LIG    1        0.386   2.867   1.529  0.00  0.00    +0.510 C 
ATOM      2  N   LIG    1        0.591   2.215   2.690  0.00  0.00    -0.640 N 
ATOM      3  H   LIG    1        1.298   1.553   2.756  0.00  0.00    +0.430 HD
ATOM      4  O   LIG    1       -0.498   3.694   1.446  0.00  0.00    -0.460 OA
ENDROOT
BRANCH   2   5
ATOM      5  C   LIG    1       -0.207   2.488   3.789  0.00  0.00    +0.330 A 
ATOM      6  N   LIG    1       -1.164   3.349   3.806  0.00  0.00    -0.460 NA
ATOM      7  C   LIG    1       -1.857   3.500   4.954  0.00  0.00    +0.080 A 
ATOM      8  C   LIG    1       -2.939   4.364   5.223  0.00  0.00    +0.110 A 
ATOM      9  C   LIG    1       -3.519   4.387   6.466  0.00  0.00    -0.030 A 
ATOM     10  C   LIG    1       -3.051   3.557   7.480  0.00  0.00    +0.140 A 
ATOM     11  C   LIG    1       -1.993   2.703   7.237  0.00  0.00    +0.040 A 
ATOM     12  C   LIG    1       -1.394   2.671   5.980  0.00  0.00    -0.140 A 
ATOM     13  S   LIG    1       -0.050   1.714   5.360  0.00  0.00    +0.070 S 
BRANCH  10  14
ATOM     14  O   LIG    1       -3.634   3.588   8.708  0.00  0.00    -0.250 OA
BRANCH  14  15
ATOM     15  C   LIG    1       -4.680   4.434   8.898  0.00  0.00    +0.080 A 
ATOM     16  C   LIG    1       -4.454   5.730   9.340  0.00  0.00    +0.010 A 
ATOM     17  C   LIG    1       -5.518   6.590   9.527  0.00  0.00    +0.020 A 
ATOM     18  C   LIG    1       -6.809   6.158   9.284  0.00  0.00    +0.020 A 
ATOM     19  C   LIG    1       -7.037   4.866   8.848  0.00  0.00    +0.020 A 
ATOM     20  C   LIG    1       -5.976   4.003   8.654  0.00  0.00    +0.010 A 
ENDBRANCH  14  15
ENDBRANCH  10  14
ENDBRANCH   2   5
BRANCH   1  21
ATOM     21  C   LIG    1        1.254   2.570   0.333  0.00  0.00    +0.070 C 
BRANCH  21  22
ATOM     22  C   LIG    1        0.813   3.440  -0.846  0.00  0.00    +0.100 C 
BRANCH  22  26
ATOM     23  C   LIG    1        3.280   2.601  -4.237  0.00  0.00    +0.100 A 
ATOM     24  C   LIG    1        3.644   3.592  -3.340  0.00  0.00    -0.030 A 
ATOM     25  C   LIG    1        2.842   3.864  -2.247  0.00  0.00    +0.020 A 
ATOM     26  C   LIG    1        1.681   3.143  -2.041  0.00  0.00    -0.080 A 
ATOM     27  C   LIG    1        1.312   2.152  -2.933  0.00  0.00    -0.030 A 
ATOM     28  C   LIG    1        2.108   1.878  -4.033  0.00  0.00    +0.100 A 
BRANCH  23  30
ATOM     29  C   LIG    1        5.252   3.117  -5.462  0.00  0.00    +0.250 C 
ATOM     30  O   LIG    1        4.065   2.336  -5.316  0.00  0.00    -0.310 OA
ENDBRANCH  23  30
BRANCH  28  31
ATOM     31  O   LIG    1        1.746   0.904  -4.910  0.00  0.00    -0.310 OA
ATOM     32  C   LIG    1        0.531   0.203  -4.636  0.00  0.00    +0.240 C 
ENDBRANCH  28  31
ENDBRANCH  22  26
ENDBRANCH  21  22
ENDBRANCH   1  21
TORSDOF 8
