REMARK  Name = ZINCvU00000008Kv.0
REMARK                            x       y       z     vdW  Elec       q    Type
REMARK                         _______ _______ _______ _____ _____    ______ ____
ROOT
ATOM      1  N   LIG    1       -2.461   3.823   0.044  0.00  0.00    -0.420 N 
ATOM      2  C   LIG    1       -2.968   4.635  -0.936  0.00  0.00    +0.160 A 
ATOM      3  N   LIG    1       -4.133   5.070  -0.516  0.00  0.00    -0.280 NA
ATOM      4  N   LIG    1       -4.391   4.592   0.649  0.00  0.00    -0.270 NA
ATOM      5  C   LIG    1       -3.408   3.816   1.045  0.00  0.00    +0.290 A 
ENDROOT
BRANCH   5   6
ATOM      6  C   LIG    1       -3.330   3.079   2.322  0.00  0.00    -0.120 A 
ATOM      7  C   LIG    1       -2.314   2.279   2.737  0.00  0.00    +0.270 A 
ATOM      8  N   LIG    1       -2.601   1.772   3.971  0.00  0.00    -0.580 N 
ATOM      9  H   LIG    1       -2.026   1.174   4.473  0.00  0.00    +0.420 HD
ATOM     10  C   LIG    1       -3.827   2.232   4.401  0.00  0.00    +0.090 A 
ATOM     11  C   LIG    1       -4.570   2.024   5.559  0.00  0.00    -0.010 A 
ATOM     12  C   LIG    1       -5.795   2.636   5.708  0.00  0.00    +0.040 A 
ATOM     13  C   LIG    1       -6.300   3.461   4.714  0.00  0.00    -0.010 A 
ATOM     14  C   LIG    1       -5.581   3.680   3.560  0.00  0.00    +0.070 A 
ATOM     15  C   LIG    1       -4.337   3.073   3.397  0.00  0.00    -0.070 A 
ENDBRANCH   5   6
BRANCH   1  19
ATOM     16  C   LIG    1        1.179   1.786   0.000  0.00  0.00    +0.150 A 
ATOM     17  C   LIG    1       -0.013   1.076   0.008  0.00  0.00    +0.010 A 
ATOM     18  C   LIG    1       -1.218   1.750   0.017  0.00  0.00    +0.080 A 
ATOM     19  C   LIG    1       -1.236   3.138   0.029  0.00  0.00    +0.060 A 
ATOM     20  C   LIG    1       -0.043   3.848   0.022  0.00  0.00    +0.090 A 
ATOM     21  C   LIG    1        1.161   3.173   0.008  0.00  0.00    -0.060 A 
BRANCH  16  22
ATOM     22  O   LIG    1        2.366   1.122  -0.014  0.00  0.00    -0.310 OA
BRANCH  22  24
ATOM     23  C   LIG    1        4.779   1.000  -0.036  0.00  0.00    +0.070 C 
ATOM     24  C   LIG    1        3.554   1.916  -0.021  0.00  0.00    +0.190 C 
ENDBRANCH  22  24
ENDBRANCH  16  22
ENDBRANCH   1  19
BRANCH   2  25
ATOM     25  S   LIG    1       -2.201   5.022  -2.474  0.00  0.00    +0.020 S 
BRANCH  25  26
ATOM     26  C   LIG    1       -3.456   6.114  -3.186  0.00  0.00    +0.160 C 
BRANCH  26  27
ATOM     27  C   LIG    1       -3.002   6.583  -4.544  0.00  0.00    -0.140 A 
ATOM     28  C   LIG    1       -2.261   7.748  -4.673  0.00  0.00    +0.090 A 
ATOM     29  C   LIG    1       -1.860   8.137  -5.942  0.00  0.00    -0.030 A 
ATOM     30  C   LIG    1       -2.221   7.364  -7.029  0.00  0.00    +0.270 A 
ATOM     31  N   LIG    1       -2.932   6.265  -6.870  0.00  0.00    -0.480 NA
ATOM     32  C   LIG    1       -3.325   5.861  -5.678  0.00  0.00    +0.280 A 
ENDBRANCH  26  27
ENDBRANCH  25  26
ENDBRANCH   2  25
TORSDOF 7
