REMARK  Name = ZINCqH00000515SL.0
REMARK                            x       y       z     vdW  Elec       q    Type
REMARK                         _______ _______ _______ _____ _____    ______ ____
ROOT
ATOM      1  C   LIG    1        5.868   6.231  -0.115  0.00  0.00    +0.180 A 
ATOM      2  C   LIG    1        5.286   7.490  -0.096  0.00  0.00    +0.080 A 
ATOM      3  C   LIG    1        6.079   8.619  -0.190  0.00  0.00    -0.160 A 
ATOM      4  C   LIG    1        7.451   8.499  -0.303  0.00  0.00    +0.060 A 
ATOM      5  C   LIG    1        8.040   7.248  -0.323  0.00  0.00    +0.010 A 
ATOM      6  C   LIG    1        7.254   6.110  -0.223  0.00  0.00    +0.080 A 
ENDROOT
BRANCH   6   7
ATOM      7  N   LIG    1        7.848   4.843  -0.237  0.00  0.00    -0.500 N 
ATOM      8  C   LIG    1        8.720   4.657   0.932  0.00  0.00    +0.160 C 
ATOM      9  C   LIG    1        9.301   3.241   0.909  0.00  0.00    +0.220 C 
ATOM     10  O   LIG    1        9.997   3.037  -0.323  0.00  0.00    -0.380 OA
ATOM     11  C   LIG    1        9.178   3.209  -1.483  0.00  0.00    +0.220 C 
ATOM     12  C   LIG    1        8.595   4.625  -1.484  0.00  0.00    +0.160 C 
ENDBRANCH   6   7
BRANCH   1  15
ATOM     13  O   LIG    1        3.505   6.188   1.113  0.00  0.00    -0.530 OA
ATOM     14  C   LIG    1        3.859   5.156   0.572  0.00  0.00    +0.550 C 
ATOM     15  N   LIG    1        5.068   5.086  -0.020  0.00  0.00    -0.650 N 
ATOM     16  H   LIG    1        5.383   4.243  -0.380  0.00  0.00    +0.420 HD
BRANCH  14  17
ATOM     17  C   LIG    1        3.002   4.030   0.565  0.00  0.00    -0.090 C 
ATOM     18  C   LIG    1        1.785   4.100   1.161  0.00  0.00    +0.190 C 
BRANCH  18  19
ATOM     19  C   LIG    1        0.927   2.974   1.153  0.00  0.00    -0.030 A 
ATOM     20  C   LIG    1       -0.330   2.906   1.718  0.00  0.00    +0.010 A 
ATOM     21  C   LIG    1       -0.811   1.612   1.466  0.00  0.00    -0.060 A 
ATOM     22  C   LIG    1        0.151   0.954   0.782  0.00  0.00    +0.200 A 
ATOM     23  O   LIG    1        1.193   1.776   0.593  0.00  0.00    -0.170 OA
ENDBRANCH  18  19
ENDBRANCH  14  17
ENDBRANCH   1  15
BRANCH   3  24
ATOM     24  C   LIG    1        5.444   9.986  -0.169  0.00  0.00    +0.510 C 
ATOM     25  F   LIG    1        4.161   9.913  -0.721  0.00  0.00    -0.170 F 
ATOM     26  F   LIG    1        6.224  10.874  -0.918  0.00  0.00    -0.180 F 
ATOM     27  F   LIG    1        5.358  10.440   1.152  0.00  0.00    -0.170 F 
ENDBRANCH   3  24
TORSDOF 5
