REMARK  Name = ZINCrH00000aqq8j.0
REMARK                            x       y       z     vdW  Elec       q    Type
REMARK                         _______ _______ _______ _____ _____    ______ ____
ROOT
ATOM      1  C   LIG    1       -3.083  -4.472   0.009  0.00  0.00    +0.590 C 
ATOM      2  N   LIG    1       -2.904  -3.137   0.019  0.00  0.00    -0.600 N 
ATOM      3  C   LIG    1       -2.778  -2.388  -1.239  0.00  0.00    +0.290 C 
ATOM      4  C   LIG    1       -1.489  -1.562  -1.194  0.00  0.00    +0.030 C 
ATOM      5  C   LIG    1       -1.493  -0.685   0.061  0.00  0.00    +0.040 C 
ATOM      6  C   LIG    1       -1.540  -1.575   1.306  0.00  0.00    +0.030 C 
ATOM      7  C   LIG    1       -2.830  -2.401   1.289  0.00  0.00    +0.280 C 
ATOM      8  O   LIG    1       -3.233  -5.058  -1.047  0.00  0.00    -0.520 OA
ENDROOT
BRANCH   1  15
ATOM      9  C   LIG    1       -4.441  -7.944   4.718  0.00  0.00    +0.070 C 
ATOM     10  C   LIG    1       -4.517  -6.446   4.419  0.00  0.00    +0.260 C 
ATOM     11  O   LIG    1       -5.869  -6.078   4.109  0.00  0.00    -0.370 OA
ATOM     12  C   LIG    1       -6.031  -4.744   3.622  0.00  0.00    +0.150 C 
ATOM     13  C   LIG    1       -5.479  -4.641   2.191  0.00  0.00    +0.100 C 
ATOM     14  C   LIG    1       -4.120  -5.285   2.184  0.00  0.00    -0.160 A 
ATOM     15  C   LIG    1       -3.099  -5.223   1.275  0.00  0.00    -0.010 A 
ATOM     16  N   LIG    1       -2.096  -6.007   1.782  0.00  0.00    -0.380 N 
ATOM     17  H   LIG    1       -1.239  -6.163   1.356  0.00  0.00    +0.450 HD
ATOM     18  N   LIG    1       -2.463  -6.505   2.914  0.00  0.00    -0.250 NA
ATOM     19  C   LIG    1       -7.517  -4.381   3.620  0.00  0.00    +0.060 C 
ATOM     20  C   LIG    1       -3.665  -6.120   3.217  0.00  0.00    +0.000 A 
ENDBRANCH   1  15
BRANCH   5  21
ATOM     21  C   LIG    1       -0.242   0.154   0.091  0.00  0.00    -0.150 A 
ATOM     22  C   LIG    1       -0.335   1.535   0.096  0.00  0.00    +0.130 A 
ATOM     23  C   LIG    1        0.815   2.306   0.124  0.00  0.00    -0.020 A 
ATOM     24  C   LIG    1        2.055   1.697   0.146  0.00  0.00    +0.090 A 
ATOM     25  C   LIG    1        2.149   0.318   0.142  0.00  0.00    -0.020 A 
ATOM     26  F   LIG    1       -1.547   2.131   0.068  0.00  0.00    -0.130 F 
ATOM     27  C   LIG    1        1.001  -0.455   0.114  0.00  0.00    +0.130 A 
ATOM     28  F   LIG    1        1.093  -1.803   0.108  0.00  0.00    -0.130 F 
ENDBRANCH   5  21
TORSDOF 2
