REMARK  Name = ZINCrH00000aqq8j.1
REMARK                            x       y       z     vdW  Elec       q    Type
REMARK                         _______ _______ _______ _____ _____    ______ ____
ROOT
ATOM      1  C   LIG    1        0.172   0.151  -3.114  0.00  0.00    +0.610 C 
ATOM      2  N   LIG    1        0.198  -0.042  -4.447  0.00  0.00    -0.600 N 
ATOM      3  C   LIG    1       -0.630   0.780  -5.339  0.00  0.00    +0.280 C 
ATOM      4  C   LIG    1       -1.472  -0.137  -6.224  0.00  0.00    +0.030 C 
ATOM      5  C   LIG    1       -0.554  -1.124  -6.950  0.00  0.00    +0.040 C 
ATOM      6  C   LIG    1        0.186  -1.985  -5.924  0.00  0.00    +0.030 C 
ATOM      7  C   LIG    1        1.050  -1.084  -5.037  0.00  0.00    +0.290 C 
ATOM      8  O   LIG    1       -0.627   0.927  -2.628  0.00  0.00    -0.530 OA
ENDROOT
BRANCH   1  15
ATOM      9  C   LIG    1        2.776  -3.159   1.151  0.00  0.00    +0.070 C 
ATOM     10  C   LIG    1        2.520  -1.663   0.958  0.00  0.00    +0.240 C 
ATOM     11  O   LIG    1        1.414  -1.251   1.773  0.00  0.00    -0.360 OA
ATOM     12  C   LIG    1        0.947   0.076   1.516  0.00  0.00    +0.150 C 
ATOM     13  C   LIG    1        0.245   0.121   0.149  0.00  0.00    +0.120 C 
ATOM     14  C   LIG    1        1.132  -0.582  -0.842  0.00  0.00    -0.140 A 
ATOM     15  C   LIG    1        1.115  -0.580  -2.243  0.00  0.00    +0.000 A 
ATOM     16  N   LIG    1        2.110  -1.360  -2.634  0.00  0.00    -0.260 NA
ATOM     17  N   LIG    1        2.731  -1.837  -1.609  0.00  0.00    -0.360 N 
ATOM     18  H   LIG    1        3.495  -2.433  -1.649  0.00  0.00    +0.450 HD
ATOM     19  C   LIG    1       -0.041   0.490   2.609  0.00  0.00    +0.080 C 
ATOM     20  C   LIG    1        2.164  -1.389  -0.480  0.00  0.00    -0.020 A 
ENDBRANCH   1  15
BRANCH   5  21
ATOM     21  C   LIG    1       -1.379  -2.010  -7.848  0.00  0.00    -0.150 A 
ATOM     22  C   LIG    1       -2.366  -2.816  -7.307  0.00  0.00    +0.130 A 
ATOM     23  C   LIG    1       -3.127  -3.626  -8.133  0.00  0.00    -0.020 A 
ATOM     24  C   LIG    1       -2.894  -3.638  -9.495  0.00  0.00    +0.080 A 
ATOM     25  C   LIG    1       -1.906  -2.837 -10.036  0.00  0.00    -0.020 A 
ATOM     26  F   LIG    1       -2.590  -2.809  -5.975  0.00  0.00    -0.120 F 
ATOM     27  C   LIG    1       -1.147  -2.022  -9.212  0.00  0.00    +0.130 A 
ATOM     28  F   LIG    1       -0.181  -1.240  -9.741  0.00  0.00    -0.130 F 
ENDBRANCH   5  21
TORSDOF 2
